MODEL 1
REMARK VINA RESULT:      -7.7      0.000      0.000
REMARK  Name = 
REMARK  14 active torsions:
REMARK  status: ('A' for Active; 'I' for Inactive)
REMARK    1  A    between atoms: C_2  and  C_3
REMARK    2  A    between atoms: C_2  and  N_20
REMARK    3  A    between atoms: C_3  and  C_4
REMARK    4  A    between atoms: C_8  and  C_9
REMARK    5  A    between atoms: N_13  and  C_14
REMARK    6  A    between atoms: C_14  and  C_15
REMARK    7  A    between atoms: C_15  and  C_16
REMARK    8  A    between atoms: N_20  and  C_21
REMARK    9  A    between atoms: C_21  and  C_22
REMARK   10  A    between atoms: C_22  and  O_23
REMARK   11  A    between atoms: O_23  and  C_24
REMARK   12  A    between atoms: C_29  and  O_30
REMARK   13  A    between atoms: O_30  and  C_31
REMARK   14  A    between atoms: C_31  and  C_32
REMARK                            x       y       z     vdW  Elec       q    Type
REMARK                         _______ _______ _______ _____ _____    ______ ____
ROOT
ATOM      1  C   UNL     1       4.773   7.156  -4.805  0.00  0.00    +0.019 C 
ATOM      2  C   UNL     1       4.285   6.071  -5.942  0.00  0.00    +0.077 C 
ENDROOT
BRANCH   2   3
ATOM      3  C   UNL     1       3.050   7.045  -6.424  0.00  0.00    +0.044 C 
BRANCH   3   4
ATOM      4  C   UNL     1       3.062   6.802  -7.900  0.00  0.00    -0.021 A 
ATOM      5  C   UNL     1       1.842   6.415  -8.441  0.00  0.00    +0.002 A 
ATOM      6  C   UNL     1       1.733   6.213  -9.797  0.00  0.00    +0.069 A 
ATOM      7  C   UNL     1       2.889   5.945 -10.515  0.00  0.00    +0.048 A 
ATOM      8  N   UNL     1       3.157   5.986 -11.904  0.00  0.00    -0.307 N 
ATOM      9  C   UNL     1       4.486   5.469 -12.148  0.00  0.00    +0.095 C 
ATOM     10  C   UNL     1       5.118   5.332 -10.789  0.00  0.00    +0.049 C 
ATOM     11  C   UNL     1       4.081   5.780  -9.821  0.00  0.00    -0.007 A 
ATOM     12  C   UNL     1       4.176   6.241  -8.513  0.00  0.00    -0.007 A 
BRANCH   6  13
ATOM     13  C   UNL     1       0.480   5.810 -10.446  0.00  0.00    +0.285 C 
ATOM     14  O   UNL     1      -0.470   6.620 -10.500  0.00  0.00    -0.267 OA
ATOM     15  N   UNL     1       0.179   4.411 -10.375  0.00  0.00    -0.084 NA
ENDBRANCH   6  13
BRANCH   8  16
ATOM     16  C   UNL     1       2.241   6.532 -12.889  0.00  0.00    +0.093 C 
BRANCH  16  17
ATOM     17  C   UNL     1       2.105   5.573 -14.046  0.00  0.00    +0.057 C 
BRANCH  17  18
ATOM     18  C   UNL     1       0.838   4.756 -13.958  0.00  0.00    +0.184 C 
ATOM     19  O   UNL     1       0.875   3.632 -14.792  0.00  0.00    -0.220 OA
ENDBRANCH  17  18
ENDBRANCH  16  17
ENDBRANCH   8  16
ENDBRANCH   3   4
ENDBRANCH   2   3
BRANCH   2  20
ATOM     20  N   UNL     1       3.342   5.245  -4.993  0.00  0.00    -0.215 NA
BRANCH  20  21
ATOM     21  C   UNL     1       2.968   5.968  -3.866  0.00  0.00    +0.136 C 
BRANCH  21  22
ATOM     22  C   UNL     1       1.608   5.558  -3.312  0.00  0.00    +0.224 C 
BRANCH  22  23
ATOM     23  O   UNL     1       0.698   6.528  -3.821  0.00  0.00    -0.471 OA
BRANCH  23  24
ATOM     24  C   UNL     1      -0.428   6.128  -4.549  0.00  0.00    +0.172 A 
ATOM     25  C   UNL     1      -1.720   6.409  -4.110  0.00  0.00    +0.173 A 
ATOM     26  C   UNL     1      -2.679   6.404  -5.117  0.00  0.00    +0.040 A 
ATOM     27  C   UNL     1      -2.397   5.859  -6.365  0.00  0.00    +0.003 A 
ATOM     28  C   UNL     1      -1.145   5.335  -6.651  0.00  0.00    +0.003 A 
ATOM     29  C   UNL     1      -0.209   5.307  -5.635  0.00  0.00    +0.040 A 
BRANCH  25  30
ATOM     30  O   UNL     1      -1.763   7.302  -3.050  0.00  0.00    -0.463 OA
BRANCH  30  31
ATOM     31  C   UNL     1      -2.232   7.046  -1.771  0.00  0.00    +0.308 C 
BRANCH  31  32
ATOM     32  C   UNL     1      -1.253   6.416  -0.835  0.00  0.00    +0.438 C 
ATOM     33  F   UNL     1      -1.837   6.430   0.428  0.00  0.00    -0.166 F 
ATOM     34  F   UNL     1      -0.888   5.139  -1.170  0.00  0.00    -0.166 F 
ATOM     35  F   UNL     1      -0.076   7.146  -0.704  0.00  0.00    -0.166 F 
ENDBRANCH  31  32
ENDBRANCH  30  31
ENDBRANCH  25  30
ENDBRANCH  23  24
ENDBRANCH  22  23
ENDBRANCH  21  22
ENDBRANCH  20  21
ENDBRANCH   2  20
TORSDOF 14
ENDMDL
MODEL 2
REMARK VINA RESULT:      -7.6      2.479      4.543
REMARK  Name = 
REMARK  14 active torsions:
REMARK  status: ('A' for Active; 'I' for Inactive)
REMARK    1  A    between atoms: C_2  and  C_3
REMARK    2  A    between atoms: C_2  and  N_20
REMARK    3  A    between atoms: C_3  and  C_4
REMARK    4  A    between atoms: C_8  and  C_9
REMARK    5  A    between atoms: N_13  and  C_14
REMARK    6  A    between atoms: C_14  and  C_15
REMARK    7  A    between atoms: C_15  and  C_16
REMARK    8  A    between atoms: N_20  and  C_21
REMARK    9  A    between atoms: C_21  and  C_22
REMARK   10  A    between atoms: C_22  and  O_23
REMARK   11  A    between atoms: O_23  and  C_24
REMARK   12  A    between atoms: C_29  and  O_30
REMARK   13  A    between atoms: O_30  and  C_31
REMARK   14  A    between atoms: C_31  and  C_32
REMARK                            x       y       z     vdW  Elec       q    Type
REMARK                         _______ _______ _______ _____ _____    ______ ____
ROOT
ATOM      1  C   UNL     1      -2.502   7.382  -5.171  0.00  0.00    +0.019 C 
ATOM      2  C   UNL     1      -1.098   6.524  -5.106  0.00  0.00    +0.077 C 
ENDROOT
BRANCH   2   3
ATOM      3  C   UNL     1      -1.595   5.509  -6.302  0.00  0.00    +0.044 C 
BRANCH   3   4
ATOM      4  C   UNL     1      -0.398   5.527  -7.200  0.00  0.00    -0.021 A 
ATOM      5  C   UNL     1      -0.683   5.657  -8.554  0.00  0.00    +0.002 A 
ATOM      6  C   UNL     1       0.349   5.732  -9.460  0.00  0.00    +0.069 A 
ATOM      7  C   UNL     1       1.587   5.226  -9.089  0.00  0.00    +0.048 A 
ATOM      8  N   UNL     1       2.875   5.410  -9.644  0.00  0.00    -0.307 N 
ATOM      9  C   UNL     1       3.812   4.534  -8.972  0.00  0.00    +0.095 C 
ATOM     10  C   UNL     1       3.060   3.973  -7.795  0.00  0.00    +0.049 C 
ATOM     11  C   UNL     1       1.698   4.565  -7.873  0.00  0.00    -0.007 A 
ATOM     12  C   UNL     1       0.712   4.743  -6.909  0.00  0.00    -0.007 A 
BRANCH   6  13
ATOM     13  C   UNL     1       0.134   5.876 -10.905  0.00  0.00    +0.285 C 
ATOM     14  O   UNL     1      -0.472   6.880 -11.336  0.00  0.00    -0.267 OA
ATOM     15  N   UNL     1       0.017   4.646 -11.629  0.00  0.00    -0.084 NA
ENDBRANCH   6  13
BRANCH   8  16
ATOM     16  C   UNL     1       3.181   6.382 -10.677  0.00  0.00    +0.093 C 
BRANCH  16  17
ATOM     17  C   UNL     1       4.526   7.009 -10.407  0.00  0.00    +0.057 C 
BRANCH  17  18
ATOM     18  C   UNL     1       5.538   6.658 -11.471  0.00  0.00    +0.184 C 
ATOM     19  O   UNL     1       5.137   5.558 -12.240  0.00  0.00    -0.220 OA
ENDBRANCH  17  18
ENDBRANCH  16  17
ENDBRANCH   8  16
ENDBRANCH   3   4
ENDBRANCH   2   3
BRANCH   2  20
ATOM     20  N   UNL     1      -1.562   5.525  -3.984  0.00  0.00    -0.215 NA
BRANCH  20  21
ATOM     21  C   UNL     1      -0.637   5.432  -2.950  0.00  0.00    +0.136 C 
BRANCH  21  22
ATOM     22  C   UNL     1       0.802   5.309  -3.439  0.00  0.00    +0.224 C 
BRANCH  22  23
ATOM     23  O   UNL     1       1.431   6.522  -3.037  0.00  0.00    -0.471 OA
BRANCH  23  24
ATOM     24  C   UNL     1       2.596   6.959  -3.675  0.00  0.00    +0.172 A 
ATOM     25  C   UNL     1       3.705   7.395  -2.952  0.00  0.00    +0.173 A 
ATOM     26  C   UNL     1       4.906   7.325  -3.651  0.00  0.00    +0.040 A 
ATOM     27  C   UNL     1       4.916   7.137  -5.029  0.00  0.00    +0.003 A 
ATOM     28  C   UNL     1       3.735   6.982  -5.739  0.00  0.00    +0.003 A 
ATOM     29  C   UNL     1       2.545   7.091  -5.046  0.00  0.00    +0.040 A 
BRANCH  25  30
ATOM     30  O   UNL     1       3.622   7.128  -1.594  0.00  0.00    -0.463 OA
BRANCH  30  31
ATOM     31  C   UNL     1       4.327   6.159  -0.897  0.00  0.00    +0.308 C 
BRANCH  31  32
ATOM     32  C   UNL     1       3.943   4.745  -1.184  0.00  0.00    +0.438 C 
ATOM     33  F   UNL     1       4.859   3.936  -0.519  0.00  0.00    -0.166 F 
ATOM     34  F   UNL     1       2.667   4.416  -0.809  0.00  0.00    -0.166 F 
ATOM     35  F   UNL     1       4.063   4.409  -2.528  0.00  0.00    -0.166 F 
ENDBRANCH  31  32
ENDBRANCH  30  31
ENDBRANCH  25  30
ENDBRANCH  23  24
ENDBRANCH  22  23
ENDBRANCH  21  22
ENDBRANCH  20  21
ENDBRANCH   2  20
TORSDOF 14
ENDMDL
MODEL 3
REMARK VINA RESULT:      -7.6      2.391      3.172
REMARK  Name = 
REMARK  14 active torsions:
REMARK  status: ('A' for Active; 'I' for Inactive)
REMARK    1  A    between atoms: C_2  and  C_3
REMARK    2  A    between atoms: C_2  and  N_20
REMARK    3  A    between atoms: C_3  and  C_4
REMARK    4  A    between atoms: C_8  and  C_9
REMARK    5  A    between atoms: N_13  and  C_14
REMARK    6  A    between atoms: C_14  and  C_15
REMARK    7  A    between atoms: C_15  and  C_16
REMARK    8  A    between atoms: N_20  and  C_21
REMARK    9  A    between atoms: C_21  and  C_22
REMARK   10  A    between atoms: C_22  and  O_23
REMARK   11  A    between atoms: O_23  and  C_24
REMARK   12  A    between atoms: C_29  and  O_30
REMARK   13  A    between atoms: O_30  and  C_31
REMARK   14  A    between atoms: C_31  and  C_32
REMARK                            x       y       z     vdW  Elec       q    Type
REMARK                         _______ _______ _______ _____ _____    ______ ____
ROOT
ATOM      1  C   UNL     1       2.745   7.228  -7.591  0.00  0.00    +0.019 C 
ATOM      2  C   UNL     1       4.060   6.416  -7.024  0.00  0.00    +0.077 C 
ENDROOT
BRANCH   2   3
ATOM      3  C   UNL     1       3.781   5.145  -8.032  0.00  0.00    +0.044 C 
BRANCH   3   4
ATOM      4  C   UNL     1       4.582   5.554  -9.227  0.00  0.00    -0.021 A 
ATOM      5  C   UNL     1       3.968   5.324 -10.452  0.00  0.00    +0.002 A 
ATOM      6  C   UNL     1       4.600   5.708 -11.611  0.00  0.00    +0.069 A 
ATOM      7  C   UNL     1       5.977   5.877 -11.584  0.00  0.00    +0.048 A 
ATOM      8  N   UNL     1       6.856   6.528 -12.480  0.00  0.00    -0.307 N 
ATOM      9  C   UNL     1       8.222   6.286 -12.067  0.00  0.00    +0.095 C 
ATOM     10  C   UNL     1       8.121   5.643 -10.710  0.00  0.00    +0.049 C 
ATOM     11  C   UNL     1       6.665   5.541 -10.425  0.00  0.00    -0.007 A 
ATOM     12  C   UNL     1       5.964   5.409  -9.231  0.00  0.00    -0.007 A 
BRANCH   6  13
ATOM     13  C   UNL     1       4.016   5.508 -12.943  0.00  0.00    +0.285 C 
ATOM     14  O   UNL     1       2.883   5.972 -13.191  0.00  0.00    -0.267 OA
ATOM     15  N   UNL     1       4.422   4.307 -13.611  0.00  0.00    -0.084 NA
ENDBRANCH   6  13
BRANCH   8  16
ATOM     16  C   UNL     1       6.416   7.355 -13.589  0.00  0.00    +0.093 C 
BRANCH  16  17
ATOM     17  C   UNL     1       6.836   6.725 -14.894  0.00  0.00    +0.057 C 
BRANCH  17  18
ATOM     18  C   UNL     1       6.100   7.316 -16.071  0.00  0.00    +0.184 C 
ATOM     19  O   UNL     1       5.901   8.695 -15.932  0.00  0.00    -0.220 OA
ENDBRANCH  17  18
ENDBRANCH  16  17
ENDBRANCH   8  16
ENDBRANCH   3   4
ENDBRANCH   2   3
BRANCH   2  20
ATOM     20  N   UNL     1       3.321   5.709  -5.831  0.00  0.00    -0.215 NA
BRANCH  20  21
ATOM     21  C   UNL     1       3.236   6.527  -4.709  0.00  0.00    +0.136 C 
BRANCH  21  22
ATOM     22  C   UNL     1       1.811   6.691  -4.192  0.00  0.00    +0.224 C 
BRANCH  22  23
ATOM     23  O   UNL     1       1.202   5.418  -4.388  0.00  0.00    -0.471 OA
BRANCH  23  24
ATOM     24  C   UNL     1      -0.066   5.323  -4.972  0.00  0.00    +0.172 A 
ATOM     25  C   UNL     1      -1.228   5.373  -4.206  0.00  0.00    +0.173 A 
ATOM     26  C   UNL     1      -2.363   5.757  -4.913  0.00  0.00    +0.040 A 
ATOM     27  C   UNL     1      -2.362   5.773  -6.303  0.00  0.00    +0.003 A 
ATOM     28  C   UNL     1      -1.224   5.438  -7.022  0.00  0.00    +0.003 A 
ATOM     29  C   UNL     1      -0.113   5.020  -6.315  0.00  0.00    +0.040 A 
BRANCH  25  30
ATOM     30  O   UNL     1      -1.011   5.756  -2.891  0.00  0.00    -0.463 OA
BRANCH  30  31
ATOM     31  C   UNL     1      -1.929   5.716  -1.854  0.00  0.00    +0.308 C 
BRANCH  31  32
ATOM     32  C   UNL     1      -2.654   6.992  -1.580  0.00  0.00    +0.438 C 
ATOM     33  F   UNL     1      -3.949   6.832  -2.065  0.00  0.00    -0.166 F 
ATOM     34  F   UNL     1      -2.689   7.354  -0.259  0.00  0.00    -0.166 F 
ATOM     35  F   UNL     1      -2.132   8.077  -2.277  0.00  0.00    -0.166 F 
ENDBRANCH  31  32
ENDBRANCH  30  31
ENDBRANCH  25  30
ENDBRANCH  23  24
ENDBRANCH  22  23
ENDBRANCH  21  22
ENDBRANCH  20  21
ENDBRANCH   2  20
TORSDOF 14
ENDMDL
MODEL 4
REMARK VINA RESULT:      -7.5      3.554      4.747
REMARK  Name = 
REMARK  14 active torsions:
REMARK  status: ('A' for Active; 'I' for Inactive)
REMARK    1  A    between atoms: C_2  and  C_3
REMARK    2  A    between atoms: C_2  and  N_20
REMARK    3  A    between atoms: C_3  and  C_4
REMARK    4  A    between atoms: C_8  and  C_9
REMARK    5  A    between atoms: N_13  and  C_14
REMARK    6  A    between atoms: C_14  and  C_15
REMARK    7  A    between atoms: C_15  and  C_16
REMARK    8  A    between atoms: N_20  and  C_21
REMARK    9  A    between atoms: C_21  and  C_22
REMARK   10  A    between atoms: C_22  and  O_23
REMARK   11  A    between atoms: O_23  and  C_24
REMARK   12  A    between atoms: C_29  and  O_30
REMARK   13  A    between atoms: O_30  and  C_31
REMARK   14  A    between atoms: C_31  and  C_32
REMARK                            x       y       z     vdW  Elec       q    Type
REMARK                         _______ _______ _______ _____ _____    ______ ____
ROOT
ATOM      1  C   UNL     1       3.238   7.159  -7.139  0.00  0.00    +0.019 C 
ATOM      2  C   UNL     1       4.102   5.869  -6.592  0.00  0.00    +0.077 C 
ENDROOT
BRANCH   2   3
ATOM      3  C   UNL     1       3.566   4.916  -7.822  0.00  0.00    +0.044 C 
BRANCH   3   4
ATOM      4  C   UNL     1       4.428   5.399  -8.945  0.00  0.00    -0.021 A 
ATOM      5  C   UNL     1       3.888   5.228 -10.214  0.00  0.00    +0.002 A 
ATOM      6  C   UNL     1       4.578   5.682 -11.313  0.00  0.00    +0.069 A 
ATOM      7  C   UNL     1       5.949   5.866 -11.197  0.00  0.00    +0.048 A 
ATOM      8  N   UNL     1       6.867   6.576 -12.006  0.00  0.00    -0.307 N 
ATOM      9  C   UNL     1       8.211   6.329 -11.529  0.00  0.00    +0.095 C 
ATOM     10  C   UNL     1       8.044   5.613 -10.215  0.00  0.00    +0.049 C 
ATOM     11  C   UNL     1       6.575   5.477 -10.020  0.00  0.00    -0.007 A 
ATOM     12  C   UNL     1       5.810   5.272  -8.878  0.00  0.00    -0.007 A 
BRANCH   6  13
ATOM     13  C   UNL     1       4.075   5.546 -12.685  0.00  0.00    +0.285 C 
ATOM     14  O   UNL     1       2.941   5.989 -12.967  0.00  0.00    -0.267 OA
ATOM     15  N   UNL     1       4.557   4.403 -13.401  0.00  0.00    -0.084 NA
ENDBRANCH   6  13
BRANCH   8  16
ATOM     16  C   UNL     1       6.478   7.456 -13.093  0.00  0.00    +0.093 C 
BRANCH  16  17
ATOM     17  C   UNL     1       6.924   6.869 -14.409  0.00  0.00    +0.057 C 
BRANCH  17  18
ATOM     18  C   UNL     1       5.966   7.197 -15.529  0.00  0.00    +0.184 C 
ATOM     19  O   UNL     1       6.030   8.545 -15.902  0.00  0.00    -0.220 OA
ENDBRANCH  17  18
ENDBRANCH  16  17
ENDBRANCH   8  16
ENDBRANCH   3   4
ENDBRANCH   2   3
BRANCH   2  20
ATOM     20  N   UNL     1       2.997   5.329  -5.613  0.00  0.00    -0.215 NA
BRANCH  20  21
ATOM     21  C   UNL     1       2.970   6.032  -4.413  0.00  0.00    +0.136 C 
BRANCH  21  22
ATOM     22  C   UNL     1       1.558   6.356  -3.938  0.00  0.00    +0.224 C 
BRANCH  22  23
ATOM     23  O   UNL     1       0.896   6.877  -5.086  0.00  0.00    -0.471 OA
BRANCH  23  24
ATOM     24  C   UNL     1      -0.452   6.583  -5.320  0.00  0.00    +0.172 A 
ATOM     25  C   UNL     1      -0.896   6.127  -6.559  0.00  0.00    +0.173 A 
ATOM     26  C   UNL     1      -2.099   5.428  -6.513  0.00  0.00    +0.040 A 
ATOM     27  C   UNL     1      -2.904   5.477  -5.381  0.00  0.00    +0.003 A 
ATOM     28  C   UNL     1      -2.520   6.192  -4.258  0.00  0.00    +0.003 A 
ATOM     29  C   UNL     1      -1.344   6.915  -4.323  0.00  0.00    +0.040 A 
BRANCH  25  30
ATOM     30  O   UNL     1       0.132   5.775  -7.421  0.00  0.00    -0.463 OA
BRANCH  30  31
ATOM     31  C   UNL     1       0.001   5.165  -8.659  0.00  0.00    +0.308 C 
BRANCH  31  32
ATOM     32  C   UNL     1       0.249   6.041  -9.843  0.00  0.00    +0.438 C 
ATOM     33  F   UNL     1       0.808   5.234 -10.829  0.00  0.00    -0.166 F 
ATOM     34  F   UNL     1      -0.867   6.670 -10.327  0.00  0.00    -0.166 F 
ATOM     35  F   UNL     1       1.194   7.033  -9.600  0.00  0.00    -0.166 F 
ENDBRANCH  31  32
ENDBRANCH  30  31
ENDBRANCH  25  30
ENDBRANCH  23  24
ENDBRANCH  22  23
ENDBRANCH  21  22
ENDBRANCH  20  21
ENDBRANCH   2  20
TORSDOF 14
ENDMDL
MODEL 5
REMARK VINA RESULT:      -7.5      1.822      2.870
REMARK  Name = 
REMARK  14 active torsions:
REMARK  status: ('A' for Active; 'I' for Inactive)
REMARK    1  A    between atoms: C_2  and  C_3
REMARK    2  A    between atoms: C_2  and  N_20
REMARK    3  A    between atoms: C_3  and  C_4
REMARK    4  A    between atoms: C_8  and  C_9
REMARK    5  A    between atoms: N_13  and  C_14
REMARK    6  A    between atoms: C_14  and  C_15
REMARK    7  A    between atoms: C_15  and  C_16
REMARK    8  A    between atoms: N_20  and  C_21
REMARK    9  A    between atoms: C_21  and  C_22
REMARK   10  A    between atoms: C_22  and  O_23
REMARK   11  A    between atoms: O_23  and  C_24
REMARK   12  A    between atoms: C_29  and  O_30
REMARK   13  A    between atoms: O_30  and  C_31
REMARK   14  A    between atoms: C_31  and  C_32
REMARK                            x       y       z     vdW  Elec       q    Type
REMARK                         _______ _______ _______ _____ _____    ______ ____
ROOT
ATOM      1  C   UNL     1       4.426   7.454  -4.679  0.00  0.00    +0.019 C 
ATOM      2  C   UNL     1       4.146   6.263  -5.781  0.00  0.00    +0.077 C 
ENDROOT
BRANCH   2   3
ATOM      3  C   UNL     1       2.759   6.986  -6.294  0.00  0.00    +0.044 C 
BRANCH   3   4
ATOM      4  C   UNL     1       2.859   6.765  -7.770  0.00  0.00    -0.021 A 
ATOM      5  C   UNL     1       1.671   6.396  -8.389  0.00  0.00    +0.002 A 
ATOM      6  C   UNL     1       1.643   6.215  -9.752  0.00  0.00    +0.069 A 
ATOM      7  C   UNL     1       2.839   5.950 -10.404  0.00  0.00    +0.048 A 
ATOM      8  N   UNL     1       3.190   6.011 -11.773  0.00  0.00    -0.307 N 
ATOM      9  C   UNL     1       4.528   5.487 -11.945  0.00  0.00    +0.095 C 
ATOM     10  C   UNL     1       5.076   5.325 -10.553  0.00  0.00    +0.049 C 
ATOM     11  C   UNL     1       3.985   5.765  -9.642  0.00  0.00    -0.007 A 
ATOM     12  C   UNL     1       4.004   6.205  -8.323  0.00  0.00    -0.007 A 
BRANCH   6  13
ATOM     13  C   UNL     1       0.429   5.832 -10.483  0.00  0.00    +0.285 C 
ATOM     14  O   UNL     1      -0.510   6.650 -10.580  0.00  0.00    -0.267 OA
ATOM     15  N   UNL     1       0.115   4.434 -10.452  0.00  0.00    -0.084 NA
ENDBRANCH   6  13
BRANCH   8  16
ATOM     16  C   UNL     1       2.339   6.578 -12.803  0.00  0.00    +0.093 C 
BRANCH  16  17
ATOM     17  C   UNL     1       2.269   5.640 -13.982  0.00  0.00    +0.057 C 
BRANCH  17  18
ATOM     18  C   UNL     1       0.851   5.228 -14.294  0.00  0.00    +0.184 C 
ATOM     19  O   UNL     1       0.366   5.840 -15.457  0.00  0.00    -0.220 OA
ENDBRANCH  17  18
ENDBRANCH  16  17
ENDBRANCH   8  16
ENDBRANCH   3   4
ENDBRANCH   2   3
BRANCH   2  20
ATOM     20  N   UNL     1       3.361   5.312  -4.806  0.00  0.00    -0.215 NA
BRANCH  20  21
ATOM     21  C   UNL     1       2.255   5.939  -4.241  0.00  0.00    +0.136 C 
BRANCH  21  22
ATOM     22  C   UNL     1       1.927   5.432  -2.841  0.00  0.00    +0.224 C 
BRANCH  22  23
ATOM     23  O   UNL     1       0.538   5.119  -2.880  0.00  0.00    -0.471 OA
BRANCH  23  24
ATOM     24  C   UNL     1      -0.392   5.951  -2.247  0.00  0.00    +0.172 A 
ATOM     25  C   UNL     1      -1.661   6.166  -2.781  0.00  0.00    +0.173 A 
ATOM     26  C   UNL     1      -2.609   6.582  -1.850  0.00  0.00    +0.040 A 
ATOM     27  C   UNL     1      -2.220   7.032  -0.594  0.00  0.00    +0.003 A 
ATOM     28  C   UNL     1      -0.885   7.050  -0.220  0.00  0.00    +0.003 A 
ATOM     29  C   UNL     1       0.054   6.673  -1.162  0.00  0.00    +0.040 A 
BRANCH  25  30
ATOM     30  O   UNL     1      -1.975   5.312  -3.827  0.00  0.00    -0.463 OA
BRANCH  30  31
ATOM     31  C   UNL     1      -2.266   5.675  -5.133  0.00  0.00    +0.308 C 
BRANCH  31  32
ATOM     32  C   UNL     1      -1.098   5.749  -6.060  0.00  0.00    +0.438 C 
ATOM     33  F   UNL     1      -0.478   6.973  -5.830  0.00  0.00    -0.166 F 
ATOM     34  F   UNL     1      -0.194   4.730  -5.918  0.00  0.00    -0.166 F 
ATOM     35  F   UNL     1      -1.467   5.770  -7.401  0.00  0.00    -0.166 F 
ENDBRANCH  31  32
ENDBRANCH  30  31
ENDBRANCH  25  30
ENDBRANCH  23  24
ENDBRANCH  22  23
ENDBRANCH  21  22
ENDBRANCH  20  21
ENDBRANCH   2  20
TORSDOF 14
ENDMDL
MODEL 6
REMARK VINA RESULT:      -7.5      3.547      8.945
REMARK  Name = 
REMARK  14 active torsions:
REMARK  status: ('A' for Active; 'I' for Inactive)
REMARK    1  A    between atoms: C_2  and  C_3
REMARK    2  A    between atoms: C_2  and  N_20
REMARK    3  A    between atoms: C_3  and  C_4
REMARK    4  A    between atoms: C_8  and  C_9
REMARK    5  A    between atoms: N_13  and  C_14
REMARK    6  A    between atoms: C_14  and  C_15
REMARK    7  A    between atoms: C_15  and  C_16
REMARK    8  A    between atoms: N_20  and  C_21
REMARK    9  A    between atoms: C_21  and  C_22
REMARK   10  A    between atoms: C_22  and  O_23
REMARK   11  A    between atoms: O_23  and  C_24
REMARK   12  A    between atoms: C_29  and  O_30
REMARK   13  A    between atoms: O_30  and  C_31
REMARK   14  A    between atoms: C_31  and  C_32
REMARK                            x       y       z     vdW  Elec       q    Type
REMARK                         _______ _______ _______ _____ _____    ______ ____
ROOT
ATOM      1  C   UNL     1       0.417   4.036 -11.004  0.00  0.00    +0.019 C 
ATOM      2  C   UNL     1       1.322   4.932  -9.959  0.00  0.00    +0.077 C 
ENDROOT
BRANCH   2   3
ATOM      3  C   UNL     1       0.006   5.788  -9.464  0.00  0.00    +0.044 C 
BRANCH   3   4
ATOM      4  C   UNL     1       0.185   5.743  -7.980  0.00  0.00    -0.021 A 
ATOM      5  C   UNL     1      -0.972   5.965  -7.243  0.00  0.00    +0.002 A 
ATOM      6  C   UNL     1      -0.925   5.899  -5.870  0.00  0.00    +0.069 A 
ATOM      7  C   UNL     1       0.301   6.074  -5.245  0.00  0.00    +0.048 A 
ATOM      8  N   UNL     1       0.730   5.778  -3.930  0.00  0.00    -0.307 N 
ATOM      9  C   UNL     1       2.067   6.297  -3.737  0.00  0.00    +0.095 C 
ATOM     10  C   UNL     1       2.533   6.720  -5.105  0.00  0.00    +0.049 C 
ATOM     11  C   UNL     1       1.399   6.422  -6.021  0.00  0.00    -0.007 A 
ATOM     12  C   UNL     1       1.351   6.225  -7.397  0.00  0.00    -0.007 A 
BRANCH   6  13
ATOM     13  C   UNL     1      -2.102   6.114  -5.020  0.00  0.00    +0.285 C 
ATOM     14  O   UNL     1      -2.971   5.219  -4.939  0.00  0.00    -0.267 OA
ATOM     15  N   UNL     1      -2.515   7.479  -4.885  0.00  0.00    -0.084 NA
ENDBRANCH   6  13
BRANCH   8  16
ATOM     16  C   UNL     1      -0.053   5.014  -2.975  0.00  0.00    +0.093 C 
BRANCH  16  17
ATOM     17  C   UNL     1      -0.034   5.702  -1.633  0.00  0.00    +0.057 C 
BRANCH  17  18
ATOM     18  C   UNL     1      -1.423   5.885  -1.071  0.00  0.00    +0.184 C 
ATOM     19  O   UNL     1      -2.354   5.030  -1.674  0.00  0.00    -0.220 OA
ENDBRANCH  17  18
ENDBRANCH  16  17
ENDBRANCH   8  16
ENDBRANCH   3   4
ENDBRANCH   2   3
BRANCH   2  20
ATOM     20  N   UNL     1       1.728   6.041 -10.996  0.00  0.00    -0.215 NA
BRANCH  20  21
ATOM     21  C   UNL     1       1.623   5.596 -12.309  0.00  0.00    +0.136 C 
BRANCH  21  22
ATOM     22  C   UNL     1       2.896   5.812 -13.120  0.00  0.00    +0.224 C 
BRANCH  22  23
ATOM     23  O   UNL     1       3.952   5.758 -12.165  0.00  0.00    -0.471 OA
BRANCH  23  24
ATOM     24  C   UNL     1       5.270   6.028 -12.552  0.00  0.00    +0.172 A 
ATOM     25  C   UNL     1       6.192   6.580 -11.666  0.00  0.00    +0.173 A 
ATOM     26  C   UNL     1       7.521   6.341 -12.001  0.00  0.00    +0.040 A 
ATOM     27  C   UNL     1       7.860   5.870 -13.265  0.00  0.00    +0.003 A 
ATOM     28  C   UNL     1       6.886   5.597 -14.213  0.00  0.00    +0.003 A 
ATOM     29  C   UNL     1       5.571   5.874 -13.887  0.00  0.00    +0.040 A 
BRANCH  25  30
ATOM     30  O   UNL     1       5.753   6.603 -10.350  0.00  0.00    -0.463 OA
BRANCH  30  31
ATOM     31  C   UNL     1       6.115   5.723  -9.342  0.00  0.00    +0.308 C 
BRANCH  31  32
ATOM     32  C   UNL     1       5.011   5.284  -8.437  0.00  0.00    +0.438 C 
ATOM     33  F   UNL     1       4.153   6.370  -8.293  0.00  0.00    -0.166 F 
ATOM     34  F   UNL     1       4.315   4.190  -8.880  0.00  0.00    -0.166 F 
ATOM     35  F   UNL     1       5.447   4.986  -7.150  0.00  0.00    -0.166 F 
ENDBRANCH  31  32
ENDBRANCH  30  31
ENDBRANCH  25  30
ENDBRANCH  23  24
ENDBRANCH  22  23
ENDBRANCH  21  22
ENDBRANCH  20  21
ENDBRANCH   2  20
TORSDOF 14
ENDMDL
MODEL 7
REMARK VINA RESULT:      -7.5      2.837      4.139
REMARK  Name = 
REMARK  14 active torsions:
REMARK  status: ('A' for Active; 'I' for Inactive)
REMARK    1  A    between atoms: C_2  and  C_3
REMARK    2  A    between atoms: C_2  and  N_20
REMARK    3  A    between atoms: C_3  and  C_4
REMARK    4  A    between atoms: C_8  and  C_9
REMARK    5  A    between atoms: N_13  and  C_14
REMARK    6  A    between atoms: C_14  and  C_15
REMARK    7  A    between atoms: C_15  and  C_16
REMARK    8  A    between atoms: N_20  and  C_21
REMARK    9  A    between atoms: C_21  and  C_22
REMARK   10  A    between atoms: C_22  and  O_23
REMARK   11  A    between atoms: O_23  and  C_24
REMARK   12  A    between atoms: C_29  and  O_30
REMARK   13  A    between atoms: O_30  and  C_31
REMARK   14  A    between atoms: C_31  and  C_32
REMARK                            x       y       z     vdW  Elec       q    Type
REMARK                         _______ _______ _______ _____ _____    ______ ____
ROOT
ATOM      1  C   UNL     1       2.452   4.018  -7.465  0.00  0.00    +0.019 C 
ATOM      2  C   UNL     1       2.640   5.380  -8.370  0.00  0.00    +0.077 C 
ENDROOT
BRANCH   2   3
ATOM      3  C   UNL     1       4.186   5.585  -7.845  0.00  0.00    +0.044 C 
BRANCH   3   4
ATOM      4  C   UNL     1       4.887   5.854  -9.139  0.00  0.00    -0.021 A 
ATOM      5  C   UNL     1       4.138   5.585 -10.279  0.00  0.00    +0.002 A 
ATOM      6  C   UNL     1       4.673   5.843 -11.519  0.00  0.00    +0.069 A 
ATOM      7  C   UNL     1       6.053   5.916 -11.637  0.00  0.00    +0.048 A 
ATOM      8  N   UNL     1       6.877   6.441 -12.660  0.00  0.00    -0.307 N 
ATOM      9  C   UNL     1       8.260   6.131 -12.364  0.00  0.00    +0.095 C 
ATOM     10  C   UNL     1       8.256   5.591 -10.959  0.00  0.00    +0.049 C 
ATOM     11  C   UNL     1       6.832   5.612 -10.528  0.00  0.00    -0.007 A 
ATOM     12  C   UNL     1       6.250   5.611  -9.266  0.00  0.00    -0.007 A 
BRANCH   6  13
ATOM     13  C   UNL     1       3.946   5.594 -12.770  0.00  0.00    +0.285 C 
ATOM     14  O   UNL     1       2.758   5.968 -12.872  0.00  0.00    -0.267 OA
ATOM     15  N   UNL     1       4.358   4.428 -13.492  0.00  0.00    -0.084 NA
ENDBRANCH   6  13
BRANCH   8  16
ATOM     16  C   UNL     1       6.380   7.219 -13.781  0.00  0.00    +0.093 C 
BRANCH  16  17
ATOM     17  C   UNL     1       6.828   6.591 -15.077  0.00  0.00    +0.057 C 
BRANCH  17  18
ATOM     18  C   UNL     1       7.008   7.616 -16.170  0.00  0.00    +0.184 C 
ATOM     19  O   UNL     1       8.085   7.309 -17.011  0.00  0.00    -0.220 OA
ENDBRANCH  17  18
ENDBRANCH  16  17
ENDBRANCH   8  16
ENDBRANCH   3   4
ENDBRANCH   2   3
BRANCH   2  20
ATOM     20  N   UNL     1       2.079   6.378  -7.292  0.00  0.00    -0.215 NA
BRANCH  20  21
ATOM     21  C   UNL     1       0.797   6.034  -6.876  0.00  0.00    +0.136 C 
BRANCH  21  22
ATOM     22  C   UNL     1       0.438   6.600  -5.506  0.00  0.00    +0.224 C 
BRANCH  22  23
ATOM     23  O   UNL     1       0.397   5.469  -4.642  0.00  0.00    -0.471 OA
BRANCH  23  24
ATOM     24  C   UNL     1       1.101   5.476  -3.433  0.00  0.00    +0.172 A 
ATOM     25  C   UNL     1       0.449   5.366  -2.207  0.00  0.00    +0.173 A 
ATOM     26  C   UNL     1       1.253   4.902  -1.171  0.00  0.00    +0.040 A 
ATOM     27  C   UNL     1       2.636   4.866  -1.308  0.00  0.00    +0.003 A 
ATOM     28  C   UNL     1       3.250   5.260  -2.487  0.00  0.00    +0.003 A 
ATOM     29  C   UNL     1       2.449   5.756  -3.498  0.00  0.00    +0.040 A 
BRANCH  25  30
ATOM     30  O   UNL     1      -0.889   5.016  -2.320  0.00  0.00    -0.463 OA
BRANCH  30  31
ATOM     31  C   UNL     1      -1.978   5.767  -1.908  0.00  0.00    +0.308 C 
BRANCH  31  32
ATOM     32  C   UNL     1      -3.024   6.014  -2.944  0.00  0.00    +0.438 C 
ATOM     33  F   UNL     1      -3.255   4.799  -3.581  0.00  0.00    -0.166 F 
ATOM     34  F   UNL     1      -4.200   6.520  -2.455  0.00  0.00    -0.166 F 
ATOM     35  F   UNL     1      -2.604   6.881  -3.948  0.00  0.00    -0.166 F 
ENDBRANCH  31  32
ENDBRANCH  30  31
ENDBRANCH  25  30
ENDBRANCH  23  24
ENDBRANCH  22  23
ENDBRANCH  21  22
ENDBRANCH  20  21
ENDBRANCH   2  20
TORSDOF 14
ENDMDL
MODEL 8
REMARK VINA RESULT:      -7.4      2.757      4.928
REMARK  Name = 
REMARK  14 active torsions:
REMARK  status: ('A' for Active; 'I' for Inactive)
REMARK    1  A    between atoms: C_2  and  C_3
REMARK    2  A    between atoms: C_2  and  N_20
REMARK    3  A    between atoms: C_3  and  C_4
REMARK    4  A    between atoms: C_8  and  C_9
REMARK    5  A    between atoms: N_13  and  C_14
REMARK    6  A    between atoms: C_14  and  C_15
REMARK    7  A    between atoms: C_15  and  C_16
REMARK    8  A    between atoms: N_20  and  C_21
REMARK    9  A    between atoms: C_21  and  C_22
REMARK   10  A    between atoms: C_22  and  O_23
REMARK   11  A    between atoms: O_23  and  C_24
REMARK   12  A    between atoms: C_29  and  O_30
REMARK   13  A    between atoms: O_30  and  C_31
REMARK   14  A    between atoms: C_31  and  C_32
REMARK                            x       y       z     vdW  Elec       q    Type
REMARK                         _______ _______ _______ _____ _____    ______ ____
ROOT
ATOM      1  C   UNL     1      -2.258   7.113  -5.248  0.00  0.00    +0.019 C 
ATOM      2  C   UNL     1      -0.729   6.536  -5.441  0.00  0.00    +0.077 C 
ENDROOT
BRANCH   2   3
ATOM      3  C   UNL     1      -1.213   5.489  -6.616  0.00  0.00    +0.044 C 
BRANCH   3   4
ATOM      4  C   UNL     1      -0.033   5.535  -7.534  0.00  0.00    -0.021 A 
ATOM      5  C   UNL     1      -0.344   5.648  -8.884  0.00  0.00    +0.002 A 
ATOM      6  C   UNL     1       0.669   5.747  -9.809  0.00  0.00    +0.069 A 
ATOM      7  C   UNL     1       1.926   5.278  -9.457  0.00  0.00    +0.048 A 
ATOM      8  N   UNL     1       3.199   5.496 -10.036  0.00  0.00    -0.307 N 
ATOM      9  C   UNL     1       4.172   4.652  -9.376  0.00  0.00    +0.095 C 
ATOM     10  C   UNL     1       3.458   4.076  -8.182  0.00  0.00    +0.049 C 
ATOM     11  C   UNL     1       2.078   4.629  -8.239  0.00  0.00    -0.007 A 
ATOM     12  C   UNL     1       1.104   4.785  -7.259  0.00  0.00    -0.007 A 
BRANCH   6  13
ATOM     13  C   UNL     1       0.424   5.877 -11.250  0.00  0.00    +0.285 C 
ATOM     14  O   UNL     1      -0.076   6.932 -11.694  0.00  0.00    -0.267 OA
ATOM     15  N   UNL     1       0.141   4.649 -11.933  0.00  0.00    -0.084 NA
ENDBRANCH   6  13
BRANCH   8  16
ATOM     16  C   UNL     1       3.459   6.470 -11.080  0.00  0.00    +0.093 C 
BRANCH  16  17
ATOM     17  C   UNL     1       4.943   6.711 -11.196  0.00  0.00    +0.057 C 
BRANCH  17  18
ATOM     18  C   UNL     1       5.484   6.279 -12.538  0.00  0.00    +0.184 C 
ATOM     19  O   UNL     1       5.257   4.920 -12.787  0.00  0.00    -0.220 OA
ENDBRANCH  17  18
ENDBRANCH  16  17
ENDBRANCH   8  16
ENDBRANCH   3   4
ENDBRANCH   2   3
BRANCH   2  20
ATOM     20  N   UNL     1      -0.825   5.427  -4.331  0.00  0.00    -0.215 NA
BRANCH  20  21
ATOM     21  C   UNL     1      -0.970   5.970  -3.059  0.00  0.00    +0.136 C 
BRANCH  21  22
ATOM     22  C   UNL     1      -0.005   5.376  -2.039  0.00  0.00    +0.224 C 
BRANCH  22  23
ATOM     23  O   UNL     1       1.270   5.416  -2.674  0.00  0.00    -0.471 OA
BRANCH  23  24
ATOM     24  C   UNL     1       2.381   5.930  -1.996  0.00  0.00    +0.172 A 
ATOM     25  C   UNL     1       3.682   5.639  -2.402  0.00  0.00    +0.173 A 
ATOM     26  C   UNL     1       4.632   6.565  -1.982  0.00  0.00    +0.040 A 
ATOM     27  C   UNL     1       4.327   7.496  -0.995  0.00  0.00    +0.003 A 
ATOM     28  C   UNL     1       3.065   7.551  -0.426  0.00  0.00    +0.003 A 
ATOM     29  C   UNL     1       2.137   6.604  -0.819  0.00  0.00    +0.040 A 
BRANCH  25  30
ATOM     30  O   UNL     1       3.751   5.016  -3.639  0.00  0.00    -0.463 OA
BRANCH  30  31
ATOM     31  C   UNL     1       4.375   5.504  -4.777  0.00  0.00    +0.308 C 
BRANCH  31  32
ATOM     32  C   UNL     1       3.823   6.780  -5.322  0.00  0.00    +0.438 C 
ATOM     33  F   UNL     1       4.088   6.781  -6.688  0.00  0.00    -0.166 F 
ATOM     34  F   UNL     1       2.483   6.959  -5.102  0.00  0.00    -0.166 F 
ATOM     35  F   UNL     1       4.464   7.909  -4.823  0.00  0.00    -0.166 F 
ENDBRANCH  31  32
ENDBRANCH  30  31
ENDBRANCH  25  30
ENDBRANCH  23  24
ENDBRANCH  22  23
ENDBRANCH  21  22
ENDBRANCH  20  21
ENDBRANCH   2  20
TORSDOF 14
ENDMDL
MODEL 9
REMARK VINA RESULT:      -7.4      3.889      9.550
REMARK  Name = 
REMARK  14 active torsions:
REMARK  status: ('A' for Active; 'I' for Inactive)
REMARK    1  A    between atoms: C_2  and  C_3
REMARK    2  A    between atoms: C_2  and  N_20
REMARK    3  A    between atoms: C_3  and  C_4
REMARK    4  A    between atoms: C_8  and  C_9
REMARK    5  A    between atoms: N_13  and  C_14
REMARK    6  A    between atoms: C_14  and  C_15
REMARK    7  A    between atoms: C_15  and  C_16
REMARK    8  A    between atoms: N_20  and  C_21
REMARK    9  A    between atoms: C_21  and  C_22
REMARK   10  A    between atoms: C_22  and  O_23
REMARK   11  A    between atoms: O_23  and  C_24
REMARK   12  A    between atoms: C_29  and  O_30
REMARK   13  A    between atoms: O_30  and  C_31
REMARK   14  A    between atoms: C_31  and  C_32
REMARK                            x       y       z     vdW  Elec       q    Type
REMARK                         _______ _______ _______ _____ _____    ______ ____
ROOT
ATOM      1  C   UNL     1       2.024   7.630  -7.707  0.00  0.00    +0.019 C 
ATOM      2  C   UNL     1       1.528   6.342  -6.810  0.00  0.00    +0.077 C 
ENDROOT
BRANCH   2   3
ATOM      3  C   UNL     1       2.350   6.873  -5.487  0.00  0.00    +0.044 C 
BRANCH   3   4
ATOM      4  C   UNL     1       1.326   6.661  -4.417  0.00  0.00    -0.021 A 
ATOM      5  C   UNL     1       1.831   6.212  -3.203  0.00  0.00    +0.002 A 
ATOM      6  C   UNL     1       0.979   6.031  -2.139  0.00  0.00    +0.069 A 
ATOM      7  C   UNL     1      -0.371   5.848  -2.402  0.00  0.00    +0.048 A 
ATOM      8  N   UNL     1      -1.506   5.933  -1.562  0.00  0.00    -0.307 N 
ATOM      9  C   UNL     1      -2.675   5.501  -2.297  0.00  0.00    +0.095 C 
ATOM     10  C   UNL     1      -2.224   5.376  -3.728  0.00  0.00    +0.049 C 
ATOM     11  C   UNL     1      -0.782   5.740  -3.724  0.00  0.00    -0.007 A 
ATOM     12  C   UNL     1       0.062   6.180  -4.738  0.00  0.00    -0.007 A 
BRANCH   6  13
ATOM     13  C   UNL     1       1.434   5.567  -0.822  0.00  0.00    +0.285 C 
ATOM     14  O   UNL     1       1.954   6.383  -0.032  0.00  0.00    -0.267 OA
ATOM     15  N   UNL     1       1.863   4.201  -0.773  0.00  0.00    -0.084 NA
ENDBRANCH   6  13
BRANCH   8  16
ATOM     16  C   UNL     1      -1.471   6.442  -0.203  0.00  0.00    +0.093 C 
BRANCH  16  17
ATOM     17  C   UNL     1      -1.602   7.945  -0.217  0.00  0.00    +0.057 C 
BRANCH  17  18
ATOM     18  C   UNL     1      -0.657   8.605   0.757  0.00  0.00    +0.184 C 
ATOM     19  O   UNL     1      -1.336   9.238   1.806  0.00  0.00    -0.220 OA
ENDBRANCH  17  18
ENDBRANCH  16  17
ENDBRANCH   8  16
ENDBRANCH   3   4
ENDBRANCH   2   3
BRANCH   2  20
ATOM     20  N   UNL     1       2.701   5.383  -7.228  0.00  0.00    -0.215 NA
BRANCH  20  21
ATOM     21  C   UNL     1       3.889   5.692  -6.574  0.00  0.00    +0.136 C 
BRANCH  21  22
ATOM     22  C   UNL     1       5.130   5.254  -7.343  0.00  0.00    +0.224 C 
BRANCH  22  23
ATOM     23  O   UNL     1       4.721   5.217  -8.707  0.00  0.00    -0.471 OA
BRANCH  23  24
ATOM     24  C   UNL     1       5.469   5.878  -9.688  0.00  0.00    +0.172 A 
ATOM     25  C   UNL     1       4.861   6.498 -10.777  0.00  0.00    +0.173 A 
ATOM     26  C   UNL     1       5.631   7.493 -11.371  0.00  0.00    +0.040 A 
ATOM     27  C   UNL     1       6.986   7.610 -11.082  0.00  0.00    +0.003 A 
ATOM     28  C   UNL     1       7.600   6.763 -10.173  0.00  0.00    +0.003 A 
ATOM     29  C   UNL     1       6.840   5.752  -9.616  0.00  0.00    +0.040 A 
BRANCH  25  30
ATOM     30  O   UNL     1       3.483   6.599 -10.659  0.00  0.00    -0.463 OA
BRANCH  30  31
ATOM     31  C   UNL     1       2.543   6.259 -11.620  0.00  0.00    +0.308 C 
BRANCH  31  32
ATOM     32  C   UNL     1       1.205   5.847 -11.101  0.00  0.00    +0.438 C 
ATOM     33  F   UNL     1       0.532   5.243 -12.158  0.00  0.00    -0.166 F 
ATOM     34  F   UNL     1       1.250   4.999 -10.026  0.00  0.00    -0.166 F 
ATOM     35  F   UNL     1       0.410   6.925 -10.726  0.00  0.00    -0.166 F 
ENDBRANCH  31  32
ENDBRANCH  30  31
ENDBRANCH  25  30
ENDBRANCH  23  24
ENDBRANCH  22  23
ENDBRANCH  21  22
ENDBRANCH  20  21
ENDBRANCH   2  20
TORSDOF 14
ENDMDL
