MODEL 1
REMARK VINA RESULT:      -7.7      0.000      0.000
REMARK  Name = 
REMARK  8 active torsions:
REMARK  status: ('A' for Active; 'I' for Inactive)
REMARK    1  A    between atoms: C_2  and  N_3
REMARK    2  A    between atoms: C_2  and  C_16
REMARK    3  A    between atoms: N_3  and  C_4
REMARK    4  A    between atoms: C_4  and  C_5
REMARK    5  A    between atoms: C_4  and  C_13
REMARK    6  A    between atoms: C_5  and  C_6
REMARK    7  A    between atoms: C_6  and  C_7
REMARK    8  A    between atoms: CA_22  and  C_23
REMARK                            x       y       z     vdW  Elec       q    Type
REMARK                         _______ _______ _______ _____ _____    ______ ____
ROOT
ATOM      1  N   UNL     1       2.071   4.862  -5.828  0.00  0.00    -0.200 NA
ENDROOT
BRANCH   1   3
ATOM      2  CB  UNL     1       1.115   6.932  -6.273  0.00  0.00    +0.029 C 
ATOM      3  CA  UNL     1       1.170   5.871  -5.019  0.00  0.00    +0.149 C 
BRANCH   3   4
ATOM      4  C   UNL     1      -0.221   5.180  -5.455  0.00  0.00    +0.242 C 
ATOM      5  N   UNL     1      -1.379   5.691  -4.765  0.00  0.00    -0.270 N 
ATOM      6  CA  UNL     1      -1.193   6.510  -3.436  0.00  0.00    +0.179 C 
ATOM      7  CB  UNL     1      -1.948   7.872  -3.947  0.00  0.00    +0.033 C 
ATOM      8  CG  UNL     1      -2.472   7.619  -5.253  0.00  0.00    +0.024 C 
ATOM      9  CD  UNL     1      -2.490   6.179  -5.468  0.00  0.00    +0.094 C 
ATOM     10  O   UNL     1      -0.364   4.913  -6.670  0.00  0.00    -0.273 OA
BRANCH   6  11
ATOM     11  C   UNL     1      -2.526   5.931  -2.737  0.00  0.00    +0.382 C 
ATOM     12  OXT UNL     1      -3.409   6.744  -2.144  0.00  0.00    -0.244 OA
ATOM     13  O   UNL     1      -2.446   4.697  -2.468  0.00  0.00    -0.244 OA
ENDBRANCH   6  11
ENDBRANCH   3   4
ENDBRANCH   1   3
BRANCH   1  14
ATOM     14  CA  UNL     1       3.086   5.933  -6.390  0.00  0.00    +0.176 C 
BRANCH  14  15
ATOM     15  C   UNL     1       3.505   5.057  -7.672  0.00  0.00    +0.380 C 
ATOM     16  OXT UNL     1       2.775   3.994  -8.059  0.00  0.00    -0.244 OA
ATOM     17  O   UNL     1       4.737   5.153  -7.922  0.00  0.00    -0.244 OA
ENDBRANCH  14  15
BRANCH  14  18
ATOM     18  C   UNL     1       4.328   5.330  -5.496  0.00  0.00    +0.034 C 
BRANCH  18  19
ATOM     19  C   UNL     1       4.831   6.559  -4.747  0.00  0.00    +0.028 C 
BRANCH  19  20
ATOM     20  C   UNL     1       4.520   6.454  -3.309  0.00  0.00    -0.022 A 
ATOM     21  C   UNL     1       4.583   7.491  -2.417  0.00  0.00    -0.004 A 
ATOM     22  C   UNL     1       4.605   7.236  -1.051  0.00  0.00    -0.000 A 
ATOM     23  C   UNL     1       4.293   5.997  -0.548  0.00  0.00    -0.000 A 
ATOM     24  C   UNL     1       4.018   4.989  -1.449  0.00  0.00    -0.000 A 
ATOM     25  C   UNL     1       4.232   5.201  -2.792  0.00  0.00    -0.004 A 
ENDBRANCH  19  20
ENDBRANCH  18  19
ENDBRANCH  14  18
ENDBRANCH   1  14
TORSDOF 8
ENDMDL
MODEL 2
REMARK VINA RESULT:      -7.3      3.383      6.146
REMARK  Name = 
REMARK  8 active torsions:
REMARK  status: ('A' for Active; 'I' for Inactive)
REMARK    1  A    between atoms: C_2  and  N_3
REMARK    2  A    between atoms: C_2  and  C_16
REMARK    3  A    between atoms: N_3  and  C_4
REMARK    4  A    between atoms: C_4  and  C_5
REMARK    5  A    between atoms: C_4  and  C_13
REMARK    6  A    between atoms: C_5  and  C_6
REMARK    7  A    between atoms: C_6  and  C_7
REMARK    8  A    between atoms: CA_22  and  C_23
REMARK                            x       y       z     vdW  Elec       q    Type
REMARK                         _______ _______ _______ _____ _____    ______ ____
ROOT
ATOM      1  N   UNL     1       2.066   5.456  -6.786  0.00  0.00    -0.200 NA
ENDROOT
BRANCH   1   3
ATOM      2  CB  UNL     1       0.889   4.978  -4.841  0.00  0.00    +0.029 C 
ATOM      3  CA  UNL     1       1.941   6.126  -5.365  0.00  0.00    +0.149 C 
BRANCH   3   4
ATOM      4  C   UNL     1       3.208   5.347  -4.742  0.00  0.00    +0.242 C 
ATOM      5  N   UNL     1       3.586   5.788  -3.423  0.00  0.00    -0.270 N 
ATOM      6  CA  UNL     1       3.066   7.172  -2.888  0.00  0.00    +0.179 C 
ATOM      7  CB  UNL     1       2.314   6.588  -1.554  0.00  0.00    +0.033 C 
ATOM      8  CG  UNL     1       2.576   5.185  -1.481  0.00  0.00    +0.024 C 
ATOM      9  CD  UNL     1       3.700   4.884  -2.356  0.00  0.00    +0.094 C 
ATOM     10  O   UNL     1       3.281   4.116  -4.964  0.00  0.00    -0.273 OA
BRANCH   6  11
ATOM     11  C   UNL     1       4.418   7.515  -2.078  0.00  0.00    +0.382 C 
ATOM     12  OXT UNL     1       4.378   8.075  -0.863  0.00  0.00    -0.244 OA
ATOM     13  O   UNL     1       5.439   7.578  -2.824  0.00  0.00    -0.244 OA
ENDBRANCH   6  11
ENDBRANCH   3   4
ENDBRANCH   1   3
BRANCH   1  14
ATOM     14  CA  UNL     1       3.261   6.348  -7.304  0.00  0.00    +0.176 C 
BRANCH  14  15
ATOM     15  C   UNL     1       2.329   7.310  -8.195  0.00  0.00    +0.380 C 
ATOM     16  OXT UNL     1       2.096   8.585  -7.833  0.00  0.00    -0.244 OA
ATOM     17  O   UNL     1       1.517   6.653  -8.901  0.00  0.00    -0.244 OA
ENDBRANCH  14  15
BRANCH  14  18
ATOM     18  C   UNL     1       3.548   5.347  -8.578  0.00  0.00    +0.034 C 
BRANCH  18  19
ATOM     19  C   UNL     1       5.040   5.057  -8.448  0.00  0.00    +0.028 C 
BRANCH  19  20
ATOM     20  C   UNL     1       5.803   5.799  -9.470  0.00  0.00    -0.022 A 
ATOM     21  C   UNL     1       7.170   5.859  -9.534  0.00  0.00    -0.004 A 
ATOM     22  C   UNL     1       7.790   6.836 -10.304  0.00  0.00    -0.000 A 
ATOM     23  C   UNL     1       7.087   7.578 -11.222  0.00  0.00    -0.000 A 
ATOM     24  C   UNL     1       5.727   7.368 -11.311  0.00  0.00    -0.000 A 
ATOM     25  C   UNL     1       5.099   6.571 -10.380  0.00  0.00    -0.004 A 
ENDBRANCH  19  20
ENDBRANCH  18  19
ENDBRANCH  14  18
ENDBRANCH   1  14
TORSDOF 8
ENDMDL
MODEL 3
REMARK VINA RESULT:      -7.1      2.209      6.507
REMARK  Name = 
REMARK  8 active torsions:
REMARK  status: ('A' for Active; 'I' for Inactive)
REMARK    1  A    between atoms: C_2  and  N_3
REMARK    2  A    between atoms: C_2  and  C_16
REMARK    3  A    between atoms: N_3  and  C_4
REMARK    4  A    between atoms: C_4  and  C_5
REMARK    5  A    between atoms: C_4  and  C_13
REMARK    6  A    between atoms: C_5  and  C_6
REMARK    7  A    between atoms: C_6  and  C_7
REMARK    8  A    between atoms: CA_22  and  C_23
REMARK                            x       y       z     vdW  Elec       q    Type
REMARK                         _______ _______ _______ _____ _____    ______ ____
ROOT
ATOM      1  N   UNL     1      -0.513   5.451  -2.212  0.00  0.00    -0.200 NA
ENDROOT
BRANCH   1   3
ATOM      2  CB  UNL     1       0.273   6.268  -0.184  0.00  0.00    +0.029 C 
ATOM      3  CA  UNL     1       0.665   6.403  -1.775  0.00  0.00    +0.149 C 
BRANCH   3   4
ATOM      4  C   UNL     1       1.757   5.220  -1.676  0.00  0.00    +0.242 C 
ATOM      5  N   UNL     1       3.102   5.627  -1.995  0.00  0.00    -0.270 N 
ATOM      6  CA  UNL     1       3.344   6.973  -2.772  0.00  0.00    +0.179 C 
ATOM      7  CB  UNL     1       4.304   7.673  -1.643  0.00  0.00    +0.033 C 
ATOM      8  CG  UNL     1       4.524   6.719  -0.602  0.00  0.00    +0.024 C 
ATOM      9  CD  UNL     1       4.163   5.401  -1.105  0.00  0.00    +0.094 C 
ATOM     10  O   UNL     1       1.626   4.405  -0.734  0.00  0.00    -0.273 OA
BRANCH   6  11
ATOM     11  C   UNL     1       4.599   6.413  -3.615  0.00  0.00    +0.382 C 
ATOM     12  OXT UNL     1       5.691   7.161  -3.816  0.00  0.00    -0.244 OA
ATOM     13  O   UNL     1       4.299   5.432  -4.357  0.00  0.00    -0.244 OA
ENDBRANCH   6  11
ENDBRANCH   3   4
ENDBRANCH   1   3
BRANCH   1  14
ATOM     14  CA  UNL     1      -1.337   6.535  -3.012  0.00  0.00    +0.176 C 
BRANCH  14  15
ATOM     15  C   UNL     1      -2.758   5.818  -2.778  0.00  0.00    +0.380 C 
ATOM     16  OXT UNL     1      -3.862   6.533  -2.497  0.00  0.00    -0.244 OA
ATOM     17  O   UNL     1      -2.623   4.618  -2.412  0.00  0.00    -0.244 OA
ENDBRANCH  14  15
BRANCH  14  18
ATOM     18  C   UNL     1      -1.110   5.754  -4.442  0.00  0.00    +0.034 C 
BRANCH  18  19
ATOM     19  C   UNL     1      -0.253   6.739  -5.230  0.00  0.00    +0.028 C 
BRANCH  19  20
ATOM     20  C   UNL     1       0.864   6.040  -5.893  0.00  0.00    -0.022 A 
ATOM     21  C   UNL     1       1.778   6.634  -6.721  0.00  0.00    -0.004 A 
ATOM     22  C   UNL     1       2.574   5.858  -7.555  0.00  0.00    -0.000 A 
ATOM     23  C   UNL     1       2.673   4.498  -7.388  0.00  0.00    -0.000 A 
ATOM     24  C   UNL     1       1.904   3.914  -6.402  0.00  0.00    -0.000 A 
ATOM     25  C   UNL     1       0.952   4.664  -5.749  0.00  0.00    -0.004 A 
ENDBRANCH  19  20
ENDBRANCH  18  19
ENDBRANCH  14  18
ENDBRANCH   1  14
TORSDOF 8
ENDMDL
MODEL 4
REMARK VINA RESULT:      -6.9      3.187      7.357
REMARK  Name = 
REMARK  8 active torsions:
REMARK  status: ('A' for Active; 'I' for Inactive)
REMARK    1  A    between atoms: C_2  and  N_3
REMARK    2  A    between atoms: C_2  and  C_16
REMARK    3  A    between atoms: N_3  and  C_4
REMARK    4  A    between atoms: C_4  and  C_5
REMARK    5  A    between atoms: C_4  and  C_13
REMARK    6  A    between atoms: C_5  and  C_6
REMARK    7  A    between atoms: C_6  and  C_7
REMARK    8  A    between atoms: CA_22  and  C_23
REMARK                            x       y       z     vdW  Elec       q    Type
REMARK                         _______ _______ _______ _____ _____    ______ ____
ROOT
ATOM      1  N   UNL     1       1.449   6.624   0.441  0.00  0.00    -0.200 NA
ENDROOT
BRANCH   1   3
ATOM      2  CB  UNL     1       3.669   7.225   0.118  0.00  0.00    +0.029 C 
ATOM      3  CA  UNL     1       2.300   7.129  -0.786  0.00  0.00    +0.149 C 
BRANCH   3   4
ATOM      4  C   UNL     1       2.667   5.648  -1.307  0.00  0.00    +0.242 C 
ATOM      5  N   UNL     1       2.902   5.560  -2.727  0.00  0.00    -0.270 N 
ATOM      6  CA  UNL     1       2.408   6.717  -3.669  0.00  0.00    +0.179 C 
ATOM      7  CB  UNL     1       3.873   7.080  -4.306  0.00  0.00    +0.033 C 
ATOM      8  CG  UNL     1       4.820   6.140  -3.793  0.00  0.00    +0.024 C 
ATOM      9  CD  UNL     1       4.088   5.011  -3.236  0.00  0.00    +0.094 C 
ATOM     10  O   UNL     1       3.408   4.956  -0.572  0.00  0.00    -0.273 OA
BRANCH   6  11
ATOM     11  C   UNL     1       2.025   5.736  -4.891  0.00  0.00    +0.382 C 
ATOM     12  OXT UNL     1       2.387   6.018  -6.149  0.00  0.00    -0.244 OA
ATOM     13  O   UNL     1       1.070   4.953  -4.615  0.00  0.00    -0.244 OA
ENDBRANCH   6  11
ENDBRANCH   3   4
ENDBRANCH   1   3
BRANCH   1  14
ATOM     14  CA  UNL     1       0.322   7.726   0.349  0.00  0.00    +0.176 C 
BRANCH  14  15
ATOM     15  C   UNL     1      -0.108   7.604   1.894  0.00  0.00    +0.380 C 
ATOM     16  OXT UNL     1      -0.862   8.549   2.484  0.00  0.00    -0.244 OA
ATOM     17  O   UNL     1       0.690   6.876   2.546  0.00  0.00    -0.244 OA
ENDBRANCH  14  15
BRANCH  14  18
ATOM     18  C   UNL     1      -0.812   6.629  -0.116  0.00  0.00    +0.034 C 
BRANCH  18  19
ATOM     19  C   UNL     1      -1.896   7.507  -0.733  0.00  0.00    +0.028 C 
BRANCH  19  20
ATOM     20  C   UNL     1      -2.277   7.001  -2.065  0.00  0.00    -0.022 A 
ATOM     21  C   UNL     1      -2.844   5.778  -2.305  0.00  0.00    -0.004 A 
ATOM     22  C   UNL     1      -2.856   5.254  -3.592  0.00  0.00    -0.000 A 
ATOM     23  C   UNL     1      -2.562   6.032  -4.686  0.00  0.00    -0.000 A 
ATOM     24  C   UNL     1      -2.190   7.341  -4.460  0.00  0.00    -0.000 A 
ATOM     25  C   UNL     1      -1.957   7.770  -3.173  0.00  0.00    -0.004 A 
ENDBRANCH  19  20
ENDBRANCH  18  19
ENDBRANCH  14  18
ENDBRANCH   1  14
TORSDOF 8
ENDMDL
MODEL 5
REMARK VINA RESULT:      -6.9      4.127      6.907
REMARK  Name = 
REMARK  8 active torsions:
REMARK  status: ('A' for Active; 'I' for Inactive)
REMARK    1  A    between atoms: C_2  and  N_3
REMARK    2  A    between atoms: C_2  and  C_16
REMARK    3  A    between atoms: N_3  and  C_4
REMARK    4  A    between atoms: C_4  and  C_5
REMARK    5  A    between atoms: C_4  and  C_13
REMARK    6  A    between atoms: C_5  and  C_6
REMARK    7  A    between atoms: C_6  and  C_7
REMARK    8  A    between atoms: CA_22  and  C_23
REMARK                            x       y       z     vdW  Elec       q    Type
REMARK                         _______ _______ _______ _____ _____    ______ ____
ROOT
ATOM      1  N   UNL     1       2.048   5.357 -10.230  0.00  0.00    -0.200 NA
ENDROOT
BRANCH   1   3
ATOM      2  CB  UNL     1       0.275   5.312  -8.729  0.00  0.00    +0.029 C 
ATOM      3  CA  UNL     1       1.706   6.104  -8.884  0.00  0.00    +0.149 C 
BRANCH   3   4
ATOM      4  C   UNL     1       2.475   5.041  -7.946  0.00  0.00    +0.242 C 
ATOM      5  N   UNL     1       2.530   5.410  -6.554  0.00  0.00    -0.270 N 
ATOM      6  CA  UNL     1       2.246   6.897  -6.132  0.00  0.00    +0.179 C 
ATOM      7  CB  UNL     1       0.997   6.572  -5.122  0.00  0.00    +0.033 C 
ATOM      8  CG  UNL     1       0.853   5.152  -5.045  0.00  0.00    +0.024 C 
ATOM      9  CD  UNL     1       2.075   4.541  -5.551  0.00  0.00    +0.094 C 
ATOM     10  O   UNL     1       2.293   3.828  -8.199  0.00  0.00    -0.273 OA
BRANCH   6  11
ATOM     11  C   UNL     1       3.325   6.901  -4.933  0.00  0.00    +0.382 C 
ATOM     12  OXT UNL     1       3.038   7.440  -3.741  0.00  0.00    -0.244 OA
ATOM     13  O   UNL     1       4.513   6.729  -5.336  0.00  0.00    -0.244 OA
ENDBRANCH   6  11
ENDBRANCH   3   4
ENDBRANCH   1   3
BRANCH   1  14
ATOM     14  CA  UNL     1       2.508   6.633 -11.036  0.00  0.00    +0.176 C 
BRANCH  14  15
ATOM     15  C   UNL     1       1.451   6.422 -12.230  0.00  0.00    +0.380 C 
ATOM     16  OXT UNL     1       0.272   7.070 -12.240  0.00  0.00    -0.244 OA
ATOM     17  O   UNL     1       1.613   5.313 -12.808  0.00  0.00    -0.244 OA
ENDBRANCH  14  15
BRANCH  14  18
ATOM     18  C   UNL     1       3.673   5.793 -11.839  0.00  0.00    +0.034 C 
BRANCH  18  19
ATOM     19  C   UNL     1       4.742   5.595 -10.769  0.00  0.00    +0.028 C 
BRANCH  19  20
ATOM     20  C   UNL     1       6.085   5.559 -11.378  0.00  0.00    -0.022 A 
ATOM     21  C   UNL     1       7.259   5.720 -10.692  0.00  0.00    -0.004 A 
ATOM     22  C   UNL     1       8.434   6.008 -11.377  0.00  0.00    -0.000 A 
ATOM     23  C   UNL     1       8.520   5.872 -12.741  0.00  0.00    -0.000 A 
ATOM     24  C   UNL     1       7.379   5.500 -13.422  0.00  0.00    -0.000 A 
ATOM     25  C   UNL     1       6.175   5.451 -12.756  0.00  0.00    -0.004 A 
ENDBRANCH  19  20
ENDBRANCH  18  19
ENDBRANCH  14  18
ENDBRANCH   1  14
TORSDOF 8
ENDMDL
MODEL 6
REMARK VINA RESULT:      -6.7      2.689      6.188
REMARK  Name = 
REMARK  8 active torsions:
REMARK  status: ('A' for Active; 'I' for Inactive)
REMARK    1  A    between atoms: C_2  and  N_3
REMARK    2  A    between atoms: C_2  and  C_16
REMARK    3  A    between atoms: N_3  and  C_4
REMARK    4  A    between atoms: C_4  and  C_5
REMARK    5  A    between atoms: C_4  and  C_13
REMARK    6  A    between atoms: C_5  and  C_6
REMARK    7  A    between atoms: C_6  and  C_7
REMARK    8  A    between atoms: CA_22  and  C_23
REMARK                            x       y       z     vdW  Elec       q    Type
REMARK                         _______ _______ _______ _____ _____    ______ ____
ROOT
ATOM      1  N   UNL     1       2.697   5.555  -4.274  0.00  0.00    -0.200 NA
ENDROOT
BRANCH   1   3
ATOM      2  CB  UNL     1       4.479   5.378  -5.754  0.00  0.00    +0.029 C 
ATOM      3  CA  UNL     1       2.997   6.089  -5.726  0.00  0.00    +0.149 C 
BRANCH   3   4
ATOM      4  C   UNL     1       2.307   4.835  -6.470  0.00  0.00    +0.242 C 
ATOM      5  N   UNL     1       2.224   4.967  -7.903  0.00  0.00    -0.270 N 
ATOM      6  CA  UNL     1       2.399   6.383  -8.564  0.00  0.00    +0.179 C 
ATOM      7  CB  UNL     1       3.667   5.988  -9.523  0.00  0.00    +0.033 C 
ATOM      8  CG  UNL     1       3.914   4.588  -9.371  0.00  0.00    +0.024 C 
ATOM      9  CD  UNL     1       2.741   3.982  -8.757  0.00  0.00    +0.094 C 
ATOM     10  O   UNL     1       2.577   3.695  -6.026  0.00  0.00    -0.273 OA
BRANCH   6  11
ATOM     11  C   UNL     1       1.322   6.115  -9.734  0.00  0.00    +0.382 C 
ATOM     12  OXT UNL     1       1.564   6.478 -10.999  0.00  0.00    -0.244 OA
ATOM     13  O   UNL     1       0.151   5.919  -9.293  0.00  0.00    -0.244 OA
ENDBRANCH   6  11
ENDBRANCH   3   4
ENDBRANCH   1   3
BRANCH   1  14
ATOM     14  CA  UNL     1       2.127   6.909  -3.696  0.00  0.00    +0.176 C 
BRANCH  14  15
ATOM     15  C   UNL     1       3.362   7.155  -2.696  0.00  0.00    +0.380 C 
ATOM     16  OXT UNL     1       4.123   8.262  -2.786  0.00  0.00    -0.244 OA
ATOM     17  O   UNL     1       3.803   6.073  -2.221  0.00  0.00    -0.244 OA
ENDBRANCH  14  15
BRANCH  14  18
ATOM     18  C   UNL     1       1.262   6.131  -2.533  0.00  0.00    +0.034 C 
BRANCH  18  19
ATOM     19  C   UNL     1       0.365   5.203  -3.345  0.00  0.00    +0.028 C 
BRANCH  19  20
ATOM     20  C   UNL     1      -0.660   5.977  -4.071  0.00  0.00    -0.022 A 
ATOM     21  C   UNL     1      -1.374   7.019  -3.542  0.00  0.00    -0.004 A 
ATOM     22  C   UNL     1      -2.533   7.460  -4.169  0.00  0.00    -0.000 A 
ATOM     23  C   UNL     1      -2.850   7.070  -5.447  0.00  0.00    -0.000 A 
ATOM     24  C   UNL     1      -2.009   6.172  -6.071  0.00  0.00    -0.000 A 
ATOM     25  C   UNL     1      -1.002   5.570  -5.351  0.00  0.00    -0.004 A 
ENDBRANCH  19  20
ENDBRANCH  18  19
ENDBRANCH  14  18
ENDBRANCH   1  14
TORSDOF 8
ENDMDL
MODEL 7
REMARK VINA RESULT:      -6.6      4.598      7.994
REMARK  Name = 
REMARK  8 active torsions:
REMARK  status: ('A' for Active; 'I' for Inactive)
REMARK    1  A    between atoms: C_2  and  N_3
REMARK    2  A    between atoms: C_2  and  C_16
REMARK    3  A    between atoms: N_3  and  C_4
REMARK    4  A    between atoms: C_4  and  C_5
REMARK    5  A    between atoms: C_4  and  C_13
REMARK    6  A    between atoms: C_5  and  C_6
REMARK    7  A    between atoms: C_6  and  C_7
REMARK    8  A    between atoms: CA_22  and  C_23
REMARK                            x       y       z     vdW  Elec       q    Type
REMARK                         _______ _______ _______ _____ _____    ______ ____
ROOT
ATOM      1  N   UNL     1       4.622   6.168 -11.787  0.00  0.00    -0.200 NA
ENDROOT
BRANCH   1   3
ATOM      2  CB  UNL     1       5.679   5.773  -9.757  0.00  0.00    +0.029 C 
ATOM      3  CA  UNL     1       4.280   5.331 -10.496  0.00  0.00    +0.149 C 
BRANCH   3   4
ATOM      4  C   UNL     1       3.451   6.518  -9.786  0.00  0.00    +0.242 C 
ATOM      5  N   UNL     1       2.885   6.165  -8.509  0.00  0.00    -0.270 N 
ATOM      6  CA  UNL     1       2.749   4.650  -8.111  0.00  0.00    +0.179 C 
ATOM      7  CB  UNL     1       3.642   4.735  -6.739  0.00  0.00    +0.033 C 
ATOM      8  CG  UNL     1       4.002   6.103  -6.534  0.00  0.00    +0.024 C 
ATOM      9  CD  UNL     1       3.138   6.933  -7.362  0.00  0.00    +0.094 C 
ATOM     10  O   UNL     1       3.916   7.676  -9.894  0.00  0.00    -0.273 OA
BRANCH   6  11
ATOM     11  C   UNL     1       1.358   4.847  -7.318  0.00  0.00    +0.382 C 
ATOM     12  OXT UNL     1       1.117   4.207  -6.168  0.00  0.00    -0.244 OA
ATOM     13  O   UNL     1       0.434   5.309  -8.049  0.00  0.00    -0.244 OA
ENDBRANCH   6  11
ENDBRANCH   3   4
ENDBRANCH   1   3
BRANCH   1  14
ATOM     14  CA  UNL     1       4.577   4.962 -12.804  0.00  0.00    +0.176 C 
BRANCH  14  15
ATOM     15  C   UNL     1       5.955   5.356 -13.535  0.00  0.00    +0.380 C 
ATOM     16  OXT UNL     1       7.117   4.768 -13.195  0.00  0.00    -0.244 OA
ATOM     17  O   UNL     1       5.908   6.515 -14.030  0.00  0.00    -0.244 OA
ENDBRANCH  14  15
BRANCH  14  18
ATOM     18  C   UNL     1       3.686   5.819 -13.890  0.00  0.00    +0.034 C 
BRANCH  18  19
ATOM     19  C   UNL     1       2.390   5.020 -13.967  0.00  0.00    +0.028 C 
BRANCH  19  20
ATOM     20  C   UNL     1       1.321   5.691 -13.203  0.00  0.00    -0.022 A 
ATOM     21  C   UNL     1       0.834   6.942 -13.473  0.00  0.00    -0.004 A 
ATOM     22  C   UNL     1       0.086   7.621 -12.520  0.00  0.00    -0.000 A 
ATOM     23  C   UNL     1      -0.416   6.980 -11.413  0.00  0.00    -0.000 A 
ATOM     24  C   UNL     1      -0.100   5.648 -11.244  0.00  0.00    -0.000 A 
ATOM     25  C   UNL     1       0.832   5.061 -12.070  0.00  0.00    -0.004 A 
ENDBRANCH  19  20
ENDBRANCH  18  19
ENDBRANCH  14  18
ENDBRANCH   1  14
TORSDOF 8
ENDMDL
MODEL 8
REMARK VINA RESULT:      -6.5      2.194      5.475
REMARK  Name = 
REMARK  8 active torsions:
REMARK  status: ('A' for Active; 'I' for Inactive)
REMARK    1  A    between atoms: C_2  and  N_3
REMARK    2  A    between atoms: C_2  and  C_16
REMARK    3  A    between atoms: N_3  and  C_4
REMARK    4  A    between atoms: C_4  and  C_5
REMARK    5  A    between atoms: C_4  and  C_13
REMARK    6  A    between atoms: C_5  and  C_6
REMARK    7  A    between atoms: C_6  and  C_7
REMARK    8  A    between atoms: CA_22  and  C_23
REMARK                            x       y       z     vdW  Elec       q    Type
REMARK                         _______ _______ _______ _____ _____    ______ ____
ROOT
ATOM      1  N   UNL     1       4.162   7.047  -5.786  0.00  0.00    -0.200 NA
ENDROOT
BRANCH   1   3
ATOM      2  CB  UNL     1       5.977   7.382  -4.375  0.00  0.00    +0.029 C 
ATOM      3  CA  UNL     1       4.684   6.372  -4.460  0.00  0.00    +0.149 C 
BRANCH   3   4
ATOM      4  C   UNL     1       3.803   7.307  -3.484  0.00  0.00    +0.242 C 
ATOM      5  N   UNL     1       3.249   6.619  -2.345  0.00  0.00    -0.270 N 
ATOM      6  CA  UNL     1       3.175   5.049  -2.346  0.00  0.00    +0.179 C 
ATOM      7  CB  UNL     1       4.060   4.818  -0.986  0.00  0.00    +0.033 C 
ATOM      8  CG  UNL     1       4.362   6.102  -0.435  0.00  0.00    +0.024 C 
ATOM      9  CD  UNL     1       3.467   7.080  -1.038  0.00  0.00    +0.094 C 
ATOM     10  O   UNL     1       4.220   8.472  -3.288  0.00  0.00    -0.273 OA
BRANCH   6  11
ATOM     11  C   UNL     1       1.775   4.983  -1.548  0.00  0.00    +0.382 C 
ATOM     12  OXT UNL     1       1.617   4.184  -0.485  0.00  0.00    -0.244 OA
ATOM     13  O   UNL     1       0.799   5.417  -2.226  0.00  0.00    -0.244 OA
ENDBRANCH   6  11
ENDBRANCH   3   4
ENDBRANCH   1   3
BRANCH   1  14
ATOM     14  CA  UNL     1       3.306   5.820  -6.290  0.00  0.00    +0.176 C 
BRANCH  14  15
ATOM     15  C   UNL     1       3.944   5.813  -7.766  0.00  0.00    +0.380 C 
ATOM     16  OXT UNL     1       3.745   6.836  -8.617  0.00  0.00    -0.244 OA
ATOM     17  O   UNL     1       4.180   4.641  -8.168  0.00  0.00    -0.244 OA
ENDBRANCH  14  15
BRANCH  14  18
ATOM     18  C   UNL     1       2.066   6.791  -6.765  0.00  0.00    +0.034 C 
BRANCH  18  19
ATOM     19  C   UNL     1       0.941   5.796  -7.031  0.00  0.00    +0.028 C 
BRANCH  19  20
ATOM     20  C   UNL     1      -0.281   6.188  -6.303  0.00  0.00    -0.022 A 
ATOM     21  C   UNL     1      -0.321   7.081  -5.265  0.00  0.00    -0.004 A 
ATOM     22  C   UNL     1      -1.432   7.133  -4.432  0.00  0.00    -0.000 A 
ATOM     23  C   UNL     1      -2.610   6.510  -4.768  0.00  0.00    -0.000 A 
ATOM     24  C   UNL     1      -2.637   5.775  -5.935  0.00  0.00    -0.000 A 
ATOM     25  C   UNL     1      -1.465   5.543  -6.620  0.00  0.00    -0.004 A 
ENDBRANCH  19  20
ENDBRANCH  18  19
ENDBRANCH  14  18
ENDBRANCH   1  14
TORSDOF 8
ENDMDL
MODEL 9
REMARK VINA RESULT:      -6.5      2.629      5.777
REMARK  Name = 
REMARK  8 active torsions:
REMARK  status: ('A' for Active; 'I' for Inactive)
REMARK    1  A    between atoms: C_2  and  N_3
REMARK    2  A    between atoms: C_2  and  C_16
REMARK    3  A    between atoms: N_3  and  C_4
REMARK    4  A    between atoms: C_4  and  C_5
REMARK    5  A    between atoms: C_4  and  C_13
REMARK    6  A    between atoms: C_5  and  C_6
REMARK    7  A    between atoms: C_6  and  C_7
REMARK    8  A    between atoms: CA_22  and  C_23
REMARK                            x       y       z     vdW  Elec       q    Type
REMARK                         _______ _______ _______ _____ _____    ______ ____
ROOT
ATOM      1  N   UNL     1       3.673   6.151  -2.611  0.00  0.00    -0.200 NA
ENDROOT
BRANCH   1   3
ATOM      2  CB  UNL     1       5.230   7.336  -3.863  0.00  0.00    +0.029 C 
ATOM      3  CA  UNL     1       3.621   7.012  -3.931  0.00  0.00    +0.149 C 
BRANCH   3   4
ATOM      4  C   UNL     1       3.846   5.755  -4.916  0.00  0.00    +0.242 C 
ATOM      5  N   UNL     1       2.909   5.683  -6.009  0.00  0.00    -0.270 N 
ATOM      6  CA  UNL     1       1.574   6.509  -5.944  0.00  0.00    +0.179 C 
ATOM      7  CB  UNL     1       1.815   7.366  -7.320  0.00  0.00    +0.033 C 
ATOM      8  CG  UNL     1       3.016   6.888  -7.930  0.00  0.00    +0.024 C 
ATOM      9  CD  UNL     1       3.347   5.598  -7.339  0.00  0.00    +0.094 C 
ATOM     10  O   UNL     1       5.031   5.440  -5.170  0.00  0.00    -0.273 OA
BRANCH   6  11
ATOM     11  C   UNL     1       0.690   5.389  -6.696  0.00  0.00    +0.382 C 
ATOM     12  OXT UNL     1      -0.201   5.722  -7.637  0.00  0.00    -0.244 OA
ATOM     13  O   UNL     1       0.635   4.295  -6.061  0.00  0.00    -0.244 OA
ENDBRANCH   6  11
ENDBRANCH   3   4
ENDBRANCH   1   3
BRANCH   1  14
ATOM     14  CA  UNL     1       2.455   6.849  -1.889  0.00  0.00    +0.176 C 
BRANCH  14  15
ATOM     15  C   UNL     1       3.232   7.058  -0.496  0.00  0.00    +0.380 C 
ATOM     16  OXT UNL     1       3.857   8.216  -0.213  0.00  0.00    -0.244 OA
ATOM     17  O   UNL     1       3.590   5.960   0.010  0.00  0.00    -0.244 OA
ENDBRANCH  14  15
BRANCH  14  18
ATOM     18  C   UNL     1       1.832   5.409  -1.394  0.00  0.00    +0.034 C 
BRANCH  18  19
ATOM     19  C   UNL     1       0.864   5.057  -2.519  0.00  0.00    +0.028 C 
BRANCH  19  20
ATOM     20  C   UNL     1      -0.421   5.757  -2.335  0.00  0.00    -0.022 A 
ATOM     21  C   UNL     1      -1.017   5.994  -1.125  0.00  0.00    -0.004 A 
ATOM     22  C   UNL     1      -2.359   6.348  -1.066  0.00  0.00    -0.000 A 
ATOM     23  C   UNL     1      -3.049   6.735  -2.189  0.00  0.00    -0.000 A 
ATOM     24  C   UNL     1      -2.382   6.700  -3.396  0.00  0.00    -0.000 A 
ATOM     25  C   UNL     1      -1.133   6.125  -3.466  0.00  0.00    -0.004 A 
ENDBRANCH  19  20
ENDBRANCH  18  19
ENDBRANCH  14  18
ENDBRANCH   1  14
TORSDOF 8
ENDMDL
