MODEL 1
REMARK VINA RESULT:      -8.6      0.000      0.000
REMARK  Name = 
REMARK  13 active torsions:
REMARK  status: ('A' for Active; 'I' for Inactive)
REMARK    1  A    between atoms: C_2  and  O_3
REMARK    2  A    between atoms: O_3  and  C_4
REMARK    3  A    between atoms: C_10  and  C_11
REMARK    4  A    between atoms: C_11  and  O_13
REMARK    5  A    between atoms: O_13  and  C_14
REMARK    6  A    between atoms: C_14  and  O_16
REMARK    7  A    between atoms: O_16  and  C_17
REMARK    8  A    between atoms: C_17  and  O_19
REMARK    9  A    between atoms: O_19  and  C_20
REMARK   10  A    between atoms: N_27  and  C_28
REMARK   11  A    between atoms: C_28  and  C_29
REMARK   12  A    between atoms: C_32  and  C_33
REMARK   13  A    between atoms: C_38  and  C_39
REMARK                            x       y       z     vdW  Elec       q    Type
REMARK                         _______ _______ _______ _____ _____    ______ ____
ROOT
ATOM      1  C   UNL     1      -1.477   6.875  -3.855  0.00  0.00    +0.301 A 
ATOM      2  N   UNL     1      -0.424   6.222  -3.306  0.00  0.00    -0.277 N 
ATOM      3  C   UNL     1      -0.474   6.386  -1.958  0.00  0.00    +0.088 A 
ATOM      4  C   UNL     1      -1.400   7.404  -1.755  0.00  0.00    +0.102 A 
ATOM      5  C   UNL     1      -1.632   7.734  -0.429  0.00  0.00    +0.021 A 
ATOM      6  C   UNL     1      -0.716   7.368   0.550  0.00  0.00    +0.002 A 
ATOM      7  C   UNL     1       0.419   6.649   0.192  0.00  0.00    +0.008 A 
ATOM      8  C   UNL     1       0.610   6.188  -1.105  0.00  0.00    +0.093 A 
ATOM      9  N   UNL     1      -2.073   7.640  -2.908  0.00  0.00    -0.194 NA
ENDROOT
BRANCH   8  10
ATOM     10  C   UNL     1       1.954   6.007  -1.676  0.00  0.00    +0.345 C 
ATOM     11  O   UNL     1       2.588   4.936  -1.655  0.00  0.00    -0.245 OA
BRANCH  10  12
ATOM     12  O   UNL     1       2.725   7.090  -2.118  0.00  0.00    -0.410 OA
BRANCH  12  13
ATOM     13  C   UNL     1       4.231   6.617  -2.279  0.00  0.00    +0.348 C 
ATOM     14  C   UNL     1       4.507   7.733  -3.524  0.00  0.00    +0.100 C 
BRANCH  13  15
ATOM     15  O   UNL     1       4.803   7.611  -1.190  0.00  0.00    -0.382 OA
BRANCH  15  16
ATOM     16  C   UNL     1       4.388   7.354   0.098  0.00  0.00    +0.514 C 
ATOM     17  O   UNL     1       4.981   6.300   0.498  0.00  0.00    -0.203 OA
BRANCH  16  18
ATOM     18  O   UNL     1       4.505   8.412   1.009  0.00  0.00    -0.422 OA
BRANCH  18  19
ATOM     19  C   UNL     1       3.404   9.078   1.556  0.00  0.00    +0.172 C 
ATOM     20  C   UNL     1       2.393   9.516   0.513  0.00  0.00    +0.044 C 
ATOM     21  C   UNL     1       1.346  10.363   1.228  0.00  0.00    +0.004 C 
ATOM     22  C   UNL     1       1.613  10.414   2.728  0.00  0.00    +0.000 C 
ATOM     23  C   UNL     1       1.639   9.003   3.278  0.00  0.00    +0.004 C 
ATOM     24  C   UNL     1       2.730   8.206   2.568  0.00  0.00    +0.044 C 
ENDBRANCH  18  19
ENDBRANCH  16  18
ENDBRANCH  15  16
ENDBRANCH  13  15
ENDBRANCH  12  13
ENDBRANCH  10  12
ENDBRANCH   8  10
BRANCH   1  25
ATOM     25  O   UNL     1      -1.572   6.993  -5.246  0.00  0.00    -0.448 OA
BRANCH  25  27
ATOM     26  C   UNL     1      -2.274   5.414  -6.706  0.00  0.00    +0.051 C 
ATOM     27  C   UNL     1      -2.552   6.315  -5.990  0.00  0.00    +0.209 C 
ENDBRANCH  25  27
ENDBRANCH   1  25
BRANCH   2  28
ATOM     28  C   UNL     1       0.086   4.960  -3.845  0.00  0.00    +0.137 C 
BRANCH  28  29
ATOM     29  C   UNL     1       1.024   5.265  -4.974  0.00  0.00    +0.001 A 
ATOM     30  C   UNL     1       1.378   6.574  -5.286  0.00  0.00    -0.002 A 
ATOM     31  C   UNL     1       1.595   6.982  -6.597  0.00  0.00    -0.000 A 
ATOM     32  C   UNL     1       1.553   6.051  -7.624  0.00  0.00    -0.001 A 
ATOM     33  C   UNL     1       1.261   4.741  -7.340  0.00  0.00    -0.000 A 
ATOM     34  C   UNL     1       1.227   4.360  -6.010  0.00  0.00    -0.002 A 
BRANCH  32  35
ATOM     35  C   UNL     1       1.436   6.436  -9.036  0.00  0.00    -0.006 A 
ATOM     36  C   UNL     1       2.383   5.864  -9.877  0.00  0.00    -0.015 A 
ATOM     37  C   UNL     1       2.107   5.693 -11.229  0.00  0.00    -0.007 A 
ATOM     38  C   UNL     1       0.788   5.649 -11.661  0.00  0.00    -0.001 A 
ATOM     39  C   UNL     1      -0.115   6.370 -10.890  0.00  0.00    -0.000 A 
ATOM     40  C   UNL     1       0.149   6.527  -9.553  0.00  0.00    -0.001 A 
BRANCH  36  41
ATOM     41  C   UNL     1       3.765   5.651  -9.440  0.00  0.00    +0.044 A 
ATOM     42  N   UNL     1       4.833   6.408  -9.791  0.00  0.00    -0.289 NA
ATOM     43  N   UNL     1       5.897   5.884  -9.190  0.00  0.00    -0.218 NA
ATOM     44  N   UNL     1       5.523   4.865  -8.418  0.00  0.00    -0.218 NA
ATOM     45  N   UNL     1       4.310   4.566  -8.839  0.00  0.00    -0.289 NA
ENDBRANCH  36  41
ENDBRANCH  32  35
ENDBRANCH  28  29
ENDBRANCH   2  28
TORSDOF 13
ENDMDL
MODEL 2
REMARK VINA RESULT:      -8.3      2.069      3.328
REMARK  Name = 
REMARK  13 active torsions:
REMARK  status: ('A' for Active; 'I' for Inactive)
REMARK    1  A    between atoms: C_2  and  O_3
REMARK    2  A    between atoms: O_3  and  C_4
REMARK    3  A    between atoms: C_10  and  C_11
REMARK    4  A    between atoms: C_11  and  O_13
REMARK    5  A    between atoms: O_13  and  C_14
REMARK    6  A    between atoms: C_14  and  O_16
REMARK    7  A    between atoms: O_16  and  C_17
REMARK    8  A    between atoms: C_17  and  O_19
REMARK    9  A    between atoms: O_19  and  C_20
REMARK   10  A    between atoms: N_27  and  C_28
REMARK   11  A    between atoms: C_28  and  C_29
REMARK   12  A    between atoms: C_32  and  C_33
REMARK   13  A    between atoms: C_38  and  C_39
REMARK                            x       y       z     vdW  Elec       q    Type
REMARK                         _______ _______ _______ _____ _____    ______ ____
ROOT
ATOM      1  C   UNL     1      -0.095   5.633  -5.837  0.00  0.00    +0.301 A 
ATOM      2  N   UNL     1       0.977   5.236  -5.108  0.00  0.00    -0.277 N 
ATOM      3  C   UNL     1       0.587   5.101  -3.813  0.00  0.00    +0.088 A 
ATOM      4  C   UNL     1      -0.654   5.725  -3.745  0.00  0.00    +0.102 A 
ATOM      5  C   UNL     1      -1.263   5.694  -2.501  0.00  0.00    +0.021 A 
ATOM      6  C   UNL     1      -0.507   5.435  -1.364  0.00  0.00    +0.002 A 
ATOM      7  C   UNL     1       0.855   5.185  -1.487  0.00  0.00    +0.008 A 
ATOM      8  C   UNL     1       1.465   5.076  -2.731  0.00  0.00    +0.093 A 
ATOM      9  N   UNL     1      -1.106   5.972  -5.000  0.00  0.00    -0.194 NA
ENDROOT
BRANCH   8  10
ATOM     10  C   UNL     1       2.877   5.433  -2.939  0.00  0.00    +0.345 C 
ATOM     11  O   UNL     1       3.839   4.738  -2.564  0.00  0.00    -0.245 OA
BRANCH  10  12
ATOM     12  O   UNL     1       3.264   6.697  -3.402  0.00  0.00    -0.410 OA
BRANCH  12  13
ATOM     13  C   UNL     1       4.730   7.010  -2.883  0.00  0.00    +0.348 C 
ATOM     14  C   UNL     1       5.069   7.960  -4.244  0.00  0.00    +0.100 C 
BRANCH  13  15
ATOM     15  O   UNL     1       4.308   8.278  -2.038  0.00  0.00    -0.382 OA
BRANCH  15  16
ATOM     16  C   UNL     1       3.913   8.004  -0.747  0.00  0.00    +0.514 C 
ATOM     17  O   UNL     1       4.844   7.342  -0.184  0.00  0.00    -0.203 OA
BRANCH  16  18
ATOM     18  O   UNL     1       3.499   9.101   0.020  0.00  0.00    -0.422 OA
BRANCH  18  19
ATOM     19  C   UNL     1       2.486   9.024   0.983  0.00  0.00    +0.172 C 
ATOM     20  C   UNL     1       1.823  10.361   1.257  0.00  0.00    +0.044 C 
ATOM     21  C   UNL     1       0.870  10.158   2.430  0.00  0.00    +0.004 C 
ATOM     22  C   UNL     1       0.843   8.698   2.868  0.00  0.00    +0.000 C 
ATOM     23  C   UNL     1       0.448   7.832   1.691  0.00  0.00    +0.004 C 
ATOM     24  C   UNL     1       1.452   8.031   0.559  0.00  0.00    +0.044 C 
ENDBRANCH  18  19
ENDBRANCH  16  18
ENDBRANCH  15  16
ENDBRANCH  13  15
ENDBRANCH  12  13
ENDBRANCH  10  12
ENDBRANCH   8  10
BRANCH   1  25
ATOM     25  O   UNL     1       0.074   5.994  -7.178  0.00  0.00    -0.448 OA
BRANCH  25  27
ATOM     26  C   UNL     1      -0.333   5.465  -9.340  0.00  0.00    +0.051 C 
ATOM     27  C   UNL     1      -0.685   5.418  -8.211  0.00  0.00    +0.209 C 
ENDBRANCH  25  27
ENDBRANCH   1  25
BRANCH   2  28
ATOM     28  C   UNL     1       1.995   4.325  -5.638  0.00  0.00    +0.137 C 
BRANCH  28  29
ATOM     29  C   UNL     1       2.422   4.818  -6.987  0.00  0.00    +0.001 A 
ATOM     30  C   UNL     1       2.570   3.948  -8.062  0.00  0.00    -0.002 A 
ATOM     31  C   UNL     1       3.559   4.130  -9.022  0.00  0.00    -0.000 A 
ATOM     32  C   UNL     1       4.367   5.255  -8.973  0.00  0.00    -0.001 A 
ATOM     33  C   UNL     1       4.207   6.161  -7.956  0.00  0.00    -0.000 A 
ATOM     34  C   UNL     1       3.102   6.022  -7.134  0.00  0.00    -0.002 A 
BRANCH  32  35
ATOM     35  C   UNL     1       5.624   5.358  -9.724  0.00  0.00    -0.006 A 
ATOM     36  C   UNL     1       5.522   6.010 -10.948  0.00  0.00    -0.015 A 
ATOM     37  C   UNL     1       6.631   6.639 -11.501  0.00  0.00    -0.007 A 
ATOM     38  C   UNL     1       7.683   7.026 -10.681  0.00  0.00    -0.001 A 
ATOM     39  C   UNL     1       7.865   6.250  -9.543  0.00  0.00    -0.000 A 
ATOM     40  C   UNL     1       6.769   5.640  -8.987  0.00  0.00    -0.001 A 
BRANCH  36  41
ATOM     41  C   UNL     1       4.340   5.853 -11.801  0.00  0.00    +0.044 A 
ATOM     42  N   UNL     1       4.309   5.230 -13.004  0.00  0.00    -0.289 NA
ATOM     43  N   UNL     1       3.059   5.308 -13.451  0.00  0.00    -0.218 NA
ATOM     44  N   UNL     1       2.289   5.897 -12.538  0.00  0.00    -0.218 NA
ATOM     45  N   UNL     1       3.144   6.482 -11.721  0.00  0.00    -0.289 NA
ENDBRANCH  36  41
ENDBRANCH  32  35
ENDBRANCH  28  29
ENDBRANCH   2  28
TORSDOF 13
ENDMDL
MODEL 3
REMARK VINA RESULT:      -8.1      2.031      3.187
REMARK  Name = 
REMARK  13 active torsions:
REMARK  status: ('A' for Active; 'I' for Inactive)
REMARK    1  A    between atoms: C_2  and  O_3
REMARK    2  A    between atoms: O_3  and  C_4
REMARK    3  A    between atoms: C_10  and  C_11
REMARK    4  A    between atoms: C_11  and  O_13
REMARK    5  A    between atoms: O_13  and  C_14
REMARK    6  A    between atoms: C_14  and  O_16
REMARK    7  A    between atoms: O_16  and  C_17
REMARK    8  A    between atoms: C_17  and  O_19
REMARK    9  A    between atoms: O_19  and  C_20
REMARK   10  A    between atoms: N_27  and  C_28
REMARK   11  A    between atoms: C_28  and  C_29
REMARK   12  A    between atoms: C_32  and  C_33
REMARK   13  A    between atoms: C_38  and  C_39
REMARK                            x       y       z     vdW  Elec       q    Type
REMARK                         _______ _______ _______ _____ _____    ______ ____
ROOT
ATOM      1  C   UNL     1      -0.182   5.394  -7.339  0.00  0.00    +0.301 A 
ATOM      2  N   UNL     1       0.772   5.069  -6.432  0.00  0.00    -0.277 N 
ATOM      3  C   UNL     1       0.212   5.096  -5.194  0.00  0.00    +0.088 A 
ATOM      4  C   UNL     1      -1.007   5.743  -5.365  0.00  0.00    +0.102 A 
ATOM      5  C   UNL     1      -1.774   5.870  -4.218  0.00  0.00    +0.021 A 
ATOM      6  C   UNL     1      -1.182   5.737  -2.968  0.00  0.00    +0.002 A 
ATOM      7  C   UNL     1       0.176   5.451  -2.878  0.00  0.00    +0.008 A 
ATOM      8  C   UNL     1       0.939   5.185  -4.009  0.00  0.00    +0.093 A 
ATOM      9  N   UNL     1      -1.282   5.846  -6.689  0.00  0.00    -0.194 NA
ENDROOT
BRANCH   8  10
ATOM     10  C   UNL     1       2.378   5.492  -4.066  0.00  0.00    +0.345 C 
ATOM     11  O   UNL     1       3.273   4.638  -4.196  0.00  0.00    -0.245 OA
BRANCH  10  12
ATOM     12  O   UNL     1       2.877   6.767  -3.772  0.00  0.00    -0.410 OA
BRANCH  12  13
ATOM     13  C   UNL     1       4.097   6.623  -2.767  0.00  0.00    +0.348 C 
ATOM     14  C   UNL     1       4.782   8.078  -3.304  0.00  0.00    +0.100 C 
BRANCH  13  15
ATOM     15  O   UNL     1       3.370   7.348  -1.565  0.00  0.00    -0.382 OA
BRANCH  15  16
ATOM     16  C   UNL     1       2.965   6.511  -0.548  0.00  0.00    +0.514 C 
ATOM     17  O   UNL     1       3.825   5.577  -0.443  0.00  0.00    -0.203 OA
BRANCH  16  18
ATOM     18  O   UNL     1       2.684   7.120   0.681  0.00  0.00    -0.422 OA
BRANCH  18  19
ATOM     19  C   UNL     1       1.523   7.862   0.922  0.00  0.00    +0.172 C 
ATOM     20  C   UNL     1       0.272   7.211   0.361  0.00  0.00    +0.044 C 
ATOM     21  C   UNL     1      -0.873   8.199   0.550  0.00  0.00    +0.004 C 
ATOM     22  C   UNL     1      -0.406   9.444   1.296  0.00  0.00    +0.000 C 
ATOM     23  C   UNL     1       0.184   9.035   2.629  0.00  0.00    +0.004 C 
ATOM     24  C   UNL     1       1.354   8.085   2.391  0.00  0.00    +0.044 C 
ENDBRANCH  18  19
ENDBRANCH  16  18
ENDBRANCH  15  16
ENDBRANCH  13  15
ENDBRANCH  12  13
ENDBRANCH  10  12
ENDBRANCH   8  10
BRANCH   1  25
ATOM     25  O   UNL     1       0.172   5.591  -8.678  0.00  0.00    -0.448 OA
BRANCH  25  27
ATOM     26  C   UNL     1      -0.026   4.919 -10.829  0.00  0.00    +0.051 C 
ATOM     27  C   UNL     1      -0.140   4.658  -9.680  0.00  0.00    +0.209 C 
ENDBRANCH  25  27
ENDBRANCH   1  25
BRANCH   2  28
ATOM     28  C   UNL     1       1.821   4.086  -6.712  0.00  0.00    +0.137 C 
BRANCH  28  29
ATOM     29  C   UNL     1       2.846   4.720  -7.603  0.00  0.00    +0.001 A 
ATOM     30  C   UNL     1       2.920   6.101  -7.751  0.00  0.00    -0.002 A 
ATOM     31  C   UNL     1       3.267   6.691  -8.961  0.00  0.00    -0.000 A 
ATOM     32  C   UNL     1       3.642   5.895 -10.033  0.00  0.00    -0.001 A 
ATOM     33  C   UNL     1       3.634   4.529  -9.899  0.00  0.00    -0.000 A 
ATOM     34  C   UNL     1       3.451   4.006  -8.631  0.00  0.00    -0.002 A 
BRANCH  32  35
ATOM     35  C   UNL     1       3.696   6.397 -11.411  0.00  0.00    -0.006 A 
ATOM     36  C   UNL     1       4.912   6.204 -12.056  0.00  0.00    -0.015 A 
ATOM     37  C   UNL     1       4.965   6.126 -13.443  0.00  0.00    -0.007 A 
ATOM     38  C   UNL     1       3.824   5.779 -14.156  0.00  0.00    -0.001 A 
ATOM     39  C   UNL     1       2.620   6.135 -13.561  0.00  0.00    -0.000 A 
ATOM     40  C   UNL     1       2.563   6.199 -12.192  0.00  0.00    -0.001 A 
BRANCH  36  41
ATOM     41  C   UNL     1       6.185   6.321 -11.340  0.00  0.00    +0.044 A 
ATOM     42  N   UNL     1       6.743   7.475 -10.900  0.00  0.00    -0.289 NA
ATOM     43  N   UNL     1       7.890   7.152 -10.308  0.00  0.00    -0.218 NA
ATOM     44  N   UNL     1       8.036   5.828 -10.299  0.00  0.00    -0.218 NA
ATOM     45  N   UNL     1       7.166   5.399 -11.192  0.00  0.00    -0.289 NA
ENDBRANCH  36  41
ENDBRANCH  32  35
ENDBRANCH  28  29
ENDBRANCH   2  28
TORSDOF 13
ENDMDL
MODEL 4
REMARK VINA RESULT:      -8.1      1.506      2.339
REMARK  Name = 
REMARK  13 active torsions:
REMARK  status: ('A' for Active; 'I' for Inactive)
REMARK    1  A    between atoms: C_2  and  O_3
REMARK    2  A    between atoms: O_3  and  C_4
REMARK    3  A    between atoms: C_10  and  C_11
REMARK    4  A    between atoms: C_11  and  O_13
REMARK    5  A    between atoms: O_13  and  C_14
REMARK    6  A    between atoms: C_14  and  O_16
REMARK    7  A    between atoms: O_16  and  C_17
REMARK    8  A    between atoms: C_17  and  O_19
REMARK    9  A    between atoms: O_19  and  C_20
REMARK   10  A    between atoms: N_27  and  C_28
REMARK   11  A    between atoms: C_28  and  C_29
REMARK   12  A    between atoms: C_32  and  C_33
REMARK   13  A    between atoms: C_38  and  C_39
REMARK                            x       y       z     vdW  Elec       q    Type
REMARK                         _______ _______ _______ _____ _____    ______ ____
ROOT
ATOM      1  C   UNL     1      -1.524   7.057  -3.636  0.00  0.00    +0.301 A 
ATOM      2  N   UNL     1      -0.428   6.367  -3.233  0.00  0.00    -0.277 N 
ATOM      3  C   UNL     1      -0.414   6.344  -1.874  0.00  0.00    +0.088 A 
ATOM      4  C   UNL     1      -1.353   7.295  -1.488  0.00  0.00    +0.102 A 
ATOM      5  C   UNL     1      -1.525   7.433  -0.121  0.00  0.00    +0.021 A 
ATOM      6  C   UNL     1      -0.552   6.965   0.754  0.00  0.00    +0.002 A 
ATOM      7  C   UNL     1       0.581   6.336   0.247  0.00  0.00    +0.008 A 
ATOM      8  C   UNL     1       0.716   6.063  -1.109  0.00  0.00    +0.093 A 
ATOM      9  N   UNL     1      -2.089   7.666  -2.566  0.00  0.00    -0.194 NA
ENDROOT
BRANCH   8  10
ATOM     10  C   UNL     1       2.033   6.004  -1.762  0.00  0.00    +0.345 C 
ATOM     11  O   UNL     1       2.676   4.955  -1.952  0.00  0.00    -0.245 OA
BRANCH  10  12
ATOM     12  O   UNL     1       2.775   7.158  -2.047  0.00  0.00    -0.410 OA
BRANCH  12  13
ATOM     13  C   UNL     1       4.308   6.768  -2.167  0.00  0.00    +0.348 C 
ATOM     14  C   UNL     1       4.590   8.002  -3.294  0.00  0.00    +0.100 C 
BRANCH  13  15
ATOM     15  O   UNL     1       4.776   7.685  -0.967  0.00  0.00    -0.382 OA
BRANCH  15  16
ATOM     16  C   UNL     1       4.237   7.353   0.256  0.00  0.00    +0.514 C 
ATOM     17  O   UNL     1       4.746   6.243   0.621  0.00  0.00    -0.203 OA
BRANCH  16  18
ATOM     18  O   UNL     1       4.318   8.331   1.255  0.00  0.00    -0.422 OA
BRANCH  18  19
ATOM     19  C   UNL     1       3.203   9.023   1.743  0.00  0.00    +0.172 C 
ATOM     20  C   UNL     1       2.203   9.381   0.659  0.00  0.00    +0.044 C 
ATOM     21  C   UNL     1       1.140  10.264   1.303  0.00  0.00    +0.004 C 
ATOM     22  C   UNL     1       1.387  10.418   2.799  0.00  0.00    +0.000 C 
ATOM     23  C   UNL     1       1.418   9.048   3.443  0.00  0.00    +0.004 C 
ATOM     24  C   UNL     1       2.524   8.215   2.802  0.00  0.00    +0.044 C 
ENDBRANCH  18  19
ENDBRANCH  16  18
ENDBRANCH  15  16
ENDBRANCH  13  15
ENDBRANCH  12  13
ENDBRANCH  10  12
ENDBRANCH   8  10
BRANCH   1  25
ATOM     25  O   UNL     1      -1.692   7.361  -4.991  0.00  0.00    -0.448 OA
BRANCH  25  27
ATOM     26  C   UNL     1      -2.902   6.035  -6.368  0.00  0.00    +0.051 C 
ATOM     27  C   UNL     1      -2.853   7.011  -5.699  0.00  0.00    +0.209 C 
ENDBRANCH  25  27
ENDBRANCH   1  25
BRANCH   2  28
ATOM     28  C   UNL     1       0.083   5.207  -3.965  0.00  0.00    +0.137 C 
BRANCH  28  29
ATOM     29  C   UNL     1       0.543   5.659  -5.318  0.00  0.00    +0.001 A 
ATOM     30  C   UNL     1       0.210   4.953  -6.469  0.00  0.00    -0.002 A 
ATOM     31  C   UNL     1       1.086   4.846  -7.543  0.00  0.00    -0.000 A 
ATOM     32  C   UNL     1       2.290   5.533  -7.521  0.00  0.00    -0.001 A 
ATOM     33  C   UNL     1       2.621   6.284  -6.422  0.00  0.00    -0.000 A 
ATOM     34  C   UNL     1       1.645   6.495  -5.464  0.00  0.00    -0.002 A 
BRANCH  32  35
ATOM     35  C   UNL     1       3.396   5.219  -8.433  0.00  0.00    -0.006 A 
ATOM     36  C   UNL     1       3.342   5.868  -9.661  0.00  0.00    -0.015 A 
ATOM     37  C   UNL     1       4.507   6.101 -10.383  0.00  0.00    -0.007 A 
ATOM     38  C   UNL     1       5.731   6.121  -9.726  0.00  0.00    -0.001 A 
ATOM     39  C   UNL     1       5.807   5.329  -8.587  0.00  0.00    -0.000 A 
ATOM     40  C   UNL     1       4.660   5.110  -7.866  0.00  0.00    -0.001 A 
BRANCH  36  41
ATOM     41  C   UNL     1       2.068   6.107 -10.345  0.00  0.00    +0.044 A 
ATOM     42  N   UNL     1       1.647   5.488 -11.475  0.00  0.00    -0.289 NA
ATOM     43  N   UNL     1       0.449   5.987 -11.769  0.00  0.00    -0.218 NA
ATOM     44  N   UNL     1       0.074   6.847 -10.824  0.00  0.00    -0.218 NA
ATOM     45  N   UNL     1       1.188   7.122 -10.173  0.00  0.00    -0.289 NA
ENDBRANCH  36  41
ENDBRANCH  32  35
ENDBRANCH  28  29
ENDBRANCH   2  28
TORSDOF 13
ENDMDL
MODEL 5
REMARK VINA RESULT:      -8.0      2.190      3.609
REMARK  Name = 
REMARK  13 active torsions:
REMARK  status: ('A' for Active; 'I' for Inactive)
REMARK    1  A    between atoms: C_2  and  O_3
REMARK    2  A    between atoms: O_3  and  C_4
REMARK    3  A    between atoms: C_10  and  C_11
REMARK    4  A    between atoms: C_11  and  O_13
REMARK    5  A    between atoms: O_13  and  C_14
REMARK    6  A    between atoms: C_14  and  O_16
REMARK    7  A    between atoms: O_16  and  C_17
REMARK    8  A    between atoms: C_17  and  O_19
REMARK    9  A    between atoms: O_19  and  C_20
REMARK   10  A    between atoms: N_27  and  C_28
REMARK   11  A    between atoms: C_28  and  C_29
REMARK   12  A    between atoms: C_32  and  C_33
REMARK   13  A    between atoms: C_38  and  C_39
REMARK                            x       y       z     vdW  Elec       q    Type
REMARK                         _______ _______ _______ _____ _____    ______ ____
ROOT
ATOM      1  C   UNL     1       0.435   6.536  -4.234  0.00  0.00    +0.301 A 
ATOM      2  N   UNL     1       1.717   6.797  -3.879  0.00  0.00    -0.277 N 
ATOM      3  C   UNL     1       2.091   5.892  -2.936  0.00  0.00    +0.088 A 
ATOM      4  C   UNL     1       0.907   5.292  -2.523  0.00  0.00    +0.102 A 
ATOM      5  C   UNL     1       1.049   4.305  -1.561  0.00  0.00    +0.021 A 
ATOM      6  C   UNL     1       2.211   4.236  -0.802  0.00  0.00    +0.002 A 
ATOM      7  C   UNL     1       3.236   5.148  -1.032  0.00  0.00    +0.008 A 
ATOM      8  C   UNL     1       3.176   6.060  -2.078  0.00  0.00    +0.093 A 
ATOM      9  N   UNL     1      -0.092   5.627  -3.378  0.00  0.00    -0.194 NA
ENDROOT
BRANCH   8  10
ATOM     10  C   UNL     1       3.842   7.371  -2.005  0.00  0.00    +0.345 C 
ATOM     11  O   UNL     1       5.060   7.550  -2.186  0.00  0.00    -0.245 OA
BRANCH  10  12
ATOM     12  O   UNL     1       3.188   8.511  -1.522  0.00  0.00    -0.410 OA
BRANCH  12  13
ATOM     13  C   UNL     1       3.958   9.043  -0.241  0.00  0.00    +0.348 C 
ATOM     14  C   UNL     1       3.660  10.657  -0.663  0.00  0.00    +0.100 C 
BRANCH  13  15
ATOM     15  O   UNL     1       2.692   9.001   0.705  0.00  0.00    -0.382 OA
BRANCH  15  16
ATOM     16  C   UNL     1       2.437   7.773   1.273  0.00  0.00    +0.514 C 
ATOM     17  O   UNL     1       3.524   7.340   1.777  0.00  0.00    -0.203 OA
BRANCH  16  18
ATOM     18  O   UNL     1       1.370   7.718   2.178  0.00  0.00    -0.422 OA
BRANCH  18  19
ATOM     19  C   UNL     1       0.027   7.739   1.784  0.00  0.00    +0.172 C 
ATOM     20  C   UNL     1      -0.574   9.133   1.792  0.00  0.00    +0.044 C 
ATOM     21  C   UNL     1      -2.064   8.981   1.507  0.00  0.00    +0.004 C 
ATOM     22  C   UNL     1      -2.424   7.526   1.233  0.00  0.00    +0.000 C 
ATOM     23  C   UNL     1      -1.595   7.015   0.074  0.00  0.00    +0.004 C 
ATOM     24  C   UNL     1      -0.114   7.142   0.420  0.00  0.00    +0.044 C 
ENDBRANCH  18  19
ENDBRANCH  16  18
ENDBRANCH  15  16
ENDBRANCH  13  15
ENDBRANCH  12  13
ENDBRANCH  10  12
ENDBRANCH   8  10
BRANCH   1  25
ATOM     25  O   UNL     1      -0.244   7.421  -5.079  0.00  0.00    -0.448 OA
BRANCH  25  27
ATOM     26  C   UNL     1      -2.016   8.459  -4.130  0.00  0.00    +0.051 C 
ATOM     27  C   UNL     1      -1.615   7.690  -4.936  0.00  0.00    +0.209 C 
ENDBRANCH  25  27
ENDBRANCH   1  25
BRANCH   2  28
ATOM     28  C   UNL     1       2.717   7.274  -4.837  0.00  0.00    +0.137 C 
BRANCH  28  29
ATOM     29  C   UNL     1       2.446   6.638  -6.167  0.00  0.00    +0.001 A 
ATOM     30  C   UNL     1       2.711   5.292  -6.392  0.00  0.00    -0.002 A 
ATOM     31  C   UNL     1       3.164   4.830  -7.622  0.00  0.00    -0.000 A 
ATOM     32  C   UNL     1       3.272   5.707  -8.690  0.00  0.00    -0.001 A 
ATOM     33  C   UNL     1       2.964   7.032  -8.513  0.00  0.00    -0.000 A 
ATOM     34  C   UNL     1       2.356   7.401  -7.326  0.00  0.00    -0.002 A 
BRANCH  32  35
ATOM     35  C   UNL     1       4.042   5.390  -9.899  0.00  0.00    -0.006 A 
ATOM     36  C   UNL     1       3.428   5.747 -11.093  0.00  0.00    -0.015 A 
ATOM     37  C   UNL     1       4.193   6.006 -12.225  0.00  0.00    -0.007 A 
ATOM     38  C   UNL     1       5.528   6.362 -12.086  0.00  0.00    -0.001 A 
ATOM     39  C   UNL     1       6.165   5.851 -10.962  0.00  0.00    -0.000 A 
ATOM     40  C   UNL     1       5.414   5.609  -9.840  0.00  0.00    -0.001 A 
BRANCH  36  41
ATOM     41  C   UNL     1       1.978   5.628 -11.274  0.00  0.00    +0.044 A 
ATOM     42  N   UNL     1       1.153   6.604 -11.723  0.00  0.00    -0.289 NA
ATOM     43  N   UNL     1      -0.077   6.099 -11.738  0.00  0.00    -0.218 NA
ATOM     44  N   UNL     1      -0.042   4.817 -11.379  0.00  0.00    -0.218 NA
ATOM     45  N   UNL     1       1.140   4.669 -10.814  0.00  0.00    -0.289 NA
ENDBRANCH  36  41
ENDBRANCH  32  35
ENDBRANCH  28  29
ENDBRANCH   2  28
TORSDOF 13
ENDMDL
MODEL 6
REMARK VINA RESULT:      -8.0      4.033     11.128
REMARK  Name = 
REMARK  13 active torsions:
REMARK  status: ('A' for Active; 'I' for Inactive)
REMARK    1  A    between atoms: C_2  and  O_3
REMARK    2  A    between atoms: O_3  and  C_4
REMARK    3  A    between atoms: C_10  and  C_11
REMARK    4  A    between atoms: C_11  and  O_13
REMARK    5  A    between atoms: O_13  and  C_14
REMARK    6  A    between atoms: C_14  and  O_16
REMARK    7  A    between atoms: O_16  and  C_17
REMARK    8  A    between atoms: C_17  and  O_19
REMARK    9  A    between atoms: O_19  and  C_20
REMARK   10  A    between atoms: N_27  and  C_28
REMARK   11  A    between atoms: C_28  and  C_29
REMARK   12  A    between atoms: C_32  and  C_33
REMARK   13  A    between atoms: C_38  and  C_39
REMARK                            x       y       z     vdW  Elec       q    Type
REMARK                         _______ _______ _______ _____ _____    ______ ____
ROOT
ATOM      1  C   UNL     1       4.515   5.460  -7.582  0.00  0.00    +0.301 A 
ATOM      2  N   UNL     1       3.542   5.103  -8.457  0.00  0.00    -0.277 N 
ATOM      3  C   UNL     1       4.070   5.114  -9.710  0.00  0.00    +0.088 A 
ATOM      4  C   UNL     1       5.283   5.782  -9.583  0.00  0.00    +0.102 A 
ATOM      5  C   UNL     1       6.017   5.898 -10.752  0.00  0.00    +0.021 A 
ATOM      6  C   UNL     1       5.396   5.730 -11.984  0.00  0.00    +0.002 A 
ATOM      7  C   UNL     1       4.040   5.422 -12.032  0.00  0.00    +0.008 A 
ATOM      8  C   UNL     1       3.311   5.168 -10.877  0.00  0.00    +0.093 A 
ATOM      9  N   UNL     1       5.591   5.916  -8.269  0.00  0.00    -0.194 NA
ENDROOT
BRANCH   8  10
ATOM     10  C   UNL     1       1.870   5.454 -10.788  0.00  0.00    +0.345 C 
ATOM     11  O   UNL     1       0.998   4.601 -10.542  0.00  0.00    -0.245 OA
BRANCH  10  12
ATOM     12  O   UNL     1       1.332   6.688 -11.177  0.00  0.00    -0.410 OA
BRANCH  12  13
ATOM     13  C   UNL     1       0.154   6.434 -12.209  0.00  0.00    +0.348 C 
ATOM     14  C   UNL     1      -0.684   7.807 -11.674  0.00  0.00    +0.100 C 
BRANCH  13  15
ATOM     15  O   UNL     1       0.830   7.240 -13.388  0.00  0.00    -0.382 OA
BRANCH  15  16
ATOM     16  C   UNL     1       1.430   6.459 -14.351  0.00  0.00    +0.514 C 
ATOM     17  O   UNL     1       0.922   5.292 -14.281  0.00  0.00    -0.203 OA
BRANCH  16  18
ATOM     18  O   UNL     1       1.423   6.968 -15.656  0.00  0.00    -0.422 OA
BRANCH  18  19
ATOM     19  C   UNL     1       1.593   8.325 -15.951  0.00  0.00    +0.172 C 
ATOM     20  C   UNL     1       2.848   8.607 -16.756  0.00  0.00    +0.044 C 
ATOM     21  C   UNL     1       2.987  10.121 -16.857  0.00  0.00    +0.004 C 
ATOM     22  C   UNL     1       1.803  10.825 -16.203  0.00  0.00    +0.000 C 
ATOM     23  C   UNL     1       0.520  10.354 -16.853  0.00  0.00    +0.004 C 
ATOM     24  C   UNL     1       0.399   8.841 -16.689  0.00  0.00    +0.044 C 
ENDBRANCH  18  19
ENDBRANCH  16  18
ENDBRANCH  15  16
ENDBRANCH  13  15
ENDBRANCH  12  13
ENDBRANCH  10  12
ENDBRANCH   8  10
BRANCH   1  25
ATOM     25  O   UNL     1       4.193   5.678  -6.238  0.00  0.00    -0.448 OA
BRANCH  25  27
ATOM     26  C   UNL     1       4.740   4.675  -4.286  0.00  0.00    +0.051 C 
ATOM     27  C   UNL     1       5.076   5.356  -5.194  0.00  0.00    +0.209 C 
ENDBRANCH  25  27
ENDBRANCH   1  25
BRANCH   2  28
ATOM     28  C   UNL     1       2.517   4.110  -8.130  0.00  0.00    +0.137 C 
BRANCH  28  29
ATOM     29  C   UNL     1       1.574   4.707  -7.129  0.00  0.00    +0.001 A 
ATOM     30  C   UNL     1       1.320   6.074  -7.102  0.00  0.00    -0.002 A 
ATOM     31  C   UNL     1       1.099   6.755  -5.910  0.00  0.00    -0.000 A 
ATOM     32  C   UNL     1       1.035   6.051  -4.717  0.00  0.00    -0.001 A 
ATOM     33  C   UNL     1       1.226   4.693  -4.719  0.00  0.00    -0.000 A 
ATOM     34  C   UNL     1       1.268   4.049  -5.943  0.00  0.00    -0.002 A 
BRANCH  32  35
ATOM     35  C   UNL     1       1.141   6.705  -3.407  0.00  0.00    -0.006 A 
ATOM     36  C   UNL     1       0.227   6.263  -2.458  0.00  0.00    -0.015 A 
ATOM     37  C   UNL     1       0.518   6.368  -1.102  0.00  0.00    -0.007 A 
ATOM     38  C   UNL     1       1.840   6.467  -0.688  0.00  0.00    -0.001 A 
ATOM     39  C   UNL     1       2.704   7.067  -1.597  0.00  0.00    -0.000 A 
ATOM     40  C   UNL     1       2.425   6.952  -2.935  0.00  0.00    -0.001 A 
BRANCH  36  41
ATOM     41  C   UNL     1      -1.146   5.907  -2.825  0.00  0.00    +0.044 A 
ATOM     42  N   UNL     1      -2.008   6.689  -3.521  0.00  0.00    -0.289 NA
ATOM     43  N   UNL     1      -3.143   6.006  -3.641  0.00  0.00    -0.218 NA
ATOM     44  N   UNL     1      -3.000   4.795  -3.106  0.00  0.00    -0.218 NA
ATOM     45  N   UNL     1      -1.916   4.894  -2.362  0.00  0.00    -0.289 NA
ENDBRANCH  36  41
ENDBRANCH  32  35
ENDBRANCH  28  29
ENDBRANCH   2  28
TORSDOF 13
ENDMDL
MODEL 7
REMARK VINA RESULT:      -7.8      5.293     11.748
REMARK  Name = 
REMARK  13 active torsions:
REMARK  status: ('A' for Active; 'I' for Inactive)
REMARK    1  A    between atoms: C_2  and  O_3
REMARK    2  A    between atoms: O_3  and  C_4
REMARK    3  A    between atoms: C_10  and  C_11
REMARK    4  A    between atoms: C_11  and  O_13
REMARK    5  A    between atoms: O_13  and  C_14
REMARK    6  A    between atoms: C_14  and  O_16
REMARK    7  A    between atoms: O_16  and  C_17
REMARK    8  A    between atoms: C_17  and  O_19
REMARK    9  A    between atoms: O_19  and  C_20
REMARK   10  A    between atoms: N_27  and  C_28
REMARK   11  A    between atoms: C_28  and  C_29
REMARK   12  A    between atoms: C_32  and  C_33
REMARK   13  A    between atoms: C_38  and  C_39
REMARK                            x       y       z     vdW  Elec       q    Type
REMARK                         _______ _______ _______ _____ _____    ______ ____
ROOT
ATOM      1  C   UNL     1       6.280   6.814 -11.636  0.00  0.00    +0.301 A 
ATOM      2  N   UNL     1       5.129   6.180 -11.969  0.00  0.00    -0.277 N 
ATOM      3  C   UNL     1       5.012   6.188 -13.323  0.00  0.00    +0.088 A 
ATOM      4  C   UNL     1       5.958   7.109 -13.759  0.00  0.00    +0.102 A 
ATOM      5  C   UNL     1       6.033   7.272 -15.133  0.00  0.00    +0.021 A 
ATOM      6  C   UNL     1       4.978   6.864 -15.940  0.00  0.00    +0.002 A 
ATOM      7  C   UNL     1       3.861   6.271 -15.362  0.00  0.00    +0.008 A 
ATOM      8  C   UNL     1       3.816   5.972 -14.005  0.00  0.00    +0.093 A 
ATOM      9  N   UNL     1       6.789   7.425 -12.734  0.00  0.00    -0.194 NA
ENDROOT
BRANCH   8  10
ATOM     10  C   UNL     1       2.550   5.951 -13.255  0.00  0.00    +0.345 C 
ATOM     11  O   UNL     1       1.864   4.931 -13.065  0.00  0.00    -0.245 OA
BRANCH  10  12
ATOM     12  O   UNL     1       1.901   7.128 -12.861  0.00  0.00    -0.410 OA
BRANCH  12  13
ATOM     13  C   UNL     1       0.436   7.137 -13.470  0.00  0.00    +0.348 C 
ATOM     14  C   UNL     1      -0.226   7.697 -12.014  0.00  0.00    +0.100 C 
BRANCH  13  15
ATOM     15  O   UNL     1       0.538   8.604 -14.050  0.00  0.00    -0.382 OA
BRANCH  15  16
ATOM     16  C   UNL     1       0.899   8.676 -15.377  0.00  0.00    +0.514 C 
ATOM     17  O   UNL     1      -0.063   8.212 -16.071  0.00  0.00    -0.203 OA
BRANCH  16  18
ATOM     18  O   UNL     1       1.334   9.926 -15.835  0.00  0.00    -0.422 OA
BRANCH  18  19
ATOM     19  C   UNL     1       0.534  11.074 -15.805  0.00  0.00    +0.172 C 
ATOM     20  C   UNL     1       0.989  12.091 -14.775  0.00  0.00    +0.044 C 
ATOM     21  C   UNL     1      -0.059  13.197 -14.742  0.00  0.00    +0.004 C 
ATOM     22  C   UNL     1      -1.142  12.958 -15.788  0.00  0.00    +0.000 C 
ATOM     23  C   UNL     1      -0.501  12.859 -17.156  0.00  0.00    +0.004 C 
ATOM     24  C   UNL     1       0.506  11.711 -17.158  0.00  0.00    +0.044 C 
ENDBRANCH  18  19
ENDBRANCH  16  18
ENDBRANCH  15  16
ENDBRANCH  13  15
ENDBRANCH  12  13
ENDBRANCH  10  12
ENDBRANCH   8  10
BRANCH   1  25
ATOM     25  O   UNL     1       6.562   7.080 -10.292  0.00  0.00    -0.448 OA
BRANCH  25  27
ATOM     26  C   UNL     1       7.865   5.419  -9.479  0.00  0.00    +0.051 C 
ATOM     27  C   UNL     1       7.709   6.579  -9.654  0.00  0.00    +0.209 C 
ENDBRANCH  25  27
ENDBRANCH   1  25
BRANCH   2  28
ATOM     28  C   UNL     1       4.625   5.024 -11.223  0.00  0.00    +0.137 C 
BRANCH  28  29
ATOM     29  C   UNL     1       4.165   5.489  -9.874  0.00  0.00    +0.001 A 
ATOM     30  C   UNL     1       4.355   4.711  -8.738  0.00  0.00    -0.002 A 
ATOM     31  C   UNL     1       3.426   4.682  -7.705  0.00  0.00    -0.000 A 
ATOM     32  C   UNL     1       2.319   5.516  -7.750  0.00  0.00    -0.001 A 
ATOM     33  C   UNL     1       2.134   6.337  -8.834  0.00  0.00    -0.000 A 
ATOM     34  C   UNL     1       3.171   6.452  -9.742  0.00  0.00    -0.002 A 
BRANCH  32  35
ATOM     35  C   UNL     1       1.142   5.316  -6.895  0.00  0.00    -0.006 A 
ATOM     36  C   UNL     1       1.096   6.127  -5.767  0.00  0.00    -0.015 A 
ATOM     37  C   UNL     1      -0.124   6.442  -5.180  0.00  0.00    -0.007 A 
ATOM     38  C   UNL     1      -1.290   6.358  -5.930  0.00  0.00    -0.001 A 
ATOM     39  C   UNL     1      -1.274   5.418  -6.953  0.00  0.00    -0.000 A 
ATOM     40  C   UNL     1      -0.072   5.117  -7.543  0.00  0.00    -0.001 A 
BRANCH  36  41
ATOM     41  C   UNL     1       2.311   6.471  -5.023  0.00  0.00    +0.044 A 
ATOM     42  N   UNL     1       2.606   6.071  -3.762  0.00  0.00    -0.289 NA
ATOM     43  N   UNL     1       3.788   6.598  -3.453  0.00  0.00    -0.218 NA
ATOM     44  N   UNL     1       4.276   7.257  -4.503  0.00  0.00    -0.218 NA
ATOM     45  N   UNL     1       3.236   7.421  -5.296  0.00  0.00    -0.289 NA
ENDBRANCH  36  41
ENDBRANCH  32  35
ENDBRANCH  28  29
ENDBRANCH   2  28
TORSDOF 13
ENDMDL
MODEL 8
REMARK VINA RESULT:      -7.7      5.247     12.220
REMARK  Name = 
REMARK  13 active torsions:
REMARK  status: ('A' for Active; 'I' for Inactive)
REMARK    1  A    between atoms: C_2  and  O_3
REMARK    2  A    between atoms: O_3  and  C_4
REMARK    3  A    between atoms: C_10  and  C_11
REMARK    4  A    between atoms: C_11  and  O_13
REMARK    5  A    between atoms: O_13  and  C_14
REMARK    6  A    between atoms: C_14  and  O_16
REMARK    7  A    between atoms: O_16  and  C_17
REMARK    8  A    between atoms: C_17  and  O_19
REMARK    9  A    between atoms: O_19  and  C_20
REMARK   10  A    between atoms: N_27  and  C_28
REMARK   11  A    between atoms: C_28  and  C_29
REMARK   12  A    between atoms: C_32  and  C_33
REMARK   13  A    between atoms: C_38  and  C_39
REMARK                            x       y       z     vdW  Elec       q    Type
REMARK                         _______ _______ _______ _____ _____    ______ ____
ROOT
ATOM      1  C   UNL     1       6.240   6.755 -11.380  0.00  0.00    +0.301 A 
ATOM      2  N   UNL     1       5.191   6.075 -11.906  0.00  0.00    -0.277 N 
ATOM      3  C   UNL     1       5.231   6.207 -13.258  0.00  0.00    +0.088 A 
ATOM      4  C   UNL     1       6.142   7.231 -13.492  0.00  0.00    +0.102 A 
ATOM      5  C   UNL     1       6.361   7.532 -14.827  0.00  0.00    +0.021 A 
ATOM      6  C   UNL     1       5.444   7.131 -15.790  0.00  0.00    +0.002 A 
ATOM      7  C   UNL     1       4.321   6.405 -15.408  0.00  0.00    +0.008 A 
ATOM      8  C   UNL     1       4.144   5.974 -14.098  0.00  0.00    +0.093 A 
ATOM      9  N   UNL     1       6.820   7.504 -12.349  0.00  0.00    -0.194 NA
ENDROOT
BRANCH   8  10
ATOM     10  C   UNL     1       2.806   5.790 -13.514  0.00  0.00    +0.345 C 
ATOM     11  O   UNL     1       2.181   4.714 -13.517  0.00  0.00    -0.245 OA
BRANCH  10  12
ATOM     12  O   UNL     1       2.030   6.871 -13.078  0.00  0.00    -0.410 OA
BRANCH  12  13
ATOM     13  C   UNL     1       0.500   6.547 -13.344  0.00  0.00    +0.348 C 
ATOM     14  C   UNL     1       0.017   7.460 -12.000  0.00  0.00    +0.100 C 
BRANCH  13  15
ATOM     15  O   UNL     1       0.270   7.768 -14.322  0.00  0.00    -0.382 OA
BRANCH  15  16
ATOM     16  C   UNL     1       0.607   7.525 -15.635  0.00  0.00    +0.514 C 
ATOM     17  O   UNL     1       0.264   6.331 -15.914  0.00  0.00    -0.203 OA
BRANCH  16  18
ATOM     18  O   UNL     1       0.137   8.450 -16.576  0.00  0.00    -0.422 OA
BRANCH  18  19
ATOM     19  C   UNL     1       0.974   9.332 -17.269  0.00  0.00    +0.172 C 
ATOM     20  C   UNL     1       0.421  10.743 -17.342  0.00  0.00    +0.044 C 
ATOM     21  C   UNL     1       1.345  11.541 -18.255  0.00  0.00    +0.004 C 
ATOM     22  C   UNL     1       2.530  10.697 -18.710  0.00  0.00    +0.000 C 
ATOM     23  C   UNL     1       3.275  10.188 -17.494  0.00  0.00    +0.004 C 
ATOM     24  C   UNL     1       2.327   9.358 -16.633  0.00  0.00    +0.044 C 
ENDBRANCH  18  19
ENDBRANCH  16  18
ENDBRANCH  15  16
ENDBRANCH  13  15
ENDBRANCH  12  13
ENDBRANCH  10  12
ENDBRANCH   8  10
BRANCH   1  25
ATOM     25  O   UNL     1       6.342   6.908  -9.993  0.00  0.00    -0.448 OA
BRANCH  25  27
ATOM     26  C   UNL     1       7.831   5.242  -9.638  0.00  0.00    +0.051 C 
ATOM     27  C   UNL     1       7.302   6.220  -9.232  0.00  0.00    +0.209 C 
ENDBRANCH  25  27
ENDBRANCH   1  25
BRANCH   2  28
ATOM     28  C   UNL     1       4.702   4.820 -11.332  0.00  0.00    +0.137 C 
BRANCH  28  29
ATOM     29  C   UNL     1       3.786   5.140 -10.190  0.00  0.00    +0.001 A 
ATOM     30  C   UNL     1       3.264   6.418 -10.018  0.00  0.00    -0.002 A 
ATOM     31  C   UNL     1       3.056   6.961  -8.756  0.00  0.00    -0.000 A 
ATOM     32  C   UNL     1       3.283   6.189  -7.627  0.00  0.00    -0.001 A 
ATOM     33  C   UNL     1       3.745   4.904  -7.767  0.00  0.00    -0.000 A 
ATOM     34  C   UNL     1       3.767   4.360  -9.039  0.00  0.00    -0.002 A 
BRANCH  32  35
ATOM     35  C   UNL     1       3.413   6.768  -6.285  0.00  0.00    -0.006 A 
ATOM     36  C   UNL     1       2.488   6.305  -5.357  0.00  0.00    -0.015 A 
ATOM     37  C   UNL     1       2.785   6.328  -3.999  0.00  0.00    -0.007 A 
ATOM     38  C   UNL     1       4.111   6.364  -3.586  0.00  0.00    -0.001 A 
ATOM     39  C   UNL     1       4.991   6.984  -4.464  0.00  0.00    -0.000 A 
ATOM     40  C   UNL     1       4.705   6.949  -5.806  0.00  0.00    -0.001 A 
BRANCH  36  41
ATOM     41  C   UNL     1       1.103   6.012  -5.737  0.00  0.00    +0.044 A 
ATOM     42  N   UNL     1       0.053   6.861  -5.620  0.00  0.00    -0.289 NA
ATOM     43  N   UNL     1      -1.021   6.217  -6.069  0.00  0.00    -0.218 NA
ATOM     44  N   UNL     1      -0.668   5.018  -6.529  0.00  0.00    -0.218 NA
ATOM     45  N   UNL     1       0.535   4.818  -6.026  0.00  0.00    -0.289 NA
ENDBRANCH  36  41
ENDBRANCH  32  35
ENDBRANCH  28  29
ENDBRANCH   2  28
TORSDOF 13
ENDMDL
MODEL 9
REMARK VINA RESULT:      -7.7      2.892      7.770
REMARK  Name = 
REMARK  13 active torsions:
REMARK  status: ('A' for Active; 'I' for Inactive)
REMARK    1  A    between atoms: C_2  and  O_3
REMARK    2  A    between atoms: O_3  and  C_4
REMARK    3  A    between atoms: C_10  and  C_11
REMARK    4  A    between atoms: C_11  and  O_13
REMARK    5  A    between atoms: O_13  and  C_14
REMARK    6  A    between atoms: C_14  and  O_16
REMARK    7  A    between atoms: O_16  and  C_17
REMARK    8  A    between atoms: C_17  and  O_19
REMARK    9  A    between atoms: O_19  and  C_20
REMARK   10  A    between atoms: N_27  and  C_28
REMARK   11  A    between atoms: C_28  and  C_29
REMARK   12  A    between atoms: C_32  and  C_33
REMARK   13  A    between atoms: C_38  and  C_39
REMARK                            x       y       z     vdW  Elec       q    Type
REMARK                         _______ _______ _______ _____ _____    ______ ____
ROOT
ATOM      1  C   UNL     1       4.159   5.202  -8.742  0.00  0.00    +0.301 A 
ATOM      2  N   UNL     1       3.056   5.146  -7.955  0.00  0.00    -0.277 N 
ATOM      3  C   UNL     1       1.962   5.078  -8.758  0.00  0.00    +0.088 A 
ATOM      4  C   UNL     1       2.426   5.407 -10.027  0.00  0.00    +0.102 A 
ATOM      5  C   UNL     1       1.469   5.383 -11.029  0.00  0.00    +0.021 A 
ATOM      6  C   UNL     1       0.119   5.437 -10.704  0.00  0.00    +0.002 A 
ATOM      7  C   UNL     1      -0.263   5.489  -9.368  0.00  0.00    +0.008 A 
ATOM      8  C   UNL     1       0.667   5.378  -8.340  0.00  0.00    +0.093 A 
ATOM      9  N   UNL     1       3.782   5.397 -10.029  0.00  0.00    -0.194 NA
ENDROOT
BRANCH   8  10
ATOM     10  C   UNL     1       0.460   6.020  -7.032  0.00  0.00    +0.345 C 
ATOM     11  O   UNL     1       0.851   7.165  -6.743  0.00  0.00    -0.245 OA
BRANCH  10  12
ATOM     12  O   UNL     1      -0.021   5.311  -5.924  0.00  0.00    -0.410 OA
BRANCH  12  13
ATOM     13  C   UNL     1      -1.164   6.161  -5.226  0.00  0.00    +0.348 C 
ATOM     14  C   UNL     1      -2.323   5.618  -6.336  0.00  0.00    +0.100 C 
BRANCH  13  15
ATOM     15  O   UNL     1      -1.556   5.036  -4.187  0.00  0.00    -0.382 OA
BRANCH  15  16
ATOM     16  C   UNL     1      -2.214   5.491  -3.066  0.00  0.00    +0.514 C 
ATOM     17  O   UNL     1      -3.450   5.209  -3.196  0.00  0.00    -0.203 OA
BRANCH  16  18
ATOM     18  O   UNL     1      -1.699   5.075  -1.832  0.00  0.00    -0.422 OA
BRANCH  18  19
ATOM     19  C   UNL     1      -1.329   5.963  -0.816  0.00  0.00    +0.172 C 
ATOM     20  C   UNL     1       0.099   6.458  -0.948  0.00  0.00    +0.044 C 
ATOM     21  C   UNL     1       0.409   7.274   0.302  0.00  0.00    +0.004 C 
ATOM     22  C   UNL     1      -0.816   7.385   1.202  0.00  0.00    +0.000 C 
ATOM     23  C   UNL     1      -1.955   8.003   0.420  0.00  0.00    +0.004 C 
ATOM     24  C   UNL     1      -2.262   7.131  -0.795  0.00  0.00    +0.044 C 
ENDBRANCH  18  19
ENDBRANCH  16  18
ENDBRANCH  15  16
ENDBRANCH  13  15
ENDBRANCH  12  13
ENDBRANCH  10  12
ENDBRANCH   8  10
BRANCH   1  25
ATOM     25  O   UNL     1       5.413   5.434  -8.165  0.00  0.00    -0.448 OA
BRANCH  25  27
ATOM     26  C   UNL     1       7.076   6.127  -9.531  0.00  0.00    +0.051 C 
ATOM     27  C   UNL     1       6.610   5.258  -8.878  0.00  0.00    +0.209 C 
ENDBRANCH  25  27
ENDBRANCH   1  25
BRANCH   2  28
ATOM     28  C   UNL     1       3.040   4.435  -6.675  0.00  0.00    +0.137 C 
BRANCH  28  29
ATOM     29  C   UNL     1       3.740   5.276  -5.651  0.00  0.00    +0.001 A 
ATOM     30  C   UNL     1       4.271   4.715  -4.495  0.00  0.00    -0.002 A 
ATOM     31  C   UNL     1       4.263   5.393  -3.281  0.00  0.00    -0.000 A 
ATOM     32  C   UNL     1       3.804   6.700  -3.225  0.00  0.00    -0.001 A 
ATOM     33  C   UNL     1       3.326   7.300  -4.363  0.00  0.00    -0.000 A 
ATOM     34  C   UNL     1       3.518   6.646  -5.567  0.00  0.00    -0.002 A 
BRANCH  32  35
ATOM     35  C   UNL     1       3.451   7.361  -1.962  0.00  0.00    -0.006 A 
ATOM     36  C   UNL     1       3.857   6.685  -0.817  0.00  0.00    -0.015 A 
ATOM     37  C   UNL     1       4.079   7.382   0.365  0.00  0.00    -0.007 A 
ATOM     38  C   UNL     1       4.351   8.744   0.321  0.00  0.00    -0.001 A 
ATOM     39  C   UNL     1       3.792   9.427  -0.752  0.00  0.00    -0.000 A 
ATOM     40  C   UNL     1       3.585   8.744  -1.924  0.00  0.00    -0.001 A 
BRANCH  36  41
ATOM     41  C   UNL     1       3.828   5.222  -0.741  0.00  0.00    +0.044 A 
ATOM     42  N   UNL     1       2.713   4.456  -0.656  0.00  0.00    -0.289 NA
ATOM     43  N   UNL     1       3.115   3.189  -0.604  0.00  0.00    -0.218 NA
ATOM     44  N   UNL     1       4.440   3.130  -0.724  0.00  0.00    -0.218 NA
ATOM     45  N   UNL     1       4.843   4.363  -0.486  0.00  0.00    -0.289 NA
ENDBRANCH  36  41
ENDBRANCH  32  35
ENDBRANCH  28  29
ENDBRANCH   2  28
TORSDOF 13
ENDMDL
