MODEL 1
REMARK VINA RESULT:      -8.2      0.000      0.000
REMARK  Name = 
REMARK  4 active torsions:
REMARK  status: ('A' for Active; 'I' for Inactive)
REMARK    1  A    between atoms: C_3  and  C_4
REMARK    2  A    between atoms: C_4  and  C_5
REMARK    3  A    between atoms: C_11  and  C_12
REMARK    4  A    between atoms: C_12  and  C_14
REMARK                            x       y       z     vdW  Elec       q    Type
REMARK                         _______ _______ _______ _____ _____    ______ ____
ROOT
ATOM      1  N   UNL     1       0.574   5.341  -3.660  0.00  0.00    -0.128 NA
ATOM      2  C   UNL     1      -0.048   5.597  -4.925  0.00  0.00    +0.089 A 
ATOM      3  C   UNL     1       0.589   5.180  -6.086  0.00  0.00    +0.055 A 
ATOM      4  C   UNL     1      -0.044   5.464  -7.275  0.00  0.00    +0.005 A 
ATOM      5  C   UNL     1      -1.433   5.489  -7.237  0.00  0.00    -0.000 A 
ATOM      6  C   UNL     1      -2.132   5.645  -6.047  0.00  0.00    -0.002 A 
ATOM      7  C   UNL     1      -1.416   5.837  -4.891  0.00  0.00    +0.006 A 
ENDROOT
BRANCH   3   8
ATOM      8  C   UNL     1       1.865   4.512  -5.976  0.00  0.00    +0.197 C 
ATOM      9  O   UNL     1       1.949   3.273  -6.193  0.00  0.00    -0.287 OA
BRANCH   8  10
ATOM     10  C   UNL     1       3.084   5.174  -5.531  0.00  0.00    +0.039 A 
ATOM     11  C   UNL     1       3.327   6.526  -5.748  0.00  0.00    +0.004 A 
ATOM     12  C   UNL     1       4.043   7.260  -4.810  0.00  0.00    +0.007 A 
ATOM     13  C   UNL     1       4.422   6.694  -3.598  0.00  0.00    +0.035 A 
ATOM     14 BR   UNL     1       4.391   7.708  -1.977  0.00  0.00    -0.049 Br
ATOM     15  C   UNL     1       4.539   5.309  -3.595  0.00  0.00    +0.007 A 
ATOM     16  C   UNL     1       3.939   4.575  -4.612  0.00  0.00    +0.004 A 
ENDBRANCH   8  10
ENDBRANCH   3   8
BRANCH   7  17
ATOM     17  C   UNL     1      -1.907   6.667  -3.752  0.00  0.00    +0.142 C 
BRANCH  17  18
ATOM     18  C   UNL     1      -2.982   5.877  -3.080  0.00  0.00    +0.369 C 
ATOM     19  O   UNL     1      -2.733   4.596  -2.603  0.00  0.00    -0.245 OA
ATOM     20  O   UNL     1      -3.907   6.557  -2.543  0.00  0.00    -0.245 OA
ENDBRANCH  17  18
ENDBRANCH   7  17
TORSDOF 4
ENDMDL
MODEL 2
REMARK VINA RESULT:      -7.8      4.732      5.537
REMARK  Name = 
REMARK  4 active torsions:
REMARK  status: ('A' for Active; 'I' for Inactive)
REMARK    1  A    between atoms: C_3  and  C_4
REMARK    2  A    between atoms: C_4  and  C_5
REMARK    3  A    between atoms: C_11  and  C_12
REMARK    4  A    between atoms: C_12  and  C_14
REMARK                            x       y       z     vdW  Elec       q    Type
REMARK                         _______ _______ _______ _____ _____    ______ ____
ROOT
ATOM      1  N   UNL     1       2.037   7.685  -8.300  0.00  0.00    -0.128 NA
ATOM      2  C   UNL     1       1.981   6.272  -8.072  0.00  0.00    +0.089 A 
ATOM      3  C   UNL     1       2.659   5.423  -8.935  0.00  0.00    +0.055 A 
ATOM      4  C   UNL     1       2.562   4.073  -8.681  0.00  0.00    +0.005 A 
ATOM      5  C   UNL     1       2.425   3.712  -7.345  0.00  0.00    -0.000 A 
ATOM      6  C   UNL     1       1.991   4.614  -6.382  0.00  0.00    -0.002 A 
ATOM      7  C   UNL     1       1.636   5.878  -6.785  0.00  0.00    +0.006 A 
ENDROOT
BRANCH   3   8
ATOM      8  C   UNL     1       3.388   5.996 -10.043  0.00  0.00    +0.197 C 
ATOM      9  O   UNL     1       2.866   6.034 -11.189  0.00  0.00    -0.287 OA
BRANCH   8  10
ATOM     10  C   UNL     1       4.764   6.465  -9.945  0.00  0.00    +0.039 A 
ATOM     11  C   UNL     1       5.760   5.742  -9.298  0.00  0.00    +0.004 A 
ATOM     12  C   UNL     1       7.068   5.792  -9.765  0.00  0.00    +0.007 A 
ATOM     13  C   UNL     1       7.379   6.462 -10.943  0.00  0.00    +0.035 A 
ATOM     14 BR   UNL     1       8.686   5.774 -12.159  0.00  0.00    -0.049 Br
ATOM     15  C   UNL     1       6.498   7.473 -11.308  0.00  0.00    +0.007 A 
ATOM     16  C   UNL     1       5.232   7.508 -10.737  0.00  0.00    +0.004 A 
ENDBRANCH   8  10
ENDBRANCH   3   8
BRANCH   7  17
ATOM     17  C   UNL     1       0.570   6.681  -6.118  0.00  0.00    +0.142 C 
BRANCH  17  18
ATOM     18  C   UNL     1      -0.584   5.759  -5.899  0.00  0.00    +0.369 C 
ATOM     19  O   UNL     1      -1.093   5.542  -4.624  0.00  0.00    -0.245 OA
ATOM     20  O   UNL     1      -1.352   5.594  -6.895  0.00  0.00    -0.245 OA
ENDBRANCH  17  18
ENDBRANCH   7  17
TORSDOF 4
ENDMDL
MODEL 3
REMARK VINA RESULT:      -7.6      2.659      3.106
REMARK  Name = 
REMARK  4 active torsions:
REMARK  status: ('A' for Active; 'I' for Inactive)
REMARK    1  A    between atoms: C_3  and  C_4
REMARK    2  A    between atoms: C_4  and  C_5
REMARK    3  A    between atoms: C_11  and  C_12
REMARK    4  A    between atoms: C_12  and  C_14
REMARK                            x       y       z     vdW  Elec       q    Type
REMARK                         _______ _______ _______ _____ _____    ______ ____
ROOT
ATOM      1  N   UNL     1       0.640   6.001  -3.758  0.00  0.00    -0.128 NA
ATOM      2  C   UNL     1      -0.414   6.006  -4.728  0.00  0.00    +0.089 A 
ATOM      3  C   UNL     1      -0.180   5.456  -5.981  0.00  0.00    +0.055 A 
ATOM      4  C   UNL     1      -1.221   5.499  -6.880  0.00  0.00    +0.005 A 
ATOM      5  C   UNL     1      -2.499   5.428  -6.339  0.00  0.00    -0.000 A 
ATOM      6  C   UNL     1      -2.748   5.722  -5.004  0.00  0.00    -0.002 A 
ATOM      7  C   UNL     1      -1.701   6.148  -4.224  0.00  0.00    +0.006 A 
ENDROOT
BRANCH   3   8
ATOM      8  C   UNL     1       1.127   4.909  -6.266  0.00  0.00    +0.197 C 
ATOM      9  O   UNL     1       1.380   3.705  -5.994  0.00  0.00    -0.287 OA
BRANCH   8  10
ATOM     10  C   UNL     1       2.236   5.702  -6.781  0.00  0.00    +0.039 A 
ATOM     11  C   UNL     1       3.499   5.166  -7.008  0.00  0.00    +0.004 A 
ATOM     12  C   UNL     1       4.274   5.642  -8.060  0.00  0.00    +0.007 A 
ATOM     13  C   UNL     1       3.760   6.565  -8.965  0.00  0.00    +0.035 A 
ATOM     14 BR   UNL     1       4.186   6.470 -10.827  0.00  0.00    -0.049 Br
ATOM     15  C   UNL     1       2.720   7.354  -8.489  0.00  0.00    +0.007 A 
ATOM     16  C   UNL     1       2.029   6.953  -7.352  0.00  0.00    +0.004 A 
ENDBRANCH   8  10
ENDBRANCH   3   8
BRANCH   7  17
ATOM     17  C   UNL     1      -1.860   7.110  -3.095  0.00  0.00    +0.142 C 
BRANCH  17  18
ATOM     18  C   UNL     1      -2.458   6.344  -1.961  0.00  0.00    +0.369 C 
ATOM     19  O   UNL     1      -2.379   4.957  -1.916  0.00  0.00    -0.245 OA
ATOM     20  O   UNL     1      -2.579   6.981  -0.872  0.00  0.00    -0.245 OA
ENDBRANCH  17  18
ENDBRANCH   7  17
TORSDOF 4
ENDMDL
MODEL 4
REMARK VINA RESULT:      -7.5      3.844      6.974
REMARK  Name = 
REMARK  4 active torsions:
REMARK  status: ('A' for Active; 'I' for Inactive)
REMARK    1  A    between atoms: C_3  and  C_4
REMARK    2  A    between atoms: C_4  and  C_5
REMARK    3  A    between atoms: C_11  and  C_12
REMARK    4  A    between atoms: C_12  and  C_14
REMARK                            x       y       z     vdW  Elec       q    Type
REMARK                         _______ _______ _______ _____ _____    ______ ____
ROOT
ATOM      1  N   UNL     1       1.696   4.546  -9.234  0.00  0.00    -0.128 NA
ATOM      2  C   UNL     1       2.756   5.125  -8.463  0.00  0.00    +0.089 A 
ATOM      3  C   UNL     1       2.590   5.269  -7.093  0.00  0.00    +0.055 A 
ATOM      4  C   UNL     1       3.631   5.846  -6.400  0.00  0.00    +0.005 A 
ATOM      5  C   UNL     1       4.904   5.613  -6.908  0.00  0.00    -0.000 A 
ATOM      6  C   UNL     1       5.109   5.209  -8.221  0.00  0.00    -0.002 A 
ATOM      7  C   UNL     1       4.016   5.095  -9.046  0.00  0.00    +0.006 A 
ENDROOT
BRANCH   3   8
ATOM      8  C   UNL     1       1.347   4.840  -6.494  0.00  0.00    +0.197 C 
ATOM      9  O   UNL     1       1.207   3.644  -6.121  0.00  0.00    -0.287 OA
BRANCH   8  10
ATOM     10  C   UNL     1       0.176   5.697  -6.368  0.00  0.00    +0.039 A 
ATOM     11  C   UNL     1      -1.105   5.270  -6.699  0.00  0.00    +0.004 A 
ATOM     12  C   UNL     1      -2.199   5.743  -5.984  0.00  0.00    +0.007 A 
ATOM     13  C   UNL     1      -2.026   6.549  -4.864  0.00  0.00    +0.035 A 
ATOM     14 BR   UNL     1      -3.151   6.368  -3.328  0.00  0.00    -0.049 Br
ATOM     15  C   UNL     1      -0.836   7.267  -4.822  0.00  0.00    +0.007 A 
ATOM     16  C   UNL     1       0.219   6.880  -5.640  0.00  0.00    +0.004 A 
ENDBRANCH   8  10
ENDBRANCH   3   8
BRANCH   7  17
ATOM     17  C   UNL     1       4.067   5.363 -10.513  0.00  0.00    +0.142 C 
BRANCH  17  18
ATOM     18  C   UNL     1       5.266   6.220 -10.749  0.00  0.00    +0.369 C 
ATOM     19  O   UNL     1       6.390   5.713 -11.392  0.00  0.00    -0.245 OA
ATOM     20  O   UNL     1       5.047   7.467 -10.802  0.00  0.00    -0.245 OA
ENDBRANCH  17  18
ENDBRANCH   7  17
TORSDOF 4
ENDMDL
MODEL 5
REMARK VINA RESULT:      -7.4      1.624      1.879
REMARK  Name = 
REMARK  4 active torsions:
REMARK  status: ('A' for Active; 'I' for Inactive)
REMARK    1  A    between atoms: C_3  and  C_4
REMARK    2  A    between atoms: C_4  and  C_5
REMARK    3  A    between atoms: C_11  and  C_12
REMARK    4  A    between atoms: C_12  and  C_14
REMARK                            x       y       z     vdW  Elec       q    Type
REMARK                         _______ _______ _______ _____ _____    ______ ____
ROOT
ATOM      1  N   UNL     1       0.720   7.235  -4.420  0.00  0.00    -0.128 NA
ATOM      2  C   UNL     1       0.144   6.679  -5.609  0.00  0.00    +0.089 A 
ATOM      3  C   UNL     1       0.927   6.572  -6.750  0.00  0.00    +0.055 A 
ATOM      4  C   UNL     1       0.322   6.045  -7.869  0.00  0.00    +0.005 A 
ATOM      5  C   UNL     1      -0.670   5.100  -7.638  0.00  0.00    -0.000 A 
ATOM      6  C   UNL     1      -1.312   4.994  -6.410  0.00  0.00    -0.002 A 
ATOM      7  C   UNL     1      -0.987   5.893  -5.425  0.00  0.00    +0.006 A 
ENDROOT
BRANCH   3   8
ATOM      8  C   UNL     1       2.294   7.038  -6.701  0.00  0.00    +0.197 C 
ATOM      9  O   UNL     1       2.652   8.018  -7.408  0.00  0.00    -0.287 OA
BRANCH   8  10
ATOM     10  C   UNL     1       3.343   6.376  -5.936  0.00  0.00    +0.039 A 
ATOM     11  C   UNL     1       4.240   7.073  -5.134  0.00  0.00    +0.004 A 
ATOM     12  C   UNL     1       4.716   6.495  -3.963  0.00  0.00    +0.007 A 
ATOM     13  C   UNL     1       4.220   5.275  -3.516  0.00  0.00    +0.035 A 
ATOM     14 BR   UNL     1       3.943   4.940  -1.654  0.00  0.00    -0.049 Br
ATOM     15  C   UNL     1       3.680   4.453  -4.499  0.00  0.00    +0.007 A 
ATOM     16  C   UNL     1       3.329   5.002  -5.726  0.00  0.00    +0.004 A 
ENDBRANCH   8  10
ENDBRANCH   3   8
BRANCH   7  17
ATOM     17  C   UNL     1      -1.961   6.376  -4.403  0.00  0.00    +0.142 C 
BRANCH  17  18
ATOM     18  C   UNL     1      -2.080   5.294  -3.381  0.00  0.00    +0.369 C 
ATOM     19  O   UNL     1      -1.091   5.105  -2.422  0.00  0.00    -0.245 OA
ATOM     20  O   UNL     1      -3.260   4.915  -3.119  0.00  0.00    -0.245 OA
ENDBRANCH  17  18
ENDBRANCH   7  17
TORSDOF 4
ENDMDL
MODEL 6
REMARK VINA RESULT:      -7.4      4.179      4.767
REMARK  Name = 
REMARK  4 active torsions:
REMARK  status: ('A' for Active; 'I' for Inactive)
REMARK    1  A    between atoms: C_3  and  C_4
REMARK    2  A    between atoms: C_4  and  C_5
REMARK    3  A    between atoms: C_11  and  C_12
REMARK    4  A    between atoms: C_12  and  C_14
REMARK                            x       y       z     vdW  Elec       q    Type
REMARK                         _______ _______ _______ _____ _____    ______ ____
ROOT
ATOM      1  N   UNL     1       3.065   5.073  -6.188  0.00  0.00    -0.128 NA
ATOM      2  C   UNL     1       2.029   5.480  -7.090  0.00  0.00    +0.089 A 
ATOM      3  C   UNL     1       2.248   5.379  -8.457  0.00  0.00    +0.055 A 
ATOM      4  C   UNL     1       1.227   5.798  -9.280  0.00  0.00    +0.005 A 
ATOM      5  C   UNL     1      -0.062   5.630  -8.787  0.00  0.00    -0.000 A 
ATOM      6  C   UNL     1      -0.313   5.464  -7.431  0.00  0.00    -0.002 A 
ATOM      7  C   UNL     1       0.746   5.525  -6.559  0.00  0.00    +0.006 A 
ENDROOT
BRANCH   3   8
ATOM      8  C   UNL     1       3.521   4.879  -8.922  0.00  0.00    +0.197 C 
ATOM      9  O   UNL     1       3.706   3.637  -9.039  0.00  0.00    -0.287 OA
BRANCH   8  10
ATOM     10  C   UNL     1       4.673   5.730  -9.188  0.00  0.00    +0.039 A 
ATOM     11  C   UNL     1       5.947   5.439  -8.714  0.00  0.00    +0.004 A 
ATOM     12  C   UNL     1       7.062   5.782  -9.470  0.00  0.00    +0.007 A 
ATOM     13  C   UNL     1       6.923   6.307 -10.750  0.00  0.00    +0.035 A 
ATOM     14 BR   UNL     1       8.130   5.829 -12.155  0.00  0.00    -0.049 Br
ATOM     15  C   UNL     1       5.717   6.950 -11.005  0.00  0.00    +0.007 A 
ATOM     16  C   UNL     1       4.633   6.717 -10.167  0.00  0.00    +0.004 A 
ENDBRANCH   8  10
ENDBRANCH   3   8
BRANCH   7  17
ATOM     17  C   UNL     1       0.632   6.051  -5.167  0.00  0.00    +0.142 C 
BRANCH  17  18
ATOM     18  C   UNL     1      -0.783   6.498  -4.995  0.00  0.00    +0.369 C 
ATOM     19  O   UNL     1      -1.715   5.686  -4.359  0.00  0.00    -0.245 OA
ATOM     20  O   UNL     1      -0.964   7.752  -4.988  0.00  0.00    -0.245 OA
ENDBRANCH  17  18
ENDBRANCH   7  17
TORSDOF 4
ENDMDL
MODEL 7
REMARK VINA RESULT:      -7.4      3.708      4.841
REMARK  Name = 
REMARK  4 active torsions:
REMARK  status: ('A' for Active; 'I' for Inactive)
REMARK    1  A    between atoms: C_3  and  C_4
REMARK    2  A    between atoms: C_4  and  C_5
REMARK    3  A    between atoms: C_11  and  C_12
REMARK    4  A    between atoms: C_12  and  C_14
REMARK                            x       y       z     vdW  Elec       q    Type
REMARK                         _______ _______ _______ _____ _____    ______ ____
ROOT
ATOM      1  N   UNL     1       3.777   7.482  -5.067  0.00  0.00    -0.128 NA
ATOM      2  C   UNL     1       2.459   6.920  -5.034  0.00  0.00    +0.089 A 
ATOM      3  C   UNL     1       1.750   6.795  -6.222  0.00  0.00    +0.055 A 
ATOM      4  C   UNL     1       0.483   6.264  -6.133  0.00  0.00    +0.005 A 
ATOM      5  C   UNL     1       0.281   5.331  -5.123  0.00  0.00    -0.000 A 
ATOM      6  C   UNL     1       1.128   5.243  -4.025  0.00  0.00    -0.002 A 
ATOM      7  C   UNL     1       2.156   6.147  -3.921  0.00  0.00    +0.006 A 
ENDROOT
BRANCH   3   8
ATOM      8  C   UNL     1       2.364   7.248  -7.449  0.00  0.00    +0.197 C 
ATOM      9  O   UNL     1       2.184   8.431  -7.845  0.00  0.00    -0.287 OA
BRANCH   8  10
ATOM     10  C   UNL     1       3.127   6.380  -8.335  0.00  0.00    +0.039 A 
ATOM     11  C   UNL     1       3.441   6.732  -9.643  0.00  0.00    +0.004 A 
ATOM     12  C   UNL     1       4.642   6.313 -10.204  0.00  0.00    +0.007 A 
ATOM     13  C   UNL     1       5.592   5.645  -9.439  0.00  0.00    +0.035 A 
ATOM     14 BR   UNL     1       7.462   5.968  -9.676  0.00  0.00    -0.049 Br
ATOM     15  C   UNL     1       5.099   4.969  -8.329  0.00  0.00    +0.007 A 
ATOM     16  C   UNL     1       3.836   5.288  -7.846  0.00  0.00    +0.004 A 
ENDBRANCH   8  10
ENDBRANCH   3   8
BRANCH   7  17
ATOM     17  C   UNL     1       2.675   6.649  -2.615  0.00  0.00    +0.142 C 
BRANCH  17  18
ATOM     18  C   UNL     1       3.352   5.494  -1.952  0.00  0.00    +0.369 C 
ATOM     19  O   UNL     1       2.753   4.833  -0.886  0.00  0.00    -0.245 OA
ATOM     20  O   UNL     1       4.186   4.863  -2.667  0.00  0.00    -0.245 OA
ENDBRANCH  17  18
ENDBRANCH   7  17
TORSDOF 4
ENDMDL
MODEL 8
REMARK VINA RESULT:      -7.4      3.565      4.618
REMARK  Name = 
REMARK  4 active torsions:
REMARK  status: ('A' for Active; 'I' for Inactive)
REMARK    1  A    between atoms: C_3  and  C_4
REMARK    2  A    between atoms: C_4  and  C_5
REMARK    3  A    between atoms: C_11  and  C_12
REMARK    4  A    between atoms: C_12  and  C_14
REMARK                            x       y       z     vdW  Elec       q    Type
REMARK                         _______ _______ _______ _____ _____    ______ ____
ROOT
ATOM      1  N   UNL     1       0.674   5.917  -6.441  0.00  0.00    -0.128 NA
ATOM      2  C   UNL     1       1.752   6.222  -5.549  0.00  0.00    +0.089 A 
ATOM      3  C   UNL     1       2.855   6.911  -6.036  0.00  0.00    +0.055 A 
ATOM      4  C   UNL     1       3.870   7.166  -5.142  0.00  0.00    +0.005 A 
ATOM      5  C   UNL     1       3.486   7.352  -3.819  0.00  0.00    -0.000 A 
ATOM      6  C   UNL     1       2.262   6.903  -3.340  0.00  0.00    -0.002 A 
ATOM      7  C   UNL     1       1.443   6.207  -4.194  0.00  0.00    +0.006 A 
ENDROOT
BRANCH   3   8
ATOM      8  C   UNL     1       2.879   7.286  -7.431  0.00  0.00    +0.197 C 
ATOM      9  O   UNL     1       2.227   8.289  -7.826  0.00  0.00    -0.287 OA
BRANCH   8  10
ATOM     10  C   UNL     1       3.555   6.508  -8.461  0.00  0.00    +0.039 A 
ATOM     11  C   UNL     1       3.568   6.885  -9.799  0.00  0.00    +0.004 A 
ATOM     12  C   UNL     1       4.679   6.608 -10.586  0.00  0.00    +0.007 A 
ATOM     13  C   UNL     1       5.831   6.062 -10.029  0.00  0.00    +0.035 A 
ATOM     14 BR   UNL     1       7.569   6.604 -10.615  0.00  0.00    -0.049 Br
ATOM     15  C   UNL     1       5.643   5.340  -8.855  0.00  0.00    +0.007 A 
ATOM     16  C   UNL     1       4.468   5.511  -8.134  0.00  0.00    +0.004 A 
ENDBRANCH   8  10
ENDBRANCH   3   8
BRANCH   7  17
ATOM     17  C   UNL     1       0.523   5.122  -3.745  0.00  0.00    +0.142 C 
BRANCH  17  18
ATOM     18  C   UNL     1      -0.429   5.742  -2.777  0.00  0.00    +0.369 C 
ATOM     19  O   UNL     1      -1.328   6.720  -3.187  0.00  0.00    -0.245 OA
ATOM     20  O   UNL     1      -0.718   5.038  -1.764  0.00  0.00    -0.245 OA
ENDBRANCH  17  18
ENDBRANCH   7  17
TORSDOF 4
ENDMDL
MODEL 9
REMARK VINA RESULT:      -7.3      5.984      8.995
REMARK  Name = 
REMARK  4 active torsions:
REMARK  status: ('A' for Active; 'I' for Inactive)
REMARK    1  A    between atoms: C_3  and  C_4
REMARK    2  A    between atoms: C_4  and  C_5
REMARK    3  A    between atoms: C_11  and  C_12
REMARK    4  A    between atoms: C_12  and  C_14
REMARK                            x       y       z     vdW  Elec       q    Type
REMARK                         _______ _______ _______ _____ _____    ______ ____
ROOT
ATOM      1  N   UNL     1       4.131   5.700 -11.842  0.00  0.00    -0.128 NA
ATOM      2  C   UNL     1       5.220   5.912 -10.937  0.00  0.00    +0.089 A 
ATOM      3  C   UNL     1       5.088   5.503  -9.617  0.00  0.00    +0.055 A 
ATOM      4  C   UNL     1       6.158   5.743  -8.784  0.00  0.00    +0.005 A 
ATOM      5  C   UNL     1       7.414   5.713  -9.380  0.00  0.00    -0.000 A 
ATOM      6  C   UNL     1       7.580   5.859 -10.751  0.00  0.00    -0.002 A 
ATOM      7  C   UNL     1       6.467   6.097 -11.521  0.00  0.00    +0.006 A 
ENDROOT
BRANCH   3   8
ATOM      8  C   UNL     1       3.849   4.889  -9.200  0.00  0.00    +0.197 C 
ATOM      9  O   UNL     1       3.772   3.636  -9.088  0.00  0.00    -0.287 OA
BRANCH   8  10
ATOM     10  C   UNL     1       2.616   5.634  -8.980  0.00  0.00    +0.039 A 
ATOM     11  C   UNL     1       1.401   5.256  -9.541  0.00  0.00    +0.004 A 
ATOM     12  C   UNL     1       0.218   5.479  -8.846  0.00  0.00    +0.007 A 
ATOM     13  C   UNL     1       0.236   5.967  -7.544  0.00  0.00    +0.035 A 
ATOM     14 BR   UNL     1      -1.007   5.341  -6.232  0.00  0.00    -0.049 Br
ATOM     15  C   UNL     1       1.367   6.697  -7.194  0.00  0.00    +0.007 A 
ATOM     16  C   UNL     1       2.514   6.584  -7.970  0.00  0.00    +0.004 A 
ENDBRANCH   8  10
ENDBRANCH   3   8
BRANCH   7  17
ATOM     17  C   UNL     1       6.492   6.923 -12.763  0.00  0.00    +0.142 C 
BRANCH  17  18
ATOM     18  C   UNL     1       7.231   6.129 -13.789  0.00  0.00    +0.369 C 
ATOM     19  O   UNL     1       7.377   4.753 -13.657  0.00  0.00    -0.245 OA
ATOM     20  O   UNL     1       7.270   6.635 -14.951  0.00  0.00    -0.245 OA
ENDBRANCH  17  18
ENDBRANCH   7  17
TORSDOF 4
ENDMDL
