MODEL 1
REMARK VINA RESULT:      -3.5      0.000      0.000
REMARK  Name = 
REMARK  0 active torsions:
REMARK  status: ('A' for Active; 'I' for Inactive)
REMARK                            x       y       z     vdW  Elec       q    Type
REMARK                         _______ _______ _______ _____ _____    ______ ____
ROOT
ATOM      1  C   UNL     1       5.809   7.563 -11.226  0.00  0.00    +0.133 C 
ATOM      2  N   UNL     1       6.685   6.503 -11.667  0.00  0.00    -0.303 N 
ATOM      3  C   UNL     1       6.272   5.419 -12.367  0.00  0.00    +0.182 A 
ATOM      4  S   UNL     1       4.783   5.241 -13.018  0.00  0.00    -0.011 S 
ATOM      5  N   UNL     1       7.400   5.001 -12.993  0.00  0.00    -0.219 NA
ATOM      6  C   UNL     1       8.419   5.310 -12.168  0.00  0.00    +0.120 A 
ATOM      7  C   UNL     1       8.013   6.393 -11.409  0.00  0.00    +0.098 A 
ENDROOT
TORSDOF 0
ENDMDL
MODEL 2
REMARK VINA RESULT:      -3.4      1.903      2.084
REMARK  Name = 
REMARK  0 active torsions:
REMARK  status: ('A' for Active; 'I' for Inactive)
REMARK                            x       y       z     vdW  Elec       q    Type
REMARK                         _______ _______ _______ _____ _____    ______ ____
ROOT
ATOM      1  C   UNL     1       6.266   7.997 -11.446  0.00  0.00    +0.133 C 
ATOM      2  N   UNL     1       6.834   6.891 -12.181  0.00  0.00    -0.303 N 
ATOM      3  C   UNL     1       7.522   5.874 -11.609  0.00  0.00    +0.182 A 
ATOM      4  S   UNL     1       7.628   5.608 -10.000  0.00  0.00    -0.011 S 
ATOM      5  N   UNL     1       7.403   4.868 -12.512  0.00  0.00    -0.219 NA
ATOM      6  C   UNL     1       7.344   5.459 -13.721  0.00  0.00    +0.120 A 
ATOM      7  C   UNL     1       6.824   6.726 -13.528  0.00  0.00    +0.098 A 
ENDROOT
TORSDOF 0
ENDMDL
MODEL 3
REMARK VINA RESULT:      -3.3      2.019      2.599
REMARK  Name = 
REMARK  0 active torsions:
REMARK  status: ('A' for Active; 'I' for Inactive)
REMARK                            x       y       z     vdW  Elec       q    Type
REMARK                         _______ _______ _______ _____ _____    ______ ____
ROOT
ATOM      1  C   UNL     1       6.635   5.848  -9.854  0.00  0.00    +0.133 C 
ATOM      2  N   UNL     1       6.157   5.653 -11.202  0.00  0.00    -0.303 N 
ATOM      3  C   UNL     1       6.948   5.694 -12.301  0.00  0.00    +0.182 A 
ATOM      4  S   UNL     1       8.581   5.741 -12.273  0.00  0.00    -0.011 S 
ATOM      5  N   UNL     1       6.251   4.976 -13.217  0.00  0.00    -0.219 NA
ATOM      6  C   UNL     1       4.949   5.175 -12.933  0.00  0.00    +0.120 A 
ATOM      7  C   UNL     1       4.868   5.463 -11.583  0.00  0.00    +0.098 A 
ENDROOT
TORSDOF 0
ENDMDL
MODEL 4
REMARK VINA RESULT:      -3.3     11.423     12.412
REMARK  Name = 
REMARK  0 active torsions:
REMARK  status: ('A' for Active; 'I' for Inactive)
REMARK                            x       y       z     vdW  Elec       q    Type
REMARK                         _______ _______ _______ _____ _____    ______ ____
ROOT
ATOM      1  C   UNL     1      -0.200   6.894  -4.457  0.00  0.00    +0.133 C 
ATOM      2  N   UNL     1      -1.242   6.072  -3.888  0.00  0.00    -0.303 N 
ATOM      3  C   UNL     1      -1.086   5.310  -2.778  0.00  0.00    +0.182 A 
ATOM      4  S   UNL     1       0.209   5.364  -1.784  0.00  0.00    -0.011 S 
ATOM      5  N   UNL     1      -2.355   5.155  -2.323  0.00  0.00    -0.219 NA
ATOM      6  C   UNL     1      -3.144   5.156  -3.414  0.00  0.00    +0.120 A 
ATOM      7  C   UNL     1      -2.490   5.888  -4.388  0.00  0.00    +0.098 A 
ENDROOT
TORSDOF 0
ENDMDL
MODEL 5
REMARK VINA RESULT:      -3.1     11.976     12.639
REMARK  Name = 
REMARK  0 active torsions:
REMARK  status: ('A' for Active; 'I' for Inactive)
REMARK                            x       y       z     vdW  Elec       q    Type
REMARK                         _______ _______ _______ _____ _____    ______ ____
ROOT
ATOM      1  C   UNL     1      -1.852   8.215  -4.396  0.00  0.00    +0.133 C 
ATOM      2  N   UNL     1      -2.265   7.080  -3.605  0.00  0.00    -0.303 N 
ATOM      3  C   UNL     1      -2.607   5.876  -4.125  0.00  0.00    +0.182 A 
ATOM      4  S   UNL     1      -2.397   5.440  -5.685  0.00  0.00    -0.011 S 
ATOM      5  N   UNL     1      -2.409   5.020  -3.091  0.00  0.00    -0.219 NA
ATOM      6  C   UNL     1      -2.675   5.721  -1.972  0.00  0.00    +0.120 A 
ATOM      7  C   UNL     1      -2.430   7.051  -2.258  0.00  0.00    +0.098 A 
ENDROOT
TORSDOF 0
ENDMDL
MODEL 6
REMARK VINA RESULT:      -3.1      9.613     10.520
REMARK  Name = 
REMARK  0 active torsions:
REMARK  status: ('A' for Active; 'I' for Inactive)
REMARK                            x       y       z     vdW  Elec       q    Type
REMARK                         _______ _______ _______ _____ _____    ______ ____
ROOT
ATOM      1  C   UNL     1      -0.413   5.474  -3.388  0.00  0.00    +0.133 C 
ATOM      2  N   UNL     1      -0.990   5.604  -4.705  0.00  0.00    -0.303 N 
ATOM      3  C   UNL     1      -0.336   5.301  -5.853  0.00  0.00    +0.182 A 
ATOM      4  S   UNL     1       1.105   4.536  -5.932  0.00  0.00    -0.011 S 
ATOM      5  N   UNL     1      -1.341   5.064  -6.733  0.00  0.00    -0.219 NA
ATOM      6  C   UNL     1      -2.358   5.866  -6.361  0.00  0.00    +0.120 A 
ATOM      7  C   UNL     1      -2.220   6.093  -5.004  0.00  0.00    +0.098 A 
ENDROOT
TORSDOF 0
ENDMDL
MODEL 7
REMARK VINA RESULT:      -3.1      5.793      6.342
REMARK  Name = 
REMARK  0 active torsions:
REMARK  status: ('A' for Active; 'I' for Inactive)
REMARK                            x       y       z     vdW  Elec       q    Type
REMARK                         _______ _______ _______ _____ _____    ______ ____
ROOT
ATOM      1  C   UNL     1       1.845   3.978  -6.265  0.00  0.00    +0.133 C 
ATOM      2  N   UNL     1       2.733   4.366  -7.336  0.00  0.00    -0.303 N 
ATOM      3  C   UNL     1       3.651   5.357  -7.238  0.00  0.00    +0.182 A 
ATOM      4  S   UNL     1       4.062   6.115  -5.850  0.00  0.00    -0.011 S 
ATOM      5  N   UNL     1       4.558   5.041  -8.197  0.00  0.00    -0.219 NA
ATOM      6  C   UNL     1       3.864   4.435  -9.179  0.00  0.00    +0.120 A 
ATOM      7  C   UNL     1       2.751   3.858  -8.594  0.00  0.00    +0.098 A 
ENDROOT
TORSDOF 0
ENDMDL
MODEL 8
REMARK VINA RESULT:      -3.0      5.716      6.149
REMARK  Name = 
REMARK  0 active torsions:
REMARK  status: ('A' for Active; 'I' for Inactive)
REMARK                            x       y       z     vdW  Elec       q    Type
REMARK                         _______ _______ _______ _____ _____    ______ ____
ROOT
ATOM      1  C   UNL     1       2.614   7.024  -7.021  0.00  0.00    +0.133 C 
ATOM      2  N   UNL     1       2.977   5.772  -7.643  0.00  0.00    -0.303 N 
ATOM      3  C   UNL     1       2.549   4.560  -7.215  0.00  0.00    +0.182 A 
ATOM      4  S   UNL     1       1.390   4.324  -6.087  0.00  0.00    -0.011 S 
ATOM      5  N   UNL     1       2.669   3.777  -8.317  0.00  0.00    -0.219 NA
ATOM      6  C   UNL     1       3.720   4.263  -9.006  0.00  0.00    +0.120 A 
ATOM      7  C   UNL     1       3.827   5.606  -8.688  0.00  0.00    +0.098 A 
ENDROOT
TORSDOF 0
ENDMDL
MODEL 9
REMARK VINA RESULT:      -3.0      6.565      7.402
REMARK  Name = 
REMARK  0 active torsions:
REMARK  status: ('A' for Active; 'I' for Inactive)
REMARK                            x       y       z     vdW  Elec       q    Type
REMARK                         _______ _______ _______ _____ _____    ______ ____
ROOT
ATOM      1  C   UNL     1       3.197   4.005  -8.736  0.00  0.00    +0.133 C 
ATOM      2  N   UNL     1       2.266   4.405  -7.707  0.00  0.00    -0.303 N 
ATOM      3  C   UNL     1       1.479   5.506  -7.783  0.00  0.00    +0.182 A 
ATOM      4  S   UNL     1       1.284   6.423  -9.121  0.00  0.00    -0.011 S 
ATOM      5  N   UNL     1       0.459   5.221  -6.934  0.00  0.00    -0.219 NA
ATOM      6  C   UNL     1       0.988   4.454  -5.962  0.00  0.00    +0.120 A 
ATOM      7  C   UNL     1       2.076   3.798  -6.508  0.00  0.00    +0.098 A 
ENDROOT
TORSDOF 0
ENDMDL
