MODEL 1
REMARK VINA RESULT:      -9.0      0.000      0.000
REMARK  Name = 
REMARK  6 active torsions:
REMARK  status: ('A' for Active; 'I' for Inactive)
REMARK    1  A    between atoms: C_7  and  C_8
REMARK    2  A    between atoms: C_20  and  N_21
REMARK    3  A    between atoms: C_23  and  C_25
REMARK    4  A    between atoms: C_25  and  C_28
REMARK    5  A    between atoms: C_30  and  C_31
REMARK    6  A    between atoms: C_36  and  C_37
REMARK                            x       y       z     vdW  Elec       q    Type
REMARK                         _______ _______ _______ _____ _____    ______ ____
ROOT
ATOM      1  N   UNL     1       2.998   6.257  -3.332  0.00  0.00    -0.255 N 
ATOM      2  C   UNL     1       3.221   7.111  -2.201  0.00  0.00    +0.232 C 
ATOM      3  O   UNL     1       3.947   8.123  -2.439  0.00  0.00    -0.274 OA
ATOM      4  C   UNL     1       4.128   5.394  -3.672  0.00  0.00    +0.120 C 
ENDROOT
BRANCH   1   6
ATOM      5  C   UNL     1       1.090   6.562  -4.769  0.00  0.00    +0.018 A 
ATOM      6  C   UNL     1       2.377   6.901  -4.452  0.00  0.00    +0.073 A 
ATOM      7  C   UNL     1       3.162   7.462  -5.451  0.00  0.00    +0.115 A 
ATOM      8  N   UNL     1       2.760   7.453  -6.744  0.00  0.00    -0.228 NA
ATOM      9  C   UNL     1       1.615   6.822  -7.103  0.00  0.00    +0.132 A 
ATOM     10  N   UNL     1       1.508   6.110  -8.341  0.00  0.00    -0.290 N 
ATOM     11  C   UNL     1       1.776   4.677  -8.388  0.00  0.00    +0.109 C 
ATOM     12  C   UNL     1       3.180   4.536  -8.963  0.00  0.00    +0.094 C 
ATOM     13  N   UNL     1       3.231   5.120 -10.292  0.00  0.00    -0.269 NA
ATOM     14  C   UNL     1       4.613   5.024 -10.760  0.00  0.00    +0.090 C 
ATOM     15  C   UNL     1       2.934   6.549 -10.224  0.00  0.00    +0.094 C 
ATOM     16  C   UNL     1       1.577   6.813  -9.614  0.00  0.00    +0.109 C 
ATOM     17  C   UNL     1       0.680   6.656  -6.090  0.00  0.00    +0.036 A 
BRANCH   5  20
ATOM     18  C   UNL     1      -1.317   7.995  -4.844  0.00  0.00    +0.031 C 
ATOM     19  C   UNL     1      -1.053   7.007  -3.754  0.00  0.00    -0.022 A 
ATOM     20  C   UNL     1       0.138   6.292  -3.689  0.00  0.00    -0.003 A 
ATOM     21  C   UNL     1       0.035   5.040  -3.095  0.00  0.00    -0.000 A 
ATOM     22  C   UNL     1      -0.747   4.980  -1.948  0.00  0.00    -0.000 A 
ATOM     23  C   UNL     1      -1.948   5.677  -2.013  0.00  0.00    -0.000 A 
ATOM     24  C   UNL     1      -2.112   6.709  -2.914  0.00  0.00    -0.004 A 
ENDBRANCH   5  20
ENDBRANCH   1   6
BRANCH   2  25
ATOM     25  C   UNL     1       3.313   6.567  -0.816  0.00  0.00    +0.088 C 
ATOM     26  C   UNL     1       4.752   6.586  -0.383  0.00  0.00    +0.014 C 
ATOM     27  C   UNL     1       2.770   5.153  -0.734  0.00  0.00    +0.014 C 
BRANCH  25  28
ATOM     28  C   UNL     1       2.525   7.389   0.150  0.00  0.00    -0.015 A 
ATOM     29  C   UNL     1       3.076   8.490   0.795  0.00  0.00    +0.000 A 
ATOM     30  C   UNL     1       2.327   9.310   1.621  0.00  0.00    +0.071 A 
ATOM     31  C   UNL     1       0.985   8.975   1.749  0.00  0.00    +0.008 A 
ATOM     32  C   UNL     1       0.334   8.226   0.778  0.00  0.00    +0.071 A 
ATOM     33  C   UNL     1       1.148   7.434  -0.021  0.00  0.00    +0.000 A 
BRANCH  32  34
ATOM     34  C   UNL     1      -1.110   7.930   0.912  0.00  0.00    +0.419 C 
ATOM     35  F   UNL     1      -1.783   8.415  -0.202  0.00  0.00    -0.166 F 
ATOM     36  F   UNL     1      -1.652   8.505   2.035  0.00  0.00    -0.166 F 
ATOM     37  F   UNL     1      -1.277   6.568   0.994  0.00  0.00    -0.166 F 
ENDBRANCH  32  34
BRANCH  30  38
ATOM     38  C   UNL     1       2.858  10.613   2.113  0.00  0.00    +0.419 C 
ATOM     39  F   UNL     1       2.977  11.464   1.019  0.00  0.00    -0.166 F 
ATOM     40  F   UNL     1       4.096  10.441   2.679  0.00  0.00    -0.166 F 
ATOM     41  F   UNL     1       1.963  11.238   2.974  0.00  0.00    -0.166 F 
ENDBRANCH  30  38
ENDBRANCH  25  28
ENDBRANCH   2  25
TORSDOF 6
ENDMDL
MODEL 2
REMARK VINA RESULT:      -8.9      3.016      5.306
REMARK  Name = 
REMARK  6 active torsions:
REMARK  status: ('A' for Active; 'I' for Inactive)
REMARK    1  A    between atoms: C_7  and  C_8
REMARK    2  A    between atoms: C_20  and  N_21
REMARK    3  A    between atoms: C_23  and  C_25
REMARK    4  A    between atoms: C_25  and  C_28
REMARK    5  A    between atoms: C_30  and  C_31
REMARK    6  A    between atoms: C_36  and  C_37
REMARK                            x       y       z     vdW  Elec       q    Type
REMARK                         _______ _______ _______ _____ _____    ______ ____
ROOT
ATOM      1  N   UNL     1       1.684   5.604  -7.272  0.00  0.00    -0.255 N 
ATOM      2  C   UNL     1       1.079   5.144  -6.056  0.00  0.00    +0.232 C 
ATOM      3  O   UNL     1       0.945   3.885  -5.976  0.00  0.00    -0.274 OA
ATOM      4  C   UNL     1       0.791   5.605  -8.430  0.00  0.00    +0.120 C 
ENDROOT
BRANCH   1   6
ATOM      5  C   UNL     1       4.066   5.680  -6.925  0.00  0.00    +0.018 A 
ATOM      6  C   UNL     1       2.993   5.076  -7.524  0.00  0.00    +0.073 A 
ATOM      7  C   UNL     1       3.229   4.326  -8.668  0.00  0.00    +0.115 A 
ATOM      8  N   UNL     1       4.422   4.382  -9.307  0.00  0.00    -0.228 NA
ATOM      9  C   UNL     1       5.387   5.237  -8.888  0.00  0.00    +0.132 A 
ATOM     10  N   UNL     1       6.241   5.916  -9.815  0.00  0.00    -0.290 N 
ATOM     11  C   UNL     1       5.897   7.253 -10.285  0.00  0.00    +0.109 C 
ATOM     12  C   UNL     1       5.310   7.064 -11.678  0.00  0.00    +0.094 C 
ATOM     13  N   UNL     1       6.292   6.442 -12.549  0.00  0.00    -0.269 NA
ATOM     14  C   UNL     1       5.651   6.217 -13.843  0.00  0.00    +0.090 C 
ATOM     15  C   UNL     1       6.641   5.115 -12.045  0.00  0.00    +0.094 C 
ATOM     16  C   UNL     1       7.187   5.175 -10.636  0.00  0.00    +0.109 C 
ATOM     17  C   UNL     1       5.297   5.636  -7.561  0.00  0.00    +0.036 A 
BRANCH   5  20
ATOM     18  C   UNL     1       5.253   4.144  -4.904  0.00  0.00    +0.031 C 
ATOM     19  C   UNL     1       4.533   5.413  -4.574  0.00  0.00    -0.022 A 
ATOM     20  C   UNL     1       3.926   6.186  -5.558  0.00  0.00    -0.003 A 
ATOM     21  C   UNL     1       3.870   7.546  -5.279  0.00  0.00    -0.000 A 
ATOM     22  C   UNL     1       3.523   7.879  -3.975  0.00  0.00    -0.000 A 
ATOM     23  C   UNL     1       4.140   7.123  -2.986  0.00  0.00    -0.000 A 
ATOM     24  C   UNL     1       4.645   5.872  -3.272  0.00  0.00    -0.004 A 
ENDBRANCH   5  20
ENDBRANCH   1   6
BRANCH   2  25
ATOM     25  C   UNL     1       0.042   5.945  -5.345  0.00  0.00    +0.088 C 
ATOM     26  C   UNL     1      -1.309   5.589  -5.899  0.00  0.00    +0.014 C 
ATOM     27  C   UNL     1       0.284   7.434  -5.499  0.00  0.00    +0.014 C 
BRANCH  25  28
ATOM     28  C   UNL     1       0.035   5.658  -3.880  0.00  0.00    -0.015 A 
ATOM     29  C   UNL     1       1.123   5.070  -3.243  0.00  0.00    +0.000 A 
ATOM     30  C   UNL     1       1.161   4.884  -1.872  0.00  0.00    +0.071 A 
ATOM     31  C   UNL     1       0.053   5.341  -1.170  0.00  0.00    +0.008 A 
ATOM     32  C   UNL     1      -0.773   6.328  -1.691  0.00  0.00    +0.071 A 
ATOM     33  C   UNL     1      -0.754   6.465  -3.072  0.00  0.00    +0.000 A 
BRANCH  32  34
ATOM     34  C   UNL     1      -1.915   6.836  -0.897  0.00  0.00    +0.419 C 
ATOM     35  F   UNL     1      -3.082   6.703  -1.635  0.00  0.00    -0.166 F 
ATOM     36  F   UNL     1      -1.759   8.157  -0.557  0.00  0.00    -0.166 F 
ATOM     37  F   UNL     1      -2.014   6.097   0.259  0.00  0.00    -0.166 F 
ENDBRANCH  32  34
BRANCH  30  38
ATOM     38  C   UNL     1       2.415   4.478  -1.177  0.00  0.00    +0.419 C 
ATOM     39  F   UNL     1       2.111   3.405  -0.345  0.00  0.00    -0.166 F 
ATOM     40  F   UNL     1       2.894   5.511  -0.412  0.00  0.00    -0.166 F 
ATOM     41  F   UNL     1       3.363   3.997  -2.072  0.00  0.00    -0.166 F 
ENDBRANCH  30  38
ENDBRANCH  25  28
ENDBRANCH   2  25
TORSDOF 6
ENDMDL
MODEL 3
REMARK VINA RESULT:      -8.4      0.502      2.678
REMARK  Name = 
REMARK  6 active torsions:
REMARK  status: ('A' for Active; 'I' for Inactive)
REMARK    1  A    between atoms: C_7  and  C_8
REMARK    2  A    between atoms: C_20  and  N_21
REMARK    3  A    between atoms: C_23  and  C_25
REMARK    4  A    between atoms: C_25  and  C_28
REMARK    5  A    between atoms: C_30  and  C_31
REMARK    6  A    between atoms: C_36  and  C_37
REMARK                            x       y       z     vdW  Elec       q    Type
REMARK                         _______ _______ _______ _____ _____    ______ ____
ROOT
ATOM      1  N   UNL     1       3.043   6.452  -3.384  0.00  0.00    -0.255 N 
ATOM      2  C   UNL     1       3.215   7.368  -2.293  0.00  0.00    +0.232 C 
ATOM      3  O   UNL     1       3.886   8.407  -2.577  0.00  0.00    -0.274 OA
ATOM      4  C   UNL     1       4.220   5.637  -3.681  0.00  0.00    +0.120 C 
ENDROOT
BRANCH   1   6
ATOM      5  C   UNL     1       1.128   6.584  -4.837  0.00  0.00    +0.018 A 
ATOM      6  C   UNL     1       2.393   7.009  -4.533  0.00  0.00    +0.073 A 
ATOM      7  C   UNL     1       3.150   7.565  -5.555  0.00  0.00    +0.115 A 
ATOM      8  N   UNL     1       2.755   7.475  -6.848  0.00  0.00    -0.228 NA
ATOM      9  C   UNL     1       1.648   6.766  -7.180  0.00  0.00    +0.132 A 
ATOM     10  N   UNL     1       1.586   5.993  -8.383  0.00  0.00    -0.290 N 
ATOM     11  C   UNL     1       1.933   4.576  -8.363  0.00  0.00    +0.109 C 
ATOM     12  C   UNL     1       3.345   4.487  -8.928  0.00  0.00    +0.094 C 
ATOM     13  N   UNL     1       3.370   5.010 -10.283  0.00  0.00    -0.269 NA
ATOM     14  C   UNL     1       4.757   4.970 -10.743  0.00  0.00    +0.090 C 
ATOM     15  C   UNL     1       2.994   6.423 -10.282  0.00  0.00    +0.094 C 
ATOM     16  C   UNL     1       1.621   6.639  -9.687  0.00  0.00    +0.109 C 
ATOM     17  C   UNL     1       0.719   6.595  -6.162  0.00  0.00    +0.036 A 
BRANCH   5  20
ATOM     18  C   UNL     1      -1.301   7.981  -4.911  0.00  0.00    +0.031 C 
ATOM     19  C   UNL     1      -1.014   7.009  -3.812  0.00  0.00    -0.022 A 
ATOM     20  C   UNL     1       0.188   6.312  -3.747  0.00  0.00    -0.003 A 
ATOM     21  C   UNL     1       0.107   5.065  -3.139  0.00  0.00    -0.000 A 
ATOM     22  C   UNL     1      -0.666   5.007  -1.986  0.00  0.00    -0.000 A 
ATOM     23  C   UNL     1      -1.877   5.685  -2.050  0.00  0.00    -0.000 A 
ATOM     24  C   UNL     1      -2.063   6.704  -2.960  0.00  0.00    -0.004 A 
ENDBRANCH   5  20
ENDBRANCH   1   6
BRANCH   2  25
ATOM     25  C   UNL     1       3.331   6.895  -0.885  0.00  0.00    +0.088 C 
ATOM     26  C   UNL     1       4.753   7.072  -0.429  0.00  0.00    +0.014 C 
ATOM     27  C   UNL     1       2.924   5.440  -0.748  0.00  0.00    +0.014 C 
BRANCH  25  28
ATOM     28  C   UNL     1       2.448   7.677   0.032  0.00  0.00    -0.015 A 
ATOM     29  C   UNL     1       1.198   7.209   0.420  0.00  0.00    +0.000 A 
ATOM     30  C   UNL     1       0.413   7.883   1.340  0.00  0.00    +0.071 A 
ATOM     31  C   UNL     1       0.962   9.046   1.864  0.00  0.00    +0.008 A 
ATOM     32  C   UNL     1       2.335   9.255   1.874  0.00  0.00    +0.071 A 
ATOM     33  C   UNL     1       3.061   8.539   0.931  0.00  0.00    +0.000 A 
BRANCH  32  34
ATOM     34  C   UNL     1       2.896  10.478   2.490  0.00  0.00    +0.419 C 
ATOM     35  F   UNL     1       1.995  10.978   3.420  0.00  0.00    -0.166 F 
ATOM     36  F   UNL     1       3.151  11.454   1.558  0.00  0.00    -0.166 F 
ATOM     37  F   UNL     1       4.076  10.155   3.118  0.00  0.00    -0.166 F 
ENDBRANCH  32  34
BRANCH  30  38
ATOM     38  C   UNL     1      -0.807   7.260   1.926  0.00  0.00    +0.419 C 
ATOM     39  F   UNL     1      -1.728   8.274   2.169  0.00  0.00    -0.166 F 
ATOM     40  F   UNL     1      -0.504   6.641   3.113  0.00  0.00    -0.166 F 
ATOM     41  F   UNL     1      -1.427   6.403   1.025  0.00  0.00    -0.166 F 
ENDBRANCH  30  38
ENDBRANCH  25  28
ENDBRANCH   2  25
TORSDOF 6
ENDMDL
MODEL 4
REMARK VINA RESULT:      -8.2      1.356      1.971
REMARK  Name = 
REMARK  6 active torsions:
REMARK  status: ('A' for Active; 'I' for Inactive)
REMARK    1  A    between atoms: C_7  and  C_8
REMARK    2  A    between atoms: C_20  and  N_21
REMARK    3  A    between atoms: C_23  and  C_25
REMARK    4  A    between atoms: C_25  and  C_28
REMARK    5  A    between atoms: C_30  and  C_31
REMARK    6  A    between atoms: C_36  and  C_37
REMARK                            x       y       z     vdW  Elec       q    Type
REMARK                         _______ _______ _______ _____ _____    ______ ____
ROOT
ATOM      1  N   UNL     1       2.106   5.742  -4.223  0.00  0.00    -0.255 N 
ATOM      2  C   UNL     1       2.348   6.253  -2.905  0.00  0.00    +0.232 C 
ATOM      3  O   UNL     1       3.484   6.797  -2.751  0.00  0.00    -0.274 OA
ATOM      4  C   UNL     1       2.777   4.475  -4.515  0.00  0.00    +0.120 C 
ENDROOT
BRANCH   1   6
ATOM      5  C   UNL     1       1.104   6.908  -6.077  0.00  0.00    +0.018 A 
ATOM      6  C   UNL     1       2.192   6.720  -5.268  0.00  0.00    +0.073 A 
ATOM      7  C   UNL     1       3.433   7.106  -5.754  0.00  0.00    +0.115 A 
ATOM      8  N   UNL     1       3.603   7.430  -7.059  0.00  0.00    -0.228 NA
ATOM      9  C   UNL     1       2.578   7.304  -7.937  0.00  0.00    +0.132 A 
ATOM     10  N   UNL     1       2.794   6.864  -9.283  0.00  0.00    -0.290 N 
ATOM     11  C   UNL     1       2.660   5.453  -9.624  0.00  0.00    +0.109 C 
ATOM     12  C   UNL     1       4.081   4.910  -9.711  0.00  0.00    +0.094 C 
ATOM     13  N   UNL     1       4.821   5.625 -10.735  0.00  0.00    -0.269 NA
ATOM     14  C   UNL     1       6.192   5.117 -10.721  0.00  0.00    +0.090 C 
ATOM     15  C   UNL     1       4.921   7.041 -10.386  0.00  0.00    +0.094 C 
ATOM     16  C   UNL     1       3.559   7.676 -10.218  0.00  0.00    +0.109 C 
ATOM     17  C   UNL     1       1.307   7.333  -7.381  0.00  0.00    +0.036 A 
BRANCH   5  20
ATOM     18  C   UNL     1      -0.394   4.618  -6.679  0.00  0.00    +0.031 C 
ATOM     19  C   UNL     1      -0.957   5.686  -5.798  0.00  0.00    -0.022 A 
ATOM     20  C   UNL     1      -0.238   6.837  -5.493  0.00  0.00    -0.003 A 
ATOM     21  C   UNL     1      -0.534   7.400  -4.258  0.00  0.00    -0.000 A 
ATOM     22  C   UNL     1      -1.882   7.448  -3.927  0.00  0.00    -0.000 A 
ATOM     23  C   UNL     1      -2.604   6.295  -4.211  0.00  0.00    -0.000 A 
ATOM     24  C   UNL     1      -2.153   5.402  -5.160  0.00  0.00    -0.004 A 
ENDBRANCH   5  20
ENDBRANCH   1   6
BRANCH   2  25
ATOM     25  C   UNL     1       1.783   5.593  -1.694  0.00  0.00    +0.088 C 
ATOM     26  C   UNL     1       2.850   4.742  -1.063  0.00  0.00    +0.014 C 
ATOM     27  C   UNL     1       0.578   4.738  -2.034  0.00  0.00    +0.014 C 
BRANCH  25  28
ATOM     28  C   UNL     1       1.329   6.596  -0.684  0.00  0.00    -0.015 A 
ATOM     29  C   UNL     1       2.150   7.637  -0.266  0.00  0.00    +0.000 A 
ATOM     30  C   UNL     1       1.706   8.622   0.600  0.00  0.00    +0.071 A 
ATOM     31  C   UNL     1       0.383   8.515   1.008  0.00  0.00    +0.008 A 
ATOM     32  C   UNL     1      -0.549   7.814   0.254  0.00  0.00    +0.071 A 
ATOM     33  C   UNL     1      -0.033   6.848  -0.599  0.00  0.00    +0.000 A 
BRANCH  32  34
ATOM     34  C   UNL     1      -1.965   7.763   0.684  0.00  0.00    +0.419 C 
ATOM     35  F   UNL     1      -2.358   9.021   1.119  0.00  0.00    -0.166 F 
ATOM     36  F   UNL     1      -2.162   6.865   1.704  0.00  0.00    -0.166 F 
ATOM     37  F   UNL     1      -2.739   7.382  -0.387  0.00  0.00    -0.166 F 
ENDBRANCH  32  34
BRANCH  30  38
ATOM     38  C   UNL     1       2.505   9.854   0.852  0.00  0.00    +0.419 C 
ATOM     39  F   UNL     1       1.706  10.740   1.569  0.00  0.00    -0.166 F 
ATOM     40  F   UNL     1       2.865  10.442  -0.334  0.00  0.00    -0.166 F 
ATOM     41  F   UNL     1       3.599   9.595   1.670  0.00  0.00    -0.166 F 
ENDBRANCH  30  38
ENDBRANCH  25  28
ENDBRANCH   2  25
TORSDOF 6
ENDMDL
MODEL 5
REMARK VINA RESULT:      -8.0      1.363      3.241
REMARK  Name = 
REMARK  6 active torsions:
REMARK  status: ('A' for Active; 'I' for Inactive)
REMARK    1  A    between atoms: C_7  and  C_8
REMARK    2  A    between atoms: C_20  and  N_21
REMARK    3  A    between atoms: C_23  and  C_25
REMARK    4  A    between atoms: C_25  and  C_28
REMARK    5  A    between atoms: C_30  and  C_31
REMARK    6  A    between atoms: C_36  and  C_37
REMARK                            x       y       z     vdW  Elec       q    Type
REMARK                         _______ _______ _______ _____ _____    ______ ____
ROOT
ATOM      1  N   UNL     1       2.113   5.863  -4.269  0.00  0.00    -0.255 N 
ATOM      2  C   UNL     1       2.386   6.424  -2.978  0.00  0.00    +0.232 C 
ATOM      3  O   UNL     1       3.529   6.964  -2.868  0.00  0.00    -0.274 OA
ATOM      4  C   UNL     1       2.767   4.579  -4.522  0.00  0.00    +0.120 C 
ENDROOT
BRANCH   1   6
ATOM      5  C   UNL     1       1.103   6.924  -6.180  0.00  0.00    +0.018 A 
ATOM      6  C   UNL     1       2.187   6.797  -5.354  0.00  0.00    +0.073 A 
ATOM      7  C   UNL     1       3.424   7.191  -5.845  0.00  0.00    +0.115 A 
ATOM      8  N   UNL     1       3.599   7.463  -7.161  0.00  0.00    -0.228 NA
ATOM      9  C   UNL     1       2.586   7.275  -8.042  0.00  0.00    +0.132 A 
ATOM     10  N   UNL     1       2.825   6.784  -9.366  0.00  0.00    -0.290 N 
ATOM     11  C   UNL     1       2.727   5.356  -9.647  0.00  0.00    +0.109 C 
ATOM     12  C   UNL     1       4.161   4.844  -9.698  0.00  0.00    +0.094 C 
ATOM     13  N   UNL     1       4.895   5.532 -10.746  0.00  0.00    -0.269 NA
ATOM     14  C   UNL     1       6.277   5.058 -10.697  0.00  0.00    +0.090 C 
ATOM     15  C   UNL     1       4.959   6.964 -10.457  0.00  0.00    +0.094 C 
ATOM     16  C   UNL     1       3.581   7.573 -10.328  0.00  0.00    +0.109 C 
ATOM     17  C   UNL     1       1.309   7.298  -7.499  0.00  0.00    +0.036 A 
BRANCH   5  20
ATOM     18  C   UNL     1      -0.398   4.650  -6.833  0.00  0.00    +0.031 C 
ATOM     19  C   UNL     1      -0.963   5.703  -5.936  0.00  0.00    -0.022 A 
ATOM     20  C   UNL     1      -0.243   6.846  -5.606  0.00  0.00    -0.003 A 
ATOM     21  C   UNL     1      -0.545   7.388  -4.363  0.00  0.00    -0.000 A 
ATOM     22  C   UNL     1      -1.895   7.434  -4.038  0.00  0.00    -0.000 A 
ATOM     23  C   UNL     1      -2.618   6.288  -4.348  0.00  0.00    -0.000 A 
ATOM     24  C   UNL     1      -2.164   5.411  -5.310  0.00  0.00    -0.004 A 
ENDBRANCH   5  20
ENDBRANCH   1   6
BRANCH   2  25
ATOM     25  C   UNL     1       1.840   5.819  -1.730  0.00  0.00    +0.088 C 
ATOM     26  C   UNL     1       2.970   5.202  -0.955  0.00  0.00    +0.014 C 
ATOM     27  C   UNL     1       0.789   4.768  -2.032  0.00  0.00    +0.014 C 
BRANCH  25  28
ATOM     28  C   UNL     1       1.186   6.845  -0.863  0.00  0.00    -0.015 A 
ATOM     29  C   UNL     1      -0.184   6.838  -0.627  0.00  0.00    +0.000 A 
ATOM     30  C   UNL     1      -0.785   7.729   0.247  0.00  0.00    +0.071 A 
ATOM     31  C   UNL     1       0.071   8.616   0.886  0.00  0.00    +0.008 A 
ATOM     32  C   UNL     1       1.420   8.330   1.043  0.00  0.00    +0.071 A 
ATOM     33  C   UNL     1       1.954   7.422   0.138  0.00  0.00    +0.000 A 
BRANCH  32  34
ATOM     34  C   UNL     1       2.298   9.268   1.778  0.00  0.00    +0.419 C 
ATOM     35  F   UNL     1       3.470   8.616   2.134  0.00  0.00    -0.166 F 
ATOM     36  F   UNL     1       1.701   9.749   2.916  0.00  0.00    -0.166 F 
ATOM     37  F   UNL     1       2.594  10.332   0.958  0.00  0.00    -0.166 F 
ENDBRANCH  32  34
BRANCH  30  38
ATOM     38  C   UNL     1      -2.202   7.562   0.675  0.00  0.00    +0.419 C 
ATOM     39  F   UNL     1      -2.258   6.482   1.552  0.00  0.00    -0.166 F 
ATOM     40  F   UNL     1      -3.001   7.296  -0.409  0.00  0.00    -0.166 F 
ATOM     41  F   UNL     1      -2.648   8.657   1.406  0.00  0.00    -0.166 F 
ENDBRANCH  30  38
ENDBRANCH  25  28
ENDBRANCH   2  25
TORSDOF 6
ENDMDL
MODEL 6
REMARK VINA RESULT:      -8.0      7.048     11.053
REMARK  Name = 
REMARK  6 active torsions:
REMARK  status: ('A' for Active; 'I' for Inactive)
REMARK    1  A    between atoms: C_7  and  C_8
REMARK    2  A    between atoms: C_20  and  N_21
REMARK    3  A    between atoms: C_23  and  C_25
REMARK    4  A    between atoms: C_25  and  C_28
REMARK    5  A    between atoms: C_30  and  C_31
REMARK    6  A    between atoms: C_36  and  C_37
REMARK                            x       y       z     vdW  Elec       q    Type
REMARK                         _______ _______ _______ _____ _____    ______ ____
ROOT
ATOM      1  N   UNL     1       2.504   5.952  -7.724  0.00  0.00    -0.255 N 
ATOM      2  C   UNL     1       3.251   5.518  -8.869  0.00  0.00    +0.232 C 
ATOM      3  O   UNL     1       3.585   4.295  -8.848  0.00  0.00    -0.274 OA
ATOM      4  C   UNL     1       3.308   6.171  -6.523  0.00  0.00    +0.120 C 
ENDROOT
BRANCH   1   6
ATOM      5  C   UNL     1       0.183   5.580  -8.249  0.00  0.00    +0.018 A 
ATOM      6  C   UNL     1       1.280   5.239  -7.504  0.00  0.00    +0.073 A 
ATOM      7  C   UNL     1       1.064   4.590  -6.296  0.00  0.00    +0.115 A 
ATOM      8  N   UNL     1      -0.176   4.510  -5.757  0.00  0.00    -0.228 NA
ATOM      9  C   UNL     1      -1.224   5.135  -6.348  0.00  0.00    +0.132 A 
ATOM     10  N   UNL     1      -2.259   5.755  -5.577  0.00  0.00    -0.290 N 
ATOM     11  C   UNL     1      -2.181   7.174  -5.252  0.00  0.00    +0.109 C 
ATOM     12  C   UNL     1      -1.702   7.243  -3.807  0.00  0.00    +0.094 C 
ATOM     13  N   UNL     1      -2.647   6.562  -2.939  0.00  0.00    -0.269 NA
ATOM     14  C   UNL     1      -2.100   6.594  -1.584  0.00  0.00    +0.090 C 
ATOM     15  C   UNL     1      -2.728   5.147  -3.299  0.00  0.00    +0.094 C 
ATOM     16  C   UNL     1      -3.144   4.957  -4.741  0.00  0.00    +0.109 C 
ATOM     17  C   UNL     1      -1.078   5.395  -7.704  0.00  0.00    +0.036 A 
BRANCH   5  20
ATOM     18  C   UNL     1       0.201   3.472 -10.096  0.00  0.00    +0.031 C 
ATOM     19  C   UNL     1       0.359   4.887 -10.553  0.00  0.00    -0.022 A 
ATOM     20  C   UNL     1       0.364   5.949  -9.655  0.00  0.00    -0.003 A 
ATOM     21  C   UNL     1      -0.112   7.149 -10.168  0.00  0.00    -0.000 A 
ATOM     22  C   UNL     1       0.314   7.466 -11.452  0.00  0.00    -0.000 A 
ATOM     23  C   UNL     1       0.293   6.414 -12.360  0.00  0.00    -0.000 A 
ATOM     24  C   UNL     1       0.325   5.108 -11.920  0.00  0.00    -0.004 A 
ENDBRANCH   5  20
ENDBRANCH   1   6
BRANCH   2  25
ATOM     25  C   UNL     1       4.193   6.429  -9.579  0.00  0.00    +0.088 C 
ATOM     26  C   UNL     1       5.461   6.534  -8.780  0.00  0.00    +0.014 C 
ATOM     27  C   UNL     1       3.595   7.808  -9.779  0.00  0.00    +0.014 C 
BRANCH  25  28
ATOM     28  C   UNL     1       4.539   5.909 -10.936  0.00  0.00    -0.015 A 
ATOM     29  C   UNL     1       3.606   5.871 -11.966  0.00  0.00    +0.000 A 
ATOM     30  C   UNL     1       3.943   5.477 -13.251  0.00  0.00    +0.071 A 
ATOM     31  C   UNL     1       5.276   5.141 -13.449  0.00  0.00    +0.008 A 
ATOM     32  C   UNL     1       6.273   5.626 -12.613  0.00  0.00    +0.071 A 
ATOM     33  C   UNL     1       5.863   6.012 -11.343  0.00  0.00    +0.000 A 
BRANCH  32  34
ATOM     34  C   UNL     1       7.691   5.299 -12.881  0.00  0.00    +0.419 C 
ATOM     35  F   UNL     1       8.100   4.292 -12.017  0.00  0.00    -0.166 F 
ATOM     36  F   UNL     1       8.513   6.385 -12.708  0.00  0.00    -0.166 F 
ATOM     37  F   UNL     1       7.807   4.866 -14.181  0.00  0.00    -0.166 F 
ENDBRANCH  32  34
BRANCH  30  38
ATOM     38  C   UNL     1       3.005   5.666 -14.393  0.00  0.00    +0.419 C 
ATOM     39  F   UNL     1       2.227   6.788 -14.123  0.00  0.00    -0.166 F 
ATOM     40  F   UNL     1       2.182   4.575 -14.522  0.00  0.00    -0.166 F 
ATOM     41  F   UNL     1       3.684   5.960 -15.569  0.00  0.00    -0.166 F 
ENDBRANCH  30  38
ENDBRANCH  25  28
ENDBRANCH   2  25
TORSDOF 6
ENDMDL
MODEL 7
REMARK VINA RESULT:      -7.7      1.696      3.330
REMARK  Name = 
REMARK  6 active torsions:
REMARK  status: ('A' for Active; 'I' for Inactive)
REMARK    1  A    between atoms: C_7  and  C_8
REMARK    2  A    between atoms: C_20  and  N_21
REMARK    3  A    between atoms: C_23  and  C_25
REMARK    4  A    between atoms: C_25  and  C_28
REMARK    5  A    between atoms: C_30  and  C_31
REMARK    6  A    between atoms: C_36  and  C_37
REMARK                            x       y       z     vdW  Elec       q    Type
REMARK                         _______ _______ _______ _____ _____    ______ ____
ROOT
ATOM      1  N   UNL     1       3.351   6.314  -5.208  0.00  0.00    -0.255 N 
ATOM      2  C   UNL     1       3.787   7.096  -4.088  0.00  0.00    +0.232 C 
ATOM      3  O   UNL     1       4.283   8.224  -4.392  0.00  0.00    -0.274 OA
ATOM      4  C   UNL     1       4.430   5.663  -5.950  0.00  0.00    +0.120 C 
ENDROOT
BRANCH   1   6
ATOM      5  C   UNL     1       1.059   6.526  -5.915  0.00  0.00    +0.018 A 
ATOM      6  C   UNL     1       2.357   6.945  -6.025  0.00  0.00    +0.073 A 
ATOM      7  C   UNL     1       2.731   7.587  -7.198  0.00  0.00    +0.115 A 
ATOM      8  N   UNL     1       1.921   7.588  -8.284  0.00  0.00    -0.228 NA
ATOM      9  C   UNL     1       0.759   6.889  -8.275  0.00  0.00    +0.132 A 
ATOM     10  N   UNL     1       0.286   6.207  -9.442  0.00  0.00    -0.290 N 
ATOM     11  C   UNL     1       0.603   4.799  -9.647  0.00  0.00    +0.109 C 
ATOM     12  C   UNL     1       1.740   4.773 -10.660  0.00  0.00    +0.094 C 
ATOM     13  N   UNL     1       1.311   5.396 -11.901  0.00  0.00    -0.269 NA
ATOM     14  C   UNL     1       2.461   5.411 -12.803  0.00  0.00    +0.090 C 
ATOM     15  C   UNL     1       0.975   6.799 -11.667  0.00  0.00    +0.094 C 
ATOM     16  C   UNL     1      -0.114   6.950 -10.628  0.00  0.00    +0.109 C 
ATOM     17  C   UNL     1       0.227   6.629  -7.019  0.00  0.00    +0.036 A 
BRANCH   5  20
ATOM     18  C   UNL     1      -1.188   7.944  -5.025  0.00  0.00    +0.031 C 
ATOM     19  C   UNL     1      -0.583   6.869  -4.181  0.00  0.00    -0.022 A 
ATOM     20  C   UNL     1       0.539   6.158  -4.595  0.00  0.00    -0.003 A 
ATOM     21  C   UNL     1       0.621   4.860  -4.107  0.00  0.00    -0.000 A 
ATOM     22  C   UNL     1       0.288   4.699  -2.768  0.00  0.00    -0.000 A 
ATOM     23  C   UNL     1      -0.843   5.391  -2.351  0.00  0.00    -0.000 A 
ATOM     24  C   UNL     1      -1.288   6.494  -3.049  0.00  0.00    -0.004 A 
ENDBRANCH   5  20
ENDBRANCH   1   6
BRANCH   2  25
ATOM     25  C   UNL     1       4.345   6.461  -2.860  0.00  0.00    +0.088 C 
ATOM     26  C   UNL     1       5.840   6.617  -2.869  0.00  0.00    +0.014 C 
ATOM     27  C   UNL     1       3.981   4.992  -2.776  0.00  0.00    +0.014 C 
BRANCH  25  28
ATOM     28  C   UNL     1       3.818   7.107  -1.620  0.00  0.00    -0.015 A 
ATOM     29  C   UNL     1       2.466   7.077  -1.297  0.00  0.00    +0.000 A 
ATOM     30  C   UNL     1       1.982   7.593  -0.106  0.00  0.00    +0.071 A 
ATOM     31  C   UNL     1       2.935   8.125   0.752  0.00  0.00    +0.008 A 
ATOM     32  C   UNL     1       4.266   7.736   0.681  0.00  0.00    +0.071 A 
ATOM     33  C   UNL     1       4.681   7.218  -0.539  0.00  0.00    +0.000 A 
BRANCH  32  34
ATOM     34  C   UNL     1       5.251   8.277   1.646  0.00  0.00    +0.419 C 
ATOM     35  F   UNL     1       5.174   9.662   1.650  0.00  0.00    -0.166 F 
ATOM     36  F   UNL     1       6.536   7.909   1.331  0.00  0.00    -0.166 F 
ATOM     37  F   UNL     1       4.953   7.795   2.899  0.00  0.00    -0.166 F 
ENDBRANCH  32  34
BRANCH  30  38
ATOM     38  C   UNL     1       0.582   7.344   0.337  0.00  0.00    +0.419 C 
ATOM     39  F   UNL     1       0.459   7.812   1.642  0.00  0.00    -0.166 F 
ATOM     40  F   UNL     1       0.306   6.000   0.319  0.00  0.00    -0.166 F 
ATOM     41  F   UNL     1      -0.330   8.082  -0.409  0.00  0.00    -0.166 F 
ENDBRANCH  30  38
ENDBRANCH  25  28
ENDBRANCH   2  25
TORSDOF 6
ENDMDL
MODEL 8
REMARK VINA RESULT:      -7.3      8.011     13.138
REMARK  Name = 
REMARK  6 active torsions:
REMARK  status: ('A' for Active; 'I' for Inactive)
REMARK    1  A    between atoms: C_7  and  C_8
REMARK    2  A    between atoms: C_20  and  N_21
REMARK    3  A    between atoms: C_23  and  C_25
REMARK    4  A    between atoms: C_25  and  C_28
REMARK    5  A    between atoms: C_30  and  C_31
REMARK    6  A    between atoms: C_36  and  C_37
REMARK                            x       y       z     vdW  Elec       q    Type
REMARK                         _______ _______ _______ _____ _____    ______ ____
ROOT
ATOM      1  N   UNL     1       1.962   5.935 -11.928  0.00  0.00    -0.255 N 
ATOM      2  C   UNL     1       1.718   6.698 -13.118  0.00  0.00    +0.232 C 
ATOM      3  O   UNL     1       0.944   7.690 -12.959  0.00  0.00    -0.274 OA
ATOM      4  C   UNL     1       0.866   5.046 -11.543  0.00  0.00    +0.120 C 
ENDROOT
BRANCH   1   6
ATOM      5  C   UNL     1       3.849   6.468 -10.531  0.00  0.00    +0.018 A 
ATOM      6  C   UNL     1       2.535   6.682 -10.847  0.00  0.00    +0.073 A 
ATOM      7  C   UNL     1       1.714   7.221  -9.866  0.00  0.00    +0.115 A 
ATOM      8  N   UNL     1       2.128   7.308  -8.578  0.00  0.00    -0.228 NA
ATOM      9  C   UNL     1       3.325   6.794  -8.205  0.00  0.00    +0.132 A 
ATOM     10  N   UNL     1       3.503   6.153  -6.937  0.00  0.00    -0.290 N 
ATOM     11  C   UNL     1       3.358   4.707  -6.819  0.00  0.00    +0.109 C 
ATOM     12  C   UNL     1       1.976   4.475  -6.221  0.00  0.00    +0.094 C 
ATOM     13  N   UNL     1       1.888   5.115  -4.919  0.00  0.00    -0.269 NA
ATOM     14  C   UNL     1       0.523   4.925  -4.430  0.00  0.00    +0.090 C 
ATOM     15  C   UNL     1       2.061   6.559  -5.058  0.00  0.00    +0.094 C 
ATOM     16  C   UNL     1       3.386   6.908  -5.697  0.00  0.00    +0.109 C 
ATOM     17  C   UNL     1       4.261   6.659  -9.221  0.00  0.00    +0.036 A 
BRANCH   5  20
ATOM     18  C   UNL     1       5.907   8.351 -10.804  0.00  0.00    +0.031 C 
ATOM     19  C   UNL     1       5.829   7.170 -11.718  0.00  0.00    -0.022 A 
ATOM     20  C   UNL     1       4.811   6.228 -11.610  0.00  0.00    -0.003 A 
ATOM     21  C   UNL     1       5.158   4.945 -12.014  0.00  0.00    -0.000 A 
ATOM     22  C   UNL     1       5.909   4.864 -13.180  0.00  0.00    -0.000 A 
ATOM     23  C   UNL     1       6.940   5.790 -13.287  0.00  0.00    -0.000 A 
ATOM     24  C   UNL     1       6.907   6.963 -12.562  0.00  0.00    -0.004 A 
ENDBRANCH   5  20
ENDBRANCH   1   6
BRANCH   2  25
ATOM     25  C   UNL     1       1.672   6.057 -14.462  0.00  0.00    +0.088 C 
ATOM     26  C   UNL     1       0.237   5.926 -14.888  0.00  0.00    +0.014 C 
ATOM     27  C   UNL     1       2.333   4.692 -14.454  0.00  0.00    +0.014 C 
BRANCH  25  28
ATOM     28  C   UNL     1       2.389   6.876 -15.485  0.00  0.00    -0.015 A 
ATOM     29  C   UNL     1       1.798   7.985 -16.081  0.00  0.00    +0.000 A 
ATOM     30  C   UNL     1       2.486   8.802 -16.961  0.00  0.00    +0.071 A 
ATOM     31  C   UNL     1       3.810   8.455 -17.197  0.00  0.00    +0.008 A 
ATOM     32  C   UNL     1       4.530   7.697 -16.283  0.00  0.00    +0.071 A 
ATOM     33  C   UNL     1       3.775   6.908 -15.425  0.00  0.00    +0.000 A 
BRANCH  32  34
ATOM     34  C   UNL     1       5.956   7.389 -16.533  0.00  0.00    +0.419 C 
ATOM     35  F   UNL     1       6.274   7.720 -17.843  0.00  0.00    -0.166 F 
ATOM     36  F   UNL     1       6.239   6.061 -16.336  0.00  0.00    -0.166 F 
ATOM     37  F   UNL     1       6.727   8.133 -15.670  0.00  0.00    -0.166 F 
ENDBRANCH  32  34
BRANCH  30  38
ATOM     38  C   UNL     1       1.929  10.111 -17.404  0.00  0.00    +0.419 C 
ATOM     39  F   UNL     1       1.961  10.977 -16.316  0.00  0.00    -0.166 F 
ATOM     40  F   UNL     1       0.629   9.963 -17.817  0.00  0.00    -0.166 F 
ATOM     41  F   UNL     1       2.729  10.705 -18.374  0.00  0.00    -0.166 F 
ENDBRANCH  30  38
ENDBRANCH  25  28
ENDBRANCH   2  25
TORSDOF 6
ENDMDL
MODEL 9
REMARK VINA RESULT:      -7.2      2.207      5.331
REMARK  Name = 
REMARK  6 active torsions:
REMARK  status: ('A' for Active; 'I' for Inactive)
REMARK    1  A    between atoms: C_7  and  C_8
REMARK    2  A    between atoms: C_20  and  N_21
REMARK    3  A    between atoms: C_23  and  C_25
REMARK    4  A    between atoms: C_25  and  C_28
REMARK    5  A    between atoms: C_30  and  C_31
REMARK    6  A    between atoms: C_36  and  C_37
REMARK                            x       y       z     vdW  Elec       q    Type
REMARK                         _______ _______ _______ _____ _____    ______ ____
ROOT
ATOM      1  N   UNL     1       3.613   5.400  -5.629  0.00  0.00    -0.255 N 
ATOM      2  C   UNL     1       3.519   6.592  -4.836  0.00  0.00    +0.232 C 
ATOM      3  O   UNL     1       3.021   7.590  -5.441  0.00  0.00    -0.274 OA
ATOM      4  C   UNL     1       4.717   5.396  -6.588  0.00  0.00    +0.120 C 
ENDROOT
BRANCH   1   6
ATOM      5  C   UNL     1       1.850   5.541  -7.262  0.00  0.00    +0.018 A 
ATOM      6  C   UNL     1       2.364   4.930  -6.150  0.00  0.00    +0.073 A 
ATOM      7  C   UNL     1       1.483   4.244  -5.325  0.00  0.00    +0.115 A 
ATOM      8  N   UNL     1       0.142   4.371  -5.474  0.00  0.00    -0.228 NA
ATOM      9  C   UNL     1      -0.369   5.238  -6.382  0.00  0.00    +0.132 A 
ATOM     10  N   UNL     1      -1.559   5.989  -6.114  0.00  0.00    -0.290 N 
ATOM     11  C   UNL     1      -1.467   7.334  -5.559  0.00  0.00    +0.109 C 
ATOM     12  C   UNL     1      -1.778   7.192  -4.074  0.00  0.00    +0.094 C 
ATOM     13  N   UNL     1      -3.113   6.647  -3.899  0.00  0.00    -0.269 NA
ATOM     14  C   UNL     1      -3.327   6.462  -2.465  0.00  0.00    +0.090 C 
ATOM     15  C   UNL     1      -3.190   5.310  -4.485  0.00  0.00    +0.094 C 
ATOM     16  C   UNL     1      -2.842   5.321  -5.957  0.00  0.00    +0.109 C 
ATOM     17  C   UNL     1       0.474   5.569  -7.434  0.00  0.00    +0.036 A 
BRANCH   5  20
ATOM     18  C   UNL     1       2.754   3.553  -9.020  0.00  0.00    +0.031 C 
ATOM     19  C   UNL     1       3.189   4.974  -9.187  0.00  0.00    -0.022 A 
ATOM     20  C   UNL     1       2.764   5.976  -8.322  0.00  0.00    -0.003 A 
ATOM     21  C   UNL     1       2.682   7.241  -8.889  0.00  0.00    -0.000 A 
ATOM     22  C   UNL     1       3.737   7.596  -9.722  0.00  0.00    -0.000 A 
ATOM     23  C   UNL     1       4.155   6.606 -10.603  0.00  0.00    -0.000 A 
ATOM     24  C   UNL     1       3.894   5.277 -10.340  0.00  0.00    -0.004 A 
ENDBRANCH   5  20
ENDBRANCH   1   6
BRANCH   2  25
ATOM     25  C   UNL     1       4.527   6.915  -3.786  0.00  0.00    +0.088 C 
ATOM     26  C   UNL     1       5.323   8.110  -4.230  0.00  0.00    +0.014 C 
ATOM     27  C   UNL     1       5.457   5.746  -3.525  0.00  0.00    +0.014 C 
BRANCH  25  28
ATOM     28  C   UNL     1       3.875   7.247  -2.484  0.00  0.00    -0.015 A 
ATOM     29  C   UNL     1       4.093   8.462  -1.845  0.00  0.00    +0.000 A 
ATOM     30  C   UNL     1       3.423   8.815  -0.685  0.00  0.00    +0.071 A 
ATOM     31  C   UNL     1       2.506   7.885  -0.212  0.00  0.00    +0.008 A 
ATOM     32  C   UNL     1       1.936   6.942  -1.056  0.00  0.00    +0.071 A 
ATOM     33  C   UNL     1       2.656   6.644  -2.205  0.00  0.00    +0.000 A 
BRANCH  32  34
ATOM     34  C   UNL     1       0.919   6.000  -0.537  0.00  0.00    +0.419 C 
ATOM     35  F   UNL     1       1.465   4.725  -0.473  0.00  0.00    -0.166 F 
ATOM     36  F   UNL     1      -0.199   5.958  -1.333  0.00  0.00    -0.166 F 
ATOM     37  F   UNL     1       0.543   6.404   0.722  0.00  0.00    -0.166 F 
ENDBRANCH  32  34
BRANCH  30  38
ATOM     38  C   UNL     1       3.482  10.202  -0.144  0.00  0.00    +0.419 C 
ATOM     39  F   UNL     1       4.463  10.232   0.843  0.00  0.00    -0.166 F 
ATOM     40  F   UNL     1       2.278  10.548   0.415  0.00  0.00    -0.166 F 
ATOM     41  F   UNL     1       3.899  11.110  -1.110  0.00  0.00    -0.166 F 
ENDBRANCH  30  38
ENDBRANCH  25  28
ENDBRANCH   2  25
TORSDOF 6
ENDMDL
