MODEL 1
REMARK VINA RESULT:      -9.3      0.000      0.000
REMARK  Name = 
REMARK  2 active torsions:
REMARK  status: ('A' for Active; 'I' for Inactive)
REMARK    1  A    between atoms: C_2  and  S_4
REMARK    2  A    between atoms: S_4  and  C_5
REMARK                            x       y       z     vdW  Elec       q    Type
REMARK                         _______ _______ _______ _____ _____    ______ ____
ROOT
ATOM      1  C   UNL     1       0.110   5.511  -4.105  0.00  0.00    +0.059 C 
ATOM      2  C   UNL     1       1.535   5.493  -4.931  0.00  0.00    +0.011 C 
ATOM      3  C   UNL     1       2.085   6.981  -4.377  0.00  0.00    +0.004 C 
ATOM      4  C   UNL     1       3.316   7.088  -5.416  0.00  0.00    +0.000 C 
ATOM      5  C   UNL     1       3.047   6.740  -6.760  0.00  0.00    +0.003 C 
ATOM      6  C   UNL     1       2.151   5.709  -7.191  0.00  0.00    +0.034 C 
ATOM      7  C   UNL     1       1.518   5.733  -8.515  0.00  0.00    +0.136 C 
ATOM      8  O   UNL     1       2.382   5.077  -9.441  0.00  0.00    -0.456 OA
ATOM      9  C   UNL     1       2.256   5.636 -10.703  0.00  0.00    +0.317 C 
ATOM     10  O   UNL     1       2.974   5.348 -11.708  0.00  0.00    -0.250 OA
ATOM     11  C   UNL     1       1.214   6.706 -10.612  0.00  0.00    +0.113 C 
ATOM     12  C   UNL     1       1.248   7.058  -9.129  0.00  0.00    +0.052 C 
ATOM     13  C   UNL     1       0.262   4.906  -8.272  0.00  0.00    +0.040 C 
ATOM     14  C   UNL     1       0.140   4.730  -6.761  0.00  0.00    +0.004 C 
ATOM     15  C   UNL     1       2.470   4.277  -6.905  0.00  0.00    +0.003 C 
ATOM     16  C   UNL     1       2.982   6.290  -3.219  0.00  0.00    +0.016 C 
ATOM     17  C   UNL     1       2.052   5.335  -2.530  0.00  0.00    -0.041 C 
ATOM     18  C   UNL     1       2.557   4.884  -1.380  0.00  0.00    +0.029 C 
ATOM     19  C   UNL     1       3.962   5.240  -1.132  0.00  0.00    +0.173 C 
ATOM     20  C   UNL     1       4.429   6.645  -1.358  0.00  0.00    +0.069 C 
ATOM     21  O   UNL     1       4.741   4.461  -0.505  0.00  0.00    -0.291 OA
ATOM     22  C   UNL     1       4.124   5.551  -3.742  0.00  0.00    +0.004 C 
ATOM     23  C   UNL     1       3.431   7.350  -2.271  0.00  0.00    +0.012 C 
ATOM     24  C   UNL     1       0.845   6.121  -6.327  0.00  0.00    +0.004 C 
ATOM     25  C   UNL     1       0.660   5.795  -2.656  0.00  0.00    +0.033 C 
ENDROOT
BRANCH   1  26
ATOM     26  S   UNL     1      -0.504   7.251  -4.527  0.00  0.00    -0.078 S 
BRANCH  26  28
ATOM     27  C   UNL     1      -2.531   7.521  -5.024  0.00  0.00    +0.085 C 
ATOM     28  C   UNL     1      -2.256   7.305  -4.741  0.00  0.00    +0.199 C 
ATOM     29  O   UNL     1      -2.969   6.761  -3.900  0.00  0.00    -0.285 OA
ENDBRANCH  26  28
ENDBRANCH   1  26
TORSDOF 2
ENDMDL
MODEL 2
REMARK VINA RESULT:      -9.3      3.228      8.578
REMARK  Name = 
REMARK  2 active torsions:
REMARK  status: ('A' for Active; 'I' for Inactive)
REMARK    1  A    between atoms: C_2  and  S_4
REMARK    2  A    between atoms: S_4  and  C_5
REMARK                            x       y       z     vdW  Elec       q    Type
REMARK                         _______ _______ _______ _____ _____    ______ ____
ROOT
ATOM      1  C   UNL     1       4.669   5.551 -11.230  0.00  0.00    +0.059 C 
ATOM      2  C   UNL     1       3.241   5.383 -10.425  0.00  0.00    +0.011 C 
ATOM      3  C   UNL     1       2.516   6.765 -11.050  0.00  0.00    +0.004 C 
ATOM      4  C   UNL     1       1.261   6.754 -10.035  0.00  0.00    +0.000 C 
ATOM      5  C   UNL     1       1.545   6.497  -8.674  0.00  0.00    +0.003 C 
ATOM      6  C   UNL     1       2.557   5.607  -8.187  0.00  0.00    +0.034 C 
ATOM      7  C   UNL     1       3.153   5.765  -6.855  0.00  0.00    +0.136 C 
ATOM      8  O   UNL     1       2.361   5.041  -5.916  0.00  0.00    -0.456 OA
ATOM      9  C   UNL     1       2.389   5.662  -4.676  0.00  0.00    +0.317 C 
ATOM     10  O   UNL     1       1.694   5.325  -3.671  0.00  0.00    -0.250 OA
ATOM     11  C   UNL     1       3.287   6.853  -4.797  0.00  0.00    +0.113 C 
ATOM     12  C   UNL     1       3.239   7.138  -6.294  0.00  0.00    +0.052 C 
ATOM     13  C   UNL     1       4.510   5.098  -7.043  0.00  0.00    +0.040 C 
ATOM     14  C   UNL     1       4.684   4.879  -8.544  0.00  0.00    +0.004 C 
ATOM     15  C   UNL     1       2.429   4.137  -8.416  0.00  0.00    +0.003 C 
ATOM     16  C   UNL     1       1.740   5.919 -12.192  0.00  0.00    +0.016 C 
ATOM     17  C   UNL     1       2.798   5.065 -12.825  0.00  0.00    -0.041 C 
ATOM     18  C   UNL     1       2.379   4.507 -13.963  0.00  0.00    +0.029 C 
ATOM     19  C   UNL     1       0.945   4.668 -14.247  0.00  0.00    +0.173 C 
ATOM     20  C   UNL     1       0.298   6.010 -14.088  0.00  0.00    +0.069 C 
ATOM     21  O   UNL     1       0.285   3.771 -14.853  0.00  0.00    -0.291 OA
ATOM     22  C   UNL     1       0.691   5.060 -11.655  0.00  0.00    +0.004 C 
ATOM     23  C   UNL     1       1.178   6.873 -13.190  0.00  0.00    +0.012 C 
ATOM     24  C   UNL     1       3.817   6.150  -9.047  0.00  0.00    +0.004 C 
ATOM     25  C   UNL     1       4.117   5.704 -12.697  0.00  0.00    +0.033 C 
ENDROOT
BRANCH   1  26
ATOM     26  S   UNL     1       5.047   7.371 -10.872  0.00  0.00    -0.078 S 
BRANCH  26  28
ATOM     27  C   UNL     1       7.031   8.001 -11.174  0.00  0.00    +0.085 C 
ATOM     28  C   UNL     1       6.777   7.717 -10.936  0.00  0.00    +0.199 C 
ATOM     29  O   UNL     1       7.547   6.986 -10.316  0.00  0.00    -0.285 OA
ENDBRANCH  26  28
ENDBRANCH   1  26
TORSDOF 2
ENDMDL
MODEL 3
REMARK VINA RESULT:      -9.3      1.871      2.609
REMARK  Name = 
REMARK  2 active torsions:
REMARK  status: ('A' for Active; 'I' for Inactive)
REMARK    1  A    between atoms: C_2  and  S_4
REMARK    2  A    between atoms: S_4  and  C_5
REMARK                            x       y       z     vdW  Elec       q    Type
REMARK                         _______ _______ _______ _____ _____    ______ ____
ROOT
ATOM      1  C   UNL     1       0.448   4.680  -6.496  0.00  0.00    +0.059 C 
ATOM      2  C   UNL     1       1.643   5.266  -7.467  0.00  0.00    +0.011 C 
ATOM      3  C   UNL     1       1.805   6.744  -6.685  0.00  0.00    +0.004 C 
ATOM      4  C   UNL     1       2.742   7.415  -7.815  0.00  0.00    +0.000 C 
ATOM      5  C   UNL     1       2.359   7.215  -9.161  0.00  0.00    +0.003 C 
ATOM      6  C   UNL     1       1.757   6.028  -9.689  0.00  0.00    +0.034 C 
ATOM      7  C   UNL     1       0.925   6.051 -10.898  0.00  0.00    +0.136 C 
ATOM      8  O   UNL     1       1.770   5.873 -12.033  0.00  0.00    -0.456 OA
ATOM      9  C   UNL     1       1.260   6.552 -13.129  0.00  0.00    +0.317 C 
ATOM     10  O   UNL     1       1.842   6.681 -14.248  0.00  0.00    -0.250 OA
ATOM     11  C   UNL     1      -0.024   7.188 -12.699  0.00  0.00    +0.113 C 
ATOM     12  C   UNL     1       0.162   7.291 -11.189  0.00  0.00    +0.052 C 
ATOM     13  C   UNL     1       0.041   4.827 -10.688  0.00  0.00    +0.040 C 
ATOM     14  C   UNL     1       0.246   4.384  -9.241  0.00  0.00    +0.004 C 
ATOM     15  C   UNL     1       2.540   4.757  -9.745  0.00  0.00    +0.003 C 
ATOM     16  C   UNL     1       3.058   6.215  -5.806  0.00  0.00    +0.016 C 
ATOM     17  C   UNL     1       2.597   4.909  -5.227  0.00  0.00    -0.041 C 
ATOM     18  C   UNL     1       3.409   4.474  -4.261  0.00  0.00    +0.029 C 
ATOM     19  C   UNL     1       4.661   5.231  -4.109  0.00  0.00    +0.173 C 
ATOM     20  C   UNL     1       4.632   6.728  -4.092  0.00  0.00    +0.069 C 
ATOM     21  O   UNL     1       5.738   4.665  -3.751  0.00  0.00    -0.291 OA
ATOM     22  C   UNL     1       4.260   5.987  -6.599  0.00  0.00    +0.004 C 
ATOM     23  C   UNL     1       3.324   7.198  -4.718  0.00  0.00    +0.012 C 
ATOM     24  C   UNL     1       0.561   5.843  -8.614  0.00  0.00    +0.004 C 
ATOM     25  C   UNL     1       1.132   4.897  -5.093  0.00  0.00    +0.033 C 
ENDROOT
BRANCH   1  26
ATOM     26  S   UNL     1      -0.729   6.162  -6.476  0.00  0.00    -0.078 S 
BRANCH  26  28
ATOM     27  C   UNL     1      -2.776   5.703  -6.320  0.00  0.00    +0.085 C 
ATOM     28  C   UNL     1      -2.387   5.691  -6.095  0.00  0.00    +0.199 C 
ATOM     29  O   UNL     1      -2.654   5.357  -4.942  0.00  0.00    -0.285 OA
ENDBRANCH  26  28
ENDBRANCH   1  26
TORSDOF 2
ENDMDL
MODEL 4
REMARK VINA RESULT:      -8.5      1.723      1.979
REMARK  Name = 
REMARK  2 active torsions:
REMARK  status: ('A' for Active; 'I' for Inactive)
REMARK    1  A    between atoms: C_2  and  S_4
REMARK    2  A    between atoms: S_4  and  C_5
REMARK                            x       y       z     vdW  Elec       q    Type
REMARK                         _______ _______ _______ _____ _____    ______ ____
ROOT
ATOM      1  C   UNL     1       1.276   5.342  -3.639  0.00  0.00    +0.059 C 
ATOM      2  C   UNL     1       2.808   5.710  -4.119  0.00  0.00    +0.011 C 
ATOM      3  C   UNL     1       2.720   7.350  -3.765  0.00  0.00    +0.004 C 
ATOM      4  C   UNL     1       4.094   7.744  -4.515  0.00  0.00    +0.000 C 
ATOM      5  C   UNL     1       4.312   7.171  -5.789  0.00  0.00    +0.003 C 
ATOM      6  C   UNL     1       3.913   5.855  -6.190  0.00  0.00    +0.034 C 
ATOM      7  C   UNL     1       3.682   5.508  -7.597  0.00  0.00    +0.136 C 
ATOM      8  O   UNL     1       4.917   5.080  -8.167  0.00  0.00    -0.456 OA
ATOM      9  C   UNL     1       4.973   5.411  -9.512  0.00  0.00    +0.317 C 
ATOM     10  O   UNL     1       5.985   5.268 -10.262  0.00  0.00    -0.250 OA
ATOM     11  C   UNL     1       3.674   6.069  -9.860  0.00  0.00    +0.113 C 
ATOM     12  C   UNL     1       3.203   6.582  -8.504  0.00  0.00    +0.052 C 
ATOM     13  C   UNL     1       2.712   4.339  -7.472  0.00  0.00    +0.040 C 
ATOM     14  C   UNL     1       2.248   4.312  -6.018  0.00  0.00    +0.004 C 
ATOM     15  C   UNL     1       4.556   4.660  -5.565  0.00  0.00    +0.003 C 
ATOM     16  C   UNL     1       3.437   7.144  -2.328  0.00  0.00    +0.016 C 
ATOM     17  C   UNL     1       2.686   6.018  -1.680  0.00  0.00    -0.041 C 
ATOM     18  C   UNL     1       2.975   5.902  -0.382  0.00  0.00    +0.029 C 
ATOM     19  C   UNL     1       4.090   6.739   0.087  0.00  0.00    +0.173 C 
ATOM     20  C   UNL     1       4.159   8.182  -0.307  0.00  0.00    +0.069 C 
ATOM     21  O   UNL     1       4.868   6.348   1.008  0.00  0.00    -0.291 OA
ATOM     22  C   UNL     1       4.845   6.778  -2.436  0.00  0.00    +0.004 C 
ATOM     23  C   UNL     1       3.279   8.396  -1.534  0.00  0.00    +0.012 C 
ATOM     24  C   UNL     1       2.363   5.899  -5.726  0.00  0.00    +0.004 C 
ATOM     25  C   UNL     1       1.308   5.962  -2.191  0.00  0.00    +0.033 C 
ENDROOT
BRANCH   1  26
ATOM     26  S   UNL     1       0.308   6.709  -4.519  0.00  0.00    -0.078 S 
BRANCH  26  28
ATOM     27  C   UNL     1      -1.421   6.121  -5.565  0.00  0.00    +0.085 C 
ATOM     28  C   UNL     1      -1.234   6.129  -5.156  0.00  0.00    +0.199 C 
ATOM     29  O   UNL     1      -2.098   5.762  -4.362  0.00  0.00    -0.285 OA
ENDBRANCH  26  28
ENDBRANCH   1  26
TORSDOF 2
ENDMDL
MODEL 5
REMARK VINA RESULT:      -8.2      2.833      7.595
REMARK  Name = 
REMARK  2 active torsions:
REMARK  status: ('A' for Active; 'I' for Inactive)
REMARK    1  A    between atoms: C_2  and  S_4
REMARK    2  A    between atoms: S_4  and  C_5
REMARK                            x       y       z     vdW  Elec       q    Type
REMARK                         _______ _______ _______ _____ _____    ______ ____
ROOT
ATOM      1  C   UNL     1       4.300   4.634  -8.447  0.00  0.00    +0.059 C 
ATOM      2  C   UNL     1       3.093   5.273  -7.526  0.00  0.00    +0.011 C 
ATOM      3  C   UNL     1       2.919   6.690  -8.413  0.00  0.00    +0.004 C 
ATOM      4  C   UNL     1       1.966   7.428  -7.340  0.00  0.00    +0.000 C 
ATOM      5  C   UNL     1       2.343   7.329  -5.980  0.00  0.00    +0.003 C 
ATOM      6  C   UNL     1       2.956   6.190  -5.365  0.00  0.00    +0.034 C 
ATOM      7  C   UNL     1       3.780   6.310  -4.157  0.00  0.00    +0.136 C 
ATOM      8  O   UNL     1       2.930   6.204  -3.017  0.00  0.00    -0.456 OA
ATOM      9  C   UNL     1       3.425   6.965  -1.969  0.00  0.00    +0.317 C 
ATOM     10  O   UNL     1       2.834   7.167  -0.865  0.00  0.00    -0.250 OA
ATOM     11  C   UNL     1       4.704   7.585  -2.437  0.00  0.00    +0.113 C 
ATOM     12  C   UNL     1       4.527   7.577  -3.951  0.00  0.00    +0.052 C 
ATOM     13  C   UNL     1       4.680   5.085  -4.274  0.00  0.00    +0.040 C 
ATOM     14  C   UNL     1       4.489   4.538  -5.686  0.00  0.00    +0.004 C 
ATOM     15  C   UNL     1       2.188   4.917  -5.223  0.00  0.00    +0.003 C 
ATOM     16  C   UNL     1       1.678   6.083  -9.259  0.00  0.00    +0.016 C 
ATOM     17  C   UNL     1       2.157   4.746  -9.741  0.00  0.00    -0.041 C 
ATOM     18  C   UNL     1       1.356   4.233 -10.677  0.00  0.00    +0.029 C 
ATOM     19  C   UNL     1       0.097   4.961 -10.890  0.00  0.00    +0.173 C 
ATOM     20  C   UNL     1       0.108   6.453 -11.013  0.00  0.00    +0.069 C 
ATOM     21  O   UNL     1      -0.971   4.357 -11.212  0.00  0.00    -0.291 OA
ATOM     22  C   UNL     1       0.473   5.898  -8.458  0.00  0.00    +0.004 C 
ATOM     23  C   UNL     1       1.407   6.983 -10.416  0.00  0.00    +0.012 C 
ATOM     24  C   UNL     1       4.161   5.943  -6.418  0.00  0.00    +0.004 C 
ATOM     25  C   UNL     1       3.623   4.741  -9.865  0.00  0.00    +0.033 C 
ENDROOT
BRANCH   1  26
ATOM     26  S   UNL     1       5.460   6.125  -8.566  0.00  0.00    -0.078 S 
BRANCH  26  28
ATOM     27  C   UNL     1       7.355   5.705  -9.378  0.00  0.00    +0.085 C 
ATOM     28  C   UNL     1       6.923   5.760  -9.486  0.00  0.00    +0.199 C 
ATOM     29  O   UNL     1       6.861   5.759 -10.714  0.00  0.00    -0.285 OA
ENDBRANCH  26  28
ENDBRANCH   1  26
TORSDOF 2
ENDMDL
MODEL 6
REMARK VINA RESULT:      -7.9      1.926      6.497
REMARK  Name = 
REMARK  2 active torsions:
REMARK  status: ('A' for Active; 'I' for Inactive)
REMARK    1  A    between atoms: C_2  and  S_4
REMARK    2  A    between atoms: S_4  and  C_5
REMARK                            x       y       z     vdW  Elec       q    Type
REMARK                         _______ _______ _______ _____ _____    ______ ____
ROOT
ATOM      1  C   UNL     1       1.362   6.782  -7.146  0.00  0.00    +0.059 C 
ATOM      2  C   UNL     1       2.849   6.525  -6.486  0.00  0.00    +0.011 C 
ATOM      3  C   UNL     1       3.113   5.031  -7.209  0.00  0.00    +0.004 C 
ATOM      4  C   UNL     1       4.411   4.659  -6.326  0.00  0.00    +0.000 C 
ATOM      5  C   UNL     1       4.333   4.918  -4.938  0.00  0.00    +0.003 C 
ATOM      6  C   UNL     1       3.649   6.021  -4.333  0.00  0.00    +0.034 C 
ATOM      7  C   UNL     1       3.156   5.965  -2.952  0.00  0.00    +0.136 C 
ATOM      8  O   UNL     1       4.196   6.407  -2.082  0.00  0.00    -0.456 OA
ATOM      9  C   UNL     1       4.116   5.758  -0.859  0.00  0.00    +0.317 C 
ATOM     10  O   UNL     1       4.965   5.850   0.078  0.00  0.00    -0.250 OA
ATOM     11  C   UNL     1       2.921   4.858  -0.913  0.00  0.00    +0.113 C 
ATOM     12  C   UNL     1       2.754   4.641  -2.413  0.00  0.00    +0.052 C 
ATOM     13  C   UNL     1       2.019   6.979  -2.988  0.00  0.00    +0.040 C 
ATOM     14  C   UNL     1       1.774   7.306  -4.459  0.00  0.00    +0.004 C 
ATOM     15  C   UNL     1       4.147   7.413  -4.543  0.00  0.00    +0.003 C 
ATOM     16  C   UNL     1       3.982   5.692  -8.405  0.00  0.00    +0.016 C 
ATOM     17  C   UNL     1       3.140   6.826  -8.912  0.00  0.00    -0.041 C 
ATOM     18  C   UNL     1       3.589   7.305 -10.074  0.00  0.00    +0.029 C 
ATOM     19  C   UNL     1       4.894   6.780 -10.504  0.00  0.00    +0.173 C 
ATOM     20  C   UNL     1       5.166   5.309 -10.438  0.00  0.00    +0.069 C 
ATOM     21  O   UNL     1       5.714   7.496 -11.154  0.00  0.00    -0.291 OA
ATOM     22  C   UNL     1       5.268   6.213  -7.960  0.00  0.00    +0.004 C 
ATOM     23  C   UNL     1       4.171   4.671  -9.475  0.00  0.00    +0.012 C 
ATOM     24  C   UNL     1       2.216   5.876  -5.073  0.00  0.00    +0.004 C 
ATOM     25  C   UNL     1       1.715   6.556  -8.665  0.00  0.00    +0.033 C 
ENDROOT
BRANCH   1  26
ATOM     26  S   UNL     1       0.540   5.114  -6.790  0.00  0.00    -0.078 S 
BRANCH  26  28
ATOM     27  C   UNL     1      -1.559   5.263  -6.798  0.00  0.00    +0.085 C 
ATOM     28  C   UNL     1      -1.199   5.271  -6.528  0.00  0.00    +0.199 C 
ATOM     29  O   UNL     1      -1.600   5.592  -5.411  0.00  0.00    -0.285 OA
ENDBRANCH  26  28
ENDBRANCH   1  26
TORSDOF 2
ENDMDL
MODEL 7
REMARK VINA RESULT:      -7.8      2.765      4.606
REMARK  Name = 
REMARK  2 active torsions:
REMARK  status: ('A' for Active; 'I' for Inactive)
REMARK    1  A    between atoms: C_2  and  S_4
REMARK    2  A    between atoms: S_4  and  C_5
REMARK                            x       y       z     vdW  Elec       q    Type
REMARK                         _______ _______ _______ _____ _____    ______ ____
ROOT
ATOM      1  C   UNL     1      -0.119   5.096  -8.427  0.00  0.00    +0.059 C 
ATOM      2  C   UNL     1       1.213   5.388  -7.503  0.00  0.00    +0.011 C 
ATOM      3  C   UNL     1       0.804   6.964  -7.088  0.00  0.00    +0.004 C 
ATOM      4  C   UNL     1       2.240   7.333  -6.449  0.00  0.00    +0.000 C 
ATOM      5  C   UNL     1       3.383   6.925  -7.174  0.00  0.00    +0.003 C 
ATOM      6  C   UNL     1       3.500   5.719  -7.937  0.00  0.00    +0.034 C 
ATOM      7  C   UNL     1       4.446   5.594  -9.052  0.00  0.00    +0.136 C 
ATOM      8  O   UNL     1       5.695   5.139  -8.536  0.00  0.00    -0.456 OA
ATOM      9  C   UNL     1       6.745   5.648  -9.286  0.00  0.00    +0.317 C 
ATOM     10  O   UNL     1       7.975   5.519  -9.008  0.00  0.00    -0.250 OA
ATOM     11  C   UNL     1       6.147   6.462 -10.390  0.00  0.00    +0.113 C 
ATOM     12  C   UNL     1       4.781   6.822  -9.817  0.00  0.00    +0.052 C 
ATOM     13  C   UNL     1       3.786   4.511  -9.897  0.00  0.00    +0.040 C 
ATOM     14  C   UNL     1       2.377   4.323  -9.342  0.00  0.00    +0.004 C 
ATOM     15  C   UNL     1       3.493   4.396  -7.244  0.00  0.00    +0.003 C 
ATOM     16  C   UNL     1       0.173   6.496  -5.672  0.00  0.00    +0.016 C 
ATOM     17  C   UNL     1      -0.749   5.364  -6.016  0.00  0.00    -0.041 C 
ATOM     18  C   UNL     1      -1.552   5.043  -4.999  0.00  0.00    +0.029 C 
ATOM     19  C   UNL     1      -1.238   5.702  -3.723  0.00  0.00    +0.173 C 
ATOM     20  C   UNL     1      -0.963   7.174  -3.689  0.00  0.00    +0.069 C 
ATOM     21  O   UNL     1      -1.425   5.119  -2.612  0.00  0.00    -0.291 OA
ATOM     22  C   UNL     1       1.176   6.024  -4.724  0.00  0.00    +0.004 C 
ATOM     23  C   UNL     1      -0.598   7.635  -5.096  0.00  0.00    +0.012 C 
ATOM     24  C   UNL     1       2.148   5.838  -8.821  0.00  0.00    +0.004 C 
ATOM     25  C   UNL     1      -1.238   5.504  -7.396  0.00  0.00    +0.033 C 
ENDROOT
BRANCH   1  26
ATOM     26  S   UNL     1      -0.133   6.654  -9.501  0.00  0.00    -0.078 S 
BRANCH  26  28
ATOM     27  C   UNL     1      -0.240   6.520 -11.599  0.00  0.00    +0.085 C 
ATOM     28  C   UNL     1      -0.200   6.274 -11.225  0.00  0.00    +0.199 C 
ATOM     29  O   UNL     1      -0.282   5.096 -11.565  0.00  0.00    -0.285 OA
ENDBRANCH  26  28
ENDBRANCH   1  26
TORSDOF 2
ENDMDL
MODEL 8
REMARK VINA RESULT:      -7.8      2.604      6.661
REMARK  Name = 
REMARK  2 active torsions:
REMARK  status: ('A' for Active; 'I' for Inactive)
REMARK    1  A    between atoms: C_2  and  S_4
REMARK    2  A    between atoms: S_4  and  C_5
REMARK                            x       y       z     vdW  Elec       q    Type
REMARK                         _______ _______ _______ _____ _____    ______ ____
ROOT
ATOM      1  C   UNL     1       4.708   5.017  -7.275  0.00  0.00    +0.059 C 
ATOM      2  C   UNL     1       3.366   5.317  -8.182  0.00  0.00    +0.011 C 
ATOM      3  C   UNL     1       3.776   6.894  -8.597  0.00  0.00    +0.004 C 
ATOM      4  C   UNL     1       2.334   7.271  -9.216  0.00  0.00    +0.000 C 
ATOM      5  C   UNL     1       1.198   6.865  -8.478  0.00  0.00    +0.003 C 
ATOM      6  C   UNL     1       1.086   5.656  -7.718  0.00  0.00    +0.034 C 
ATOM      7  C   UNL     1       0.153   5.531  -6.591  0.00  0.00    +0.136 C 
ATOM      8  O   UNL     1      -1.104   5.084  -7.093  0.00  0.00    -0.456 OA
ATOM      9  C   UNL     1      -2.142   5.595  -6.329  0.00  0.00    +0.317 C 
ATOM     10  O   UNL     1      -3.377   5.472  -6.592  0.00  0.00    -0.250 OA
ATOM     11  C   UNL     1      -1.527   6.402  -5.229  0.00  0.00    +0.113 C 
ATOM     12  C   UNL     1      -0.167   6.759  -5.819  0.00  0.00    +0.052 C 
ATOM     13  C   UNL     1       0.819   4.443  -5.758  0.00  0.00    +0.040 C 
ATOM     14  C   UNL     1       2.221   4.252  -6.331  0.00  0.00    +0.004 C 
ATOM     15  C   UNL     1       1.079   4.335  -8.415  0.00  0.00    +0.003 C 
ATOM     16  C   UNL     1       4.387   6.428 -10.022  0.00  0.00    +0.016 C 
ATOM     17  C   UNL     1       5.309   5.290  -9.693  0.00  0.00    -0.041 C 
ATOM     18  C   UNL     1       6.098   4.969 -10.721  0.00  0.00    +0.029 C 
ATOM     19  C   UNL     1       5.770   5.634 -11.991  0.00  0.00    +0.173 C 
ATOM     20  C   UNL     1       5.502   7.107 -12.017  0.00  0.00    +0.069 C 
ATOM     21  O   UNL     1       5.941   5.053 -13.106  0.00  0.00    -0.291 OA
ATOM     22  C   UNL     1       3.371   5.962 -10.958  0.00  0.00    +0.004 C 
ATOM     23  C   UNL     1       5.156   7.565 -10.604  0.00  0.00    +0.012 C 
ATOM     24  C   UNL     1       2.449   5.767  -6.850  0.00  0.00    +0.004 C 
ATOM     25  C   UNL     1       5.816   5.424  -8.319  0.00  0.00    +0.033 C 
ENDROOT
BRANCH   1  26
ATOM     26  S   UNL     1       4.743   6.571  -6.196  0.00  0.00    -0.078 S 
BRANCH  26  28
ATOM     27  C   UNL     1       5.025   6.433  -4.116  0.00  0.00    +0.085 C 
ATOM     28  C   UNL     1       4.942   6.189  -4.483  0.00  0.00    +0.199 C 
ATOM     29  O   UNL     1       5.002   5.008  -4.147  0.00  0.00    -0.285 OA
ENDBRANCH  26  28
ENDBRANCH   1  26
TORSDOF 2
ENDMDL
MODEL 9
REMARK VINA RESULT:      -7.6      1.960      6.298
REMARK  Name = 
REMARK  2 active torsions:
REMARK  status: ('A' for Active; 'I' for Inactive)
REMARK    1  A    between atoms: C_2  and  S_4
REMARK    2  A    between atoms: S_4  and  C_5
REMARK                            x       y       z     vdW  Elec       q    Type
REMARK                         _______ _______ _______ _____ _____    ______ ____
ROOT
ATOM      1  C   UNL     1       3.849   5.812  -4.786  0.00  0.00    +0.059 C 
ATOM      2  C   UNL     1       2.378   5.730  -5.522  0.00  0.00    +0.011 C 
ATOM      3  C   UNL     1       2.494   7.202  -6.325  0.00  0.00    +0.004 C 
ATOM      4  C   UNL     1       0.948   7.250  -6.785  0.00  0.00    +0.000 C 
ATOM      5  C   UNL     1      -0.017   6.897  -5.814  0.00  0.00    +0.003 C 
ATOM      6  C   UNL     1       0.146   5.896  -4.802  0.00  0.00    +0.034 C 
ATOM      7  C   UNL     1      -0.615   5.930  -3.547  0.00  0.00    +0.136 C 
ATOM      8  O   UNL     1      -1.843   5.231  -3.744  0.00  0.00    -0.456 OA
ATOM      9  C   UNL     1      -2.846   5.780  -2.960  0.00  0.00    +0.317 C 
ATOM     10  O   UNL     1      -4.070   5.454  -3.000  0.00  0.00    -0.250 OA
ATOM     11  C   UNL     1      -2.230   6.891  -2.167  0.00  0.00    +0.113 C 
ATOM     12  C   UNL     1      -1.020   7.257  -3.019  0.00  0.00    +0.052 C 
ATOM     13  C   UNL     1       0.302   5.154  -2.609  0.00  0.00    +0.040 C 
ATOM     14  C   UNL     1       1.637   5.001  -3.333  0.00  0.00    +0.004 C 
ATOM     15  C   UNL     1       0.253   4.457  -5.188  0.00  0.00    +0.003 C 
ATOM     16  C   UNL     1       2.992   6.490  -7.692  0.00  0.00    +0.016 C 
ATOM     17  C   UNL     1       4.106   5.580  -7.268  0.00  0.00    -0.041 C 
ATOM     18  C   UNL     1       4.805   5.122  -8.310  0.00  0.00    +0.029 C 
ATOM     19  C   UNL     1       4.231   5.426  -9.629  0.00  0.00    +0.173 C 
ATOM     20  C   UNL     1       3.743   6.810  -9.931  0.00  0.00    +0.069 C 
ATOM     21  O   UNL     1       4.351   4.625 -10.604  0.00  0.00    -0.291 OA
ATOM     22  C   UNL     1       1.951   5.702  -8.340  0.00  0.00    +0.004 C 
ATOM     23  C   UNL     1       3.506   7.542  -8.615  0.00  0.00    +0.012 C 
ATOM     24  C   UNL     1       1.571   6.368  -4.196  0.00  0.00    +0.004 C 
ATOM     25  C   UNL     1       4.750   6.091  -6.048  0.00  0.00    +0.033 C 
ENDROOT
BRANCH   1  26
ATOM     26  S   UNL     1       3.780   7.569  -4.086  0.00  0.00    -0.078 S 
BRANCH  26  28
ATOM     27  C   UNL     1       4.614   7.371  -2.164  0.00  0.00    +0.085 C 
ATOM     28  C   UNL     1       4.375   7.648  -2.425  0.00  0.00    +0.199 C 
ATOM     29  O   UNL     1       4.000   8.575  -1.709  0.00  0.00    -0.285 OA
ENDBRANCH  26  28
ENDBRANCH   1  26
TORSDOF 2
ENDMDL
