MODEL 1
REMARK VINA RESULT:      -9.7      0.000      0.000
REMARK  Name = 
REMARK  5 active torsions:
REMARK  status: ('A' for Active; 'I' for Inactive)
REMARK    1  A    between atoms: C_4  and  C_5
REMARK    2  A    between atoms: C_15  and  C_16
REMARK    3  A    between atoms: C_16  and  C_18
REMARK    4  A    between atoms: C_19  and  C_20
REMARK    5  A    between atoms: C_20  and  C_22
REMARK                            x       y       z     vdW  Elec       q    Type
REMARK                         _______ _______ _______ _____ _____    ______ ____
ROOT
ATOM      1  C   UNL     1       3.497   6.420  -4.949  0.00  0.00    -0.009 C 
ATOM      2  C   UNL     1       2.880   6.479  -6.120  0.00  0.00    -0.045 C 
ATOM      3  C   UNL     1       3.230   5.220  -7.103  0.00  0.00    +0.018 C 
ATOM      4  C   UNL     1       4.614   5.942  -7.662  0.00  0.00    +0.004 C 
ATOM      5  C   UNL     1       4.722   5.164  -8.867  0.00  0.00    +0.001 C 
ATOM      6  C   UNL     1       3.230   5.039  -9.521  0.00  0.00    +0.004 C 
ATOM      7  C   UNL     1       2.457   5.925  -8.389  0.00  0.00    +0.004 C 
ATOM      8  C   UNL     1       2.824   7.308  -8.441  0.00  0.00    +0.000 C 
ATOM      9  C   UNL     1       1.078   5.470  -8.264  0.00  0.00    +0.001 C 
ATOM     10  C   UNL     1       0.637   5.645  -6.817  0.00  0.00    +0.004 C 
ATOM     11  C   UNL     1       1.411   6.777  -6.147  0.00  0.00    +0.022 C 
ENDROOT
BRANCH   1  21
ATOM     12  C   UNL     1       3.954   4.694  -3.205  0.00  0.00    -0.002 C 
ATOM     13  C   UNL     1       4.009   5.737  -2.400  0.00  0.00    +0.004 C 
ATOM     14  C   UNL     1       3.630   5.309  -0.838  0.00  0.00    +0.176 C 
ATOM     15  O   UNL     1       4.816   4.307  -0.789  0.00  0.00    -0.218 OA
ATOM     16  C   UNL     1       4.554   6.527  -0.131  0.00  0.00    +0.071 C 
ATOM     17  C   UNL     1       4.323   7.772  -1.231  0.00  0.00    +0.159 C 
ATOM     18  O   UNL     1       4.056   8.797  -0.104  0.00  0.00    -0.223 OA
ATOM     19  C   UNL     1       2.668   7.474  -1.398  0.00  0.00    +0.059 C 
ATOM     20  C   UNL     1       2.883   6.674  -2.658  0.00  0.00    -0.021 C 
ATOM     21  C   UNL     1       2.878   7.204  -3.868  0.00  0.00    -0.005 C 
ENDBRANCH   1  21
BRANCH   6  22
ATOM     22  C   UNL     1       3.566   6.370 -10.581  0.00  0.00    +0.022 C 
ATOM     23  C   UNL     1       2.290   5.969 -11.535  0.00  0.00    +0.005 C 
BRANCH  22  24
ATOM     24  C   UNL     1       4.630   5.478 -11.385  0.00  0.00    -0.029 C 
ATOM     25  C   UNL     1       5.348   5.988 -12.289  0.00  0.00    +0.002 C 
BRANCH  25  26
ATOM     26  C   UNL     1       6.617   5.104 -12.869  0.00  0.00    +0.174 C 
ATOM     27  O   UNL     1       6.478   5.610 -14.339  0.00  0.00    -0.218 OA
BRANCH  26  28
ATOM     28  C   UNL     1       7.703   6.320 -12.425  0.00  0.00    +0.035 C 
ATOM     29  C   UNL     1       8.056   6.232 -10.997  0.00  0.00    +0.003 C 
ATOM     30  C   UNL     1       9.042   5.868 -12.144  0.00  0.00    +0.003 C 
ENDBRANCH  26  28
ENDBRANCH  25  26
ENDBRANCH  22  24
ENDBRANCH   6  22
TORSDOF 5
ENDMDL
MODEL 2
REMARK VINA RESULT:      -9.4      3.074      3.941
REMARK  Name = 
REMARK  5 active torsions:
REMARK  status: ('A' for Active; 'I' for Inactive)
REMARK    1  A    between atoms: C_4  and  C_5
REMARK    2  A    between atoms: C_15  and  C_16
REMARK    3  A    between atoms: C_16  and  C_18
REMARK    4  A    between atoms: C_19  and  C_20
REMARK    5  A    between atoms: C_20  and  C_22
REMARK                            x       y       z     vdW  Elec       q    Type
REMARK                         _______ _______ _______ _____ _____    ______ ____
ROOT
ATOM      1  C   UNL     1      -0.191   6.607  -5.723  0.00  0.00    -0.009 C 
ATOM      2  C   UNL     1       0.511   5.907  -6.603  0.00  0.00    -0.045 C 
ATOM      3  C   UNL     1       2.088   6.333  -6.664  0.00  0.00    +0.018 C 
ATOM      4  C   UNL     1       1.791   7.581  -7.714  0.00  0.00    +0.004 C 
ATOM      5  C   UNL     1       3.136   7.697  -8.207  0.00  0.00    +0.001 C 
ATOM      6  C   UNL     1       3.711   6.188  -8.460  0.00  0.00    +0.004 C 
ATOM      7  C   UNL     1       2.358   5.396  -8.004  0.00  0.00    +0.004 C 
ATOM      8  C   UNL     1       1.280   5.595  -8.924  0.00  0.00    +0.000 C 
ATOM      9  C   UNL     1       2.711   4.092  -7.457  0.00  0.00    +0.001 C 
ATOM     10  C   UNL     1       1.709   3.735  -6.367  0.00  0.00    +0.004 C 
ATOM     11  C   UNL     1       0.366   4.415  -6.618  0.00  0.00    +0.022 C 
ENDROOT
BRANCH   1  21
ATOM     12  C   UNL     1       0.629   6.280  -3.389  0.00  0.00    -0.002 C 
ATOM     13  C   UNL     1      -0.648   6.407  -3.082  0.00  0.00    +0.004 C 
ATOM     14  C   UNL     1      -1.002   5.626  -1.658  0.00  0.00    +0.176 C 
ATOM     15  O   UNL     1       0.009   6.511  -0.880  0.00  0.00    -0.218 OA
ATOM     16  C   UNL     1      -2.287   6.640  -1.257  0.00  0.00    +0.071 C 
ATOM     17  C   UNL     1      -2.935   6.936  -2.775  0.00  0.00    +0.159 C 
ATOM     18  O   UNL     1      -4.377   6.686  -2.272  0.00  0.00    -0.223 OA
ATOM     19  C   UNL     1      -2.796   5.328  -3.276  0.00  0.00    +0.059 C 
ATOM     20  C   UNL     1      -1.502   5.608  -4.000  0.00  0.00    -0.021 C 
ATOM     21  C   UNL     1      -1.440   5.976  -5.266  0.00  0.00    -0.005 C 
ENDBRANCH   1  21
BRANCH   6  22
ATOM     22  C   UNL     1       3.293   6.292 -10.139  0.00  0.00    +0.022 C 
ATOM     23  C   UNL     1       3.988   4.832 -10.431  0.00  0.00    +0.005 C 
BRANCH  22  24
ATOM     24  C   UNL     1       4.620   7.143 -10.431  0.00  0.00    -0.029 C 
ATOM     25  C   UNL     1       5.544   6.672 -11.151  0.00  0.00    +0.002 C 
BRANCH  25  26
ATOM     26  C   UNL     1       6.738   7.695 -11.656  0.00  0.00    +0.174 C 
ATOM     27  O   UNL     1       7.712   7.361 -10.483  0.00  0.00    -0.218 OA
BRANCH  26  28
ATOM     28  C   UNL     1       7.366   6.503 -12.676  0.00  0.00    +0.035 C 
ATOM     29  C   UNL     1       8.680   6.030 -12.207  0.00  0.00    +0.003 C 
ATOM     30  C   UNL     1       7.385   5.174 -12.121  0.00  0.00    +0.003 C 
ENDBRANCH  26  28
ENDBRANCH  25  26
ENDBRANCH  22  24
ENDBRANCH   6  22
TORSDOF 5
ENDMDL
MODEL 3
REMARK VINA RESULT:      -9.3      2.649      3.548
REMARK  Name = 
REMARK  5 active torsions:
REMARK  status: ('A' for Active; 'I' for Inactive)
REMARK    1  A    between atoms: C_4  and  C_5
REMARK    2  A    between atoms: C_15  and  C_16
REMARK    3  A    between atoms: C_16  and  C_18
REMARK    4  A    between atoms: C_19  and  C_20
REMARK    5  A    between atoms: C_20  and  C_22
REMARK                            x       y       z     vdW  Elec       q    Type
REMARK                         _______ _______ _______ _____ _____    ______ ____
ROOT
ATOM      1  C   UNL     1      -0.055   5.068  -3.117  0.00  0.00    -0.009 C 
ATOM      2  C   UNL     1      -0.184   5.562  -4.340  0.00  0.00    -0.045 C 
ATOM      3  C   UNL     1       0.573   4.674  -5.484  0.00  0.00    +0.018 C 
ATOM      4  C   UNL     1       2.029   5.417  -5.209  0.00  0.00    +0.004 C 
ATOM      5  C   UNL     1       2.623   5.073  -6.472  0.00  0.00    +0.001 C 
ATOM      6  C   UNL     1       1.499   5.301  -7.636  0.00  0.00    +0.004 C 
ATOM      7  C   UNL     1       0.313   5.827  -6.646  0.00  0.00    +0.004 C 
ATOM      8  C   UNL     1       0.605   7.112  -6.088  0.00  0.00    +0.000 C 
ATOM      9  C   UNL     1      -0.987   5.477  -7.206  0.00  0.00    +0.001 C 
ATOM     10  C   UNL     1      -1.952   5.203  -6.060  0.00  0.00    +0.004 C 
ATOM     11  C   UNL     1      -1.546   5.978  -4.810  0.00  0.00    +0.022 C 
ENDROOT
BRANCH   1  21
ATOM     12  C   UNL     1       1.584   5.338  -1.255  0.00  0.00    -0.002 C 
ATOM     13  C   UNL     1       0.743   6.270  -0.850  0.00  0.00    +0.004 C 
ATOM     14  C   UNL     1       0.845   6.494   0.795  0.00  0.00    +0.176 C 
ATOM     15  O   UNL     1       2.344   6.885   0.684  0.00  0.00    -0.218 OA
ATOM     16  C   UNL     1       0.361   8.107   0.747  0.00  0.00    +0.071 C 
ATOM     17  C   UNL     1      -0.769   8.056  -0.492  0.00  0.00    +0.159 C 
ATOM     18  O   UNL     1      -1.786   8.891   0.321  0.00  0.00    -0.223 OA
ATOM     19  C   UNL     1      -1.468   6.616   0.047  0.00  0.00    +0.059 C 
ATOM     20  C   UNL     1      -0.664   5.795  -0.929  0.00  0.00    -0.021 C 
ATOM     21  C   UNL     1      -1.075   5.502  -2.149  0.00  0.00    -0.005 C 
ENDBRANCH   1  21
BRANCH   6  22
ATOM     22  C   UNL     1       2.148   6.871  -7.978  0.00  0.00    +0.022 C 
ATOM     23  C   UNL     1       1.355   6.917  -9.417  0.00  0.00    +0.005 C 
BRANCH  22  24
ATOM     24  C   UNL     1       3.482   6.207  -8.571  0.00  0.00    -0.029 C 
ATOM     25  C   UNL     1       3.919   6.539  -9.707  0.00  0.00    +0.002 C 
BRANCH  25  26
ATOM     26  C   UNL     1       5.437   6.049 -10.133  0.00  0.00    +0.174 C 
ATOM     27  O   UNL     1       4.974   5.228 -11.377  0.00  0.00    -0.218 OA
BRANCH  26  28
ATOM     28  C   UNL     1       5.681   7.472 -11.012  0.00  0.00    +0.035 C 
ATOM     29  C   UNL     1       7.086   7.910 -10.950  0.00  0.00    +0.003 C 
ATOM     30  C   UNL     1       6.434   7.314 -12.230  0.00  0.00    +0.003 C 
ENDBRANCH  26  28
ENDBRANCH  25  26
ENDBRANCH  22  24
ENDBRANCH   6  22
TORSDOF 5
ENDMDL
MODEL 4
REMARK VINA RESULT:      -9.2      3.386      9.430
REMARK  Name = 
REMARK  5 active torsions:
REMARK  status: ('A' for Active; 'I' for Inactive)
REMARK    1  A    between atoms: C_4  and  C_5
REMARK    2  A    between atoms: C_15  and  C_16
REMARK    3  A    between atoms: C_16  and  C_18
REMARK    4  A    between atoms: C_19  and  C_20
REMARK    5  A    between atoms: C_20  and  C_22
REMARK                            x       y       z     vdW  Elec       q    Type
REMARK                         _______ _______ _______ _____ _____    ______ ____
ROOT
ATOM      1  C   UNL     1       4.811   6.366  -9.683  0.00  0.00    -0.009 C 
ATOM      2  C   UNL     1       4.116   5.758  -8.733  0.00  0.00    -0.045 C 
ATOM      3  C   UNL     1       2.534   6.168  -8.721  0.00  0.00    +0.018 C 
ATOM      4  C   UNL     1       2.813   7.526  -7.812  0.00  0.00    +0.004 C 
ATOM      5  C   UNL     1       1.465   7.678  -7.335  0.00  0.00    +0.001 C 
ATOM      6  C   UNL     1       0.908   6.199  -6.922  0.00  0.00    +0.004 C 
ATOM      7  C   UNL     1       2.272   5.379  -7.288  0.00  0.00    +0.004 C 
ATOM      8  C   UNL     1       3.345   5.689  -6.393  0.00  0.00    +0.000 C 
ATOM      9  C   UNL     1       1.936   4.019  -7.690  0.00  0.00    +0.001 C 
ATOM     10  C   UNL     1       2.944   3.558  -8.734  0.00  0.00    +0.004 C 
ATOM     11  C   UNL     1       4.278   4.278  -8.557  0.00  0.00    +0.022 C 
ENDROOT
BRANCH   1  21
ATOM     12  C   UNL     1       4.125   6.070 -12.065  0.00  0.00    -0.002 C 
ATOM     13  C   UNL     1       5.421   6.166 -12.294  0.00  0.00    +0.004 C 
ATOM     14  C   UNL     1       5.840   5.380 -13.698  0.00  0.00    +0.176 C 
ATOM     15  O   UNL     1       4.900   6.295 -14.531  0.00  0.00    -0.218 OA
ATOM     16  C   UNL     1       7.171   6.363 -14.016  0.00  0.00    +0.071 C 
ATOM     17  C   UNL     1       7.735   6.635 -12.460  0.00  0.00    +0.159 C 
ATOM     18  O   UNL     1       9.197   6.351 -12.876  0.00  0.00    -0.223 OA
ATOM     19  C   UNL     1       7.525   5.030 -11.977  0.00  0.00    +0.059 C 
ATOM     20  C   UNL     1       6.198   5.340 -11.331  0.00  0.00    -0.021 C 
ATOM     21  C   UNL     1       6.068   5.705 -10.068  0.00  0.00    -0.005 C 
ENDBRANCH   1  21
BRANCH   6  22
ATOM     22  C   UNL     1       1.321   6.489  -5.263  0.00  0.00    +0.022 C 
ATOM     23  C   UNL     1       0.699   5.033  -4.824  0.00  0.00    +0.005 C 
BRANCH  22  24
ATOM     24  C   UNL     1      -0.046   7.299  -5.050  0.00  0.00    -0.029 C 
ATOM     25  C   UNL     1      -0.926   6.882  -4.247  0.00  0.00    +0.002 C 
BRANCH  25  26
ATOM     26  C   UNL     1      -2.166   7.897  -3.850  0.00  0.00    +0.174 C 
ATOM     27  O   UNL     1      -2.967   7.660  -5.167  0.00  0.00    -0.218 OA
BRANCH  26  28
ATOM     28  C   UNL     1      -2.948   6.659  -3.008  0.00  0.00    +0.035 C 
ATOM     29  C   UNL     1      -2.904   5.389  -3.754  0.00  0.00    +0.003 C 
ATOM     30  C   UNL     1      -2.078   5.649  -2.462  0.00  0.00    +0.003 C 
ENDBRANCH  26  28
ENDBRANCH  25  26
ENDBRANCH  22  24
ENDBRANCH   6  22
TORSDOF 5
ENDMDL
MODEL 5
REMARK VINA RESULT:      -9.2      3.046      4.111
REMARK  Name = 
REMARK  5 active torsions:
REMARK  status: ('A' for Active; 'I' for Inactive)
REMARK    1  A    between atoms: C_4  and  C_5
REMARK    2  A    between atoms: C_15  and  C_16
REMARK    3  A    between atoms: C_16  and  C_18
REMARK    4  A    between atoms: C_19  and  C_20
REMARK    5  A    between atoms: C_20  and  C_22
REMARK                            x       y       z     vdW  Elec       q    Type
REMARK                         _______ _______ _______ _____ _____    ______ ____
ROOT
ATOM      1  C   UNL     1       0.347   4.912  -7.120  0.00  0.00    -0.009 C 
ATOM      2  C   UNL     1       0.803   5.362  -8.280  0.00  0.00    -0.045 C 
ATOM      3  C   UNL     1       2.115   4.553  -8.821  0.00  0.00    +0.018 C 
ATOM      4  C   UNL     1       3.154   5.476  -7.919  0.00  0.00    +0.004 C 
ATOM      5  C   UNL     1       4.333   5.185  -8.687  0.00  0.00    +0.001 C 
ATOM      6  C   UNL     1       3.931   5.248 -10.270  0.00  0.00    +0.004 C 
ATOM      7  C   UNL     1       2.363   5.641 -10.046  0.00  0.00    +0.004 C 
ATOM      8  C   UNL     1       2.207   6.963  -9.521  0.00  0.00    +0.000 C 
ATOM      9  C   UNL     1       1.562   5.121 -11.148  0.00  0.00    +0.001 C 
ATOM     10  C   UNL     1       0.185   4.751 -10.615  0.00  0.00    +0.004 C 
ATOM     11  C   UNL     1      -0.171   5.596  -9.395  0.00  0.00    +0.022 C 
ENDROOT
BRANCH   1  21
ATOM     12  C   UNL     1       0.702   4.970  -4.650  0.00  0.00    -0.002 C 
ATOM     13  C   UNL     1      -0.280   5.851  -4.680  0.00  0.00    +0.004 C 
ATOM     14  C   UNL     1      -1.095   5.888  -3.232  0.00  0.00    +0.176 C 
ATOM     15  O   UNL     1       0.199   6.290  -2.473  0.00  0.00    -0.218 OA
ATOM     16  C   UNL     1      -1.574   7.497  -3.382  0.00  0.00    +0.071 C 
ATOM     17  C   UNL     1      -1.851   7.586  -5.034  0.00  0.00    +0.159 C 
ATOM     18  O   UNL     1      -3.195   8.324  -4.828  0.00  0.00    -0.223 OA
ATOM     19  C   UNL     1      -2.642   6.095  -5.100  0.00  0.00    +0.059 C 
ATOM     20  C   UNL     1      -1.389   5.388  -5.555  0.00  0.00    -0.021 C 
ATOM     21  C   UNL     1      -1.058   5.234  -6.824  0.00  0.00    -0.005 C 
ENDBRANCH   1  21
BRANCH   6  22
ATOM     22  C   UNL     1       4.506   6.880 -10.368  0.00  0.00    +0.022 C 
ATOM     23  C   UNL     1       4.578   6.786 -12.007  0.00  0.00    +0.005 C 
BRANCH  22  24
ATOM     24  C   UNL     1       6.011   6.379 -10.131  0.00  0.00    -0.029 C 
ATOM     25  C   UNL     1       6.924   6.665 -10.954  0.00  0.00    +0.002 C 
BRANCH  25  26
ATOM     26  C   UNL     1       8.490   6.380 -10.512  0.00  0.00    +0.174 C 
ATOM     27  O   UNL     1       8.197   5.003  -9.840  0.00  0.00    -0.218 OA
BRANCH  26  28
ATOM     28  C   UNL     1       8.824   5.706 -12.026  0.00  0.00    +0.035 C 
ATOM     29  C   UNL     1       7.705   4.875 -12.504  0.00  0.00    +0.003 C 
ATOM     30  C   UNL     1       8.065   6.258 -13.119  0.00  0.00    +0.003 C 
ENDBRANCH  26  28
ENDBRANCH  25  26
ENDBRANCH  22  24
ENDBRANCH   6  22
TORSDOF 5
ENDMDL
MODEL 6
REMARK VINA RESULT:      -9.0      1.600      8.862
REMARK  Name = 
REMARK  5 active torsions:
REMARK  status: ('A' for Active; 'I' for Inactive)
REMARK    1  A    between atoms: C_4  and  C_5
REMARK    2  A    between atoms: C_15  and  C_16
REMARK    3  A    between atoms: C_16  and  C_18
REMARK    4  A    between atoms: C_19  and  C_20
REMARK    5  A    between atoms: C_20  and  C_22
REMARK                            x       y       z     vdW  Elec       q    Type
REMARK                         _______ _______ _______ _____ _____    ______ ____
ROOT
ATOM      1  C   UNL     1       4.129   5.783  -8.949  0.00  0.00    -0.009 C 
ATOM      2  C   UNL     1       3.010   5.447  -8.323  0.00  0.00    -0.045 C 
ATOM      3  C   UNL     1       2.429   6.625  -7.351  0.00  0.00    +0.018 C 
ATOM      4  C   UNL     1       3.409   6.176  -6.091  0.00  0.00    +0.004 C 
ATOM      5  C   UNL     1       2.637   6.809  -5.056  0.00  0.00    +0.001 C 
ATOM      6  C   UNL     1       1.058   6.512  -5.353  0.00  0.00    +0.004 C 
ATOM      7  C   UNL     1       1.288   5.616  -6.698  0.00  0.00    +0.004 C 
ATOM      8  C   UNL     1       1.904   4.357  -6.409  0.00  0.00    +0.000 C 
ATOM      9  C   UNL     1       0.141   5.757  -7.587  0.00  0.00    +0.001 C 
ATOM     10  C   UNL     1       0.628   5.660  -9.027  0.00  0.00    +0.004 C 
ATOM     11  C   UNL     1       1.901   4.822  -9.115  0.00  0.00    +0.022 C 
ENDROOT
BRANCH   1  21
ATOM     12  C   UNL     1       4.806   7.797 -10.259  0.00  0.00    -0.002 C 
ATOM     13  C   UNL     1       5.592   6.941 -10.884  0.00  0.00    +0.004 C 
ATOM     14  C   UNL     1       5.930   7.456 -12.428  0.00  0.00    +0.176 C 
ATOM     15  O   UNL     1       6.581   8.759 -11.889  0.00  0.00    -0.218 OA
ATOM     16  C   UNL     1       7.422   6.678 -12.512  0.00  0.00    +0.071 C 
ATOM     17  C   UNL     1       7.090   5.277 -11.651  0.00  0.00    +0.159 C 
ATOM     18  O   UNL     1       7.774   4.389 -12.718  0.00  0.00    -0.223 OA
ATOM     19  C   UNL     1       5.583   5.048 -12.377  0.00  0.00    +0.059 C 
ATOM     20  C   UNL     1       4.864   5.688 -11.216  0.00  0.00    -0.021 C 
ATOM     21  C   UNL     1       4.427   5.014 -10.167  0.00  0.00    -0.005 C 
ENDBRANCH   1  21
BRANCH   6  22
ATOM     22  C   UNL     1       1.084   5.177  -4.249  0.00  0.00    +0.022 C 
ATOM     23  C   UNL     1      -0.539   5.299  -4.019  0.00  0.00    +0.005 C 
BRANCH  22  24
ATOM     24  C   UNL     1       1.472   6.163  -3.045  0.00  0.00    -0.029 C 
ATOM     25  C   UNL     1       1.507   5.746  -1.854  0.00  0.00    +0.002 C 
BRANCH  25  26
ATOM     26  C   UNL     1       2.193   6.716  -0.707  0.00  0.00    +0.174 C 
ATOM     27  O   UNL     1       3.207   5.641  -0.206  0.00  0.00    -0.218 OA
BRANCH  26  28
ATOM     28  C   UNL     1       3.257   7.362  -1.849  0.00  0.00    +0.035 C 
ATOM     29  C   UNL     1       3.814   8.650  -1.400  0.00  0.00    +0.003 C 
ATOM     30  C   UNL     1       4.647   7.339  -1.470  0.00  0.00    +0.003 C 
ENDBRANCH  26  28
ENDBRANCH  25  26
ENDBRANCH  22  24
ENDBRANCH   6  22
TORSDOF 5
ENDMDL
MODEL 7
REMARK VINA RESULT:      -8.8      3.614     10.252
REMARK  Name = 
REMARK  5 active torsions:
REMARK  status: ('A' for Active; 'I' for Inactive)
REMARK    1  A    between atoms: C_4  and  C_5
REMARK    2  A    between atoms: C_15  and  C_16
REMARK    3  A    between atoms: C_16  and  C_18
REMARK    4  A    between atoms: C_19  and  C_20
REMARK    5  A    between atoms: C_20  and  C_22
REMARK                            x       y       z     vdW  Elec       q    Type
REMARK                         _______ _______ _______ _____ _____    ______ ____
ROOT
ATOM      1  C   UNL     1       1.297   5.886 -10.234  0.00  0.00    -0.009 C 
ATOM      2  C   UNL     1       1.755   6.089  -9.007  0.00  0.00    -0.045 C 
ATOM      3  C   UNL     1       1.177   5.021  -7.912  0.00  0.00    +0.018 C 
ATOM      4  C   UNL     1      -0.206   5.902  -7.669  0.00  0.00    +0.004 C 
ATOM      5  C   UNL     1      -0.537   5.328  -6.393  0.00  0.00    +0.001 C 
ATOM      6  C   UNL     1       0.839   5.218  -5.519  0.00  0.00    +0.004 C 
ATOM      7  C   UNL     1       1.826   5.870  -6.645  0.00  0.00    +0.004 C 
ATOM      8  C   UNL     1       1.568   7.263  -6.848  0.00  0.00    +0.000 C 
ATOM      9  C   UNL     1       3.168   5.319  -6.502  0.00  0.00    +0.001 C 
ATOM     10  C   UNL     1       3.810   5.241  -7.880  0.00  0.00    +0.004 C 
ATOM     11  C   UNL     1       3.227   6.299  -8.813  0.00  0.00    +0.022 C 
ENDROOT
BRANCH   1  21
ATOM     12  C   UNL     1       0.503   4.237 -11.931  0.00  0.00    -0.002 C 
ATOM     13  C   UNL     1       0.719   5.228 -12.775  0.00  0.00    +0.004 C 
ATOM     14  C   UNL     1       1.035   4.653 -14.303  0.00  0.00    +0.176 C 
ATOM     15  O   UNL     1      -0.351   3.954 -14.364  0.00  0.00    -0.218 OA
ATOM     16  C   UNL     1       0.444   6.020 -15.092  0.00  0.00    +0.071 C 
ATOM     17  C   UNL     1       0.928   7.225 -14.029  0.00  0.00    +0.159 C 
ATOM     18  O   UNL     1       1.463   8.108 -15.181  0.00  0.00    -0.223 OA
ATOM     19  C   UNL     1       2.460   6.556 -13.785  0.00  0.00    +0.059 C 
ATOM     20  C   UNL     1       2.025   5.886 -12.505  0.00  0.00    -0.021 C 
ATOM     21  C   UNL     1       2.116   6.454 -11.317  0.00  0.00    -0.005 C 
ENDBRANCH   1  21
BRANCH   6  22
ATOM     22  C   UNL     1       0.474   6.714  -4.724  0.00  0.00    +0.022 C 
ATOM     23  C   UNL     1       1.469   6.326  -3.474  0.00  0.00    +0.005 C 
BRANCH  22  24
ATOM     24  C   UNL     1      -0.837   6.062  -4.069  0.00  0.00    -0.029 C 
ATOM     25  C   UNL     1      -1.547   6.715  -3.255  0.00  0.00    +0.002 C 
BRANCH  25  26
ATOM     26  C   UNL     1      -3.028   6.107  -2.848  0.00  0.00    +0.174 C 
ATOM     27  O   UNL     1      -2.498   4.688  -2.475  0.00  0.00    -0.218 OA
BRANCH  26  28
ATOM     28  C   UNL     1      -2.874   6.711  -1.277  0.00  0.00    +0.035 C 
ATOM     29  C   UNL     1      -1.716   6.121  -0.584  0.00  0.00    +0.003 C 
ATOM     30  C   UNL     1      -1.758   7.597  -1.071  0.00  0.00    +0.003 C 
ENDBRANCH  26  28
ENDBRANCH  25  26
ENDBRANCH  22  24
ENDBRANCH   6  22
TORSDOF 5
ENDMDL
MODEL 8
REMARK VINA RESULT:      -8.3      2.120      9.343
REMARK  Name = 
REMARK  5 active torsions:
REMARK  status: ('A' for Active; 'I' for Inactive)
REMARK    1  A    between atoms: C_4  and  C_5
REMARK    2  A    between atoms: C_15  and  C_16
REMARK    3  A    between atoms: C_16  and  C_18
REMARK    4  A    between atoms: C_19  and  C_20
REMARK    5  A    between atoms: C_20  and  C_22
REMARK                            x       y       z     vdW  Elec       q    Type
REMARK                         _______ _______ _______ _____ _____    ______ ____
ROOT
ATOM      1  C   UNL     1       4.275   5.489  -8.952  0.00  0.00    -0.009 C 
ATOM      2  C   UNL     1       3.045   5.351  -8.479  0.00  0.00    -0.045 C 
ATOM      3  C   UNL     1       2.643   6.486  -7.373  0.00  0.00    +0.018 C 
ATOM      4  C   UNL     1       3.344   5.637  -6.133  0.00  0.00    +0.004 C 
ATOM      5  C   UNL     1       2.625   6.287  -5.071  0.00  0.00    +0.001 C 
ATOM      6  C   UNL     1       1.064   6.430  -5.533  0.00  0.00    +0.004 C 
ATOM      7  C   UNL     1       1.235   5.703  -6.985  0.00  0.00    +0.004 C 
ATOM      8  C   UNL     1       1.509   4.304  -6.860  0.00  0.00    +0.000 C 
ATOM      9  C   UNL     1       0.260   6.245  -7.925  0.00  0.00    +0.001 C 
ATOM     10  C   UNL     1       0.873   6.236  -9.319  0.00  0.00    +0.004 C 
ATOM     11  C   UNL     1       1.920   5.134  -9.446  0.00  0.00    +0.022 C 
ENDROOT
BRANCH   1  21
ATOM     12  C   UNL     1       4.874   7.633 -10.081  0.00  0.00    -0.002 C 
ATOM     13  C   UNL     1       5.640   6.855 -10.822  0.00  0.00    +0.004 C 
ATOM     14  C   UNL     1       5.904   7.527 -12.320  0.00  0.00    +0.176 C 
ATOM     15  O   UNL     1       6.566   8.779 -11.680  0.00  0.00    -0.218 OA
ATOM     16  C   UNL     1       7.398   6.782 -12.547  0.00  0.00    +0.071 C 
ATOM     17  C   UNL     1       7.118   5.298 -11.818  0.00  0.00    +0.159 C 
ATOM     18  O   UNL     1       7.762   4.531 -12.998  0.00  0.00    -0.223 OA
ATOM     19  C   UNL     1       5.582   5.122 -12.497  0.00  0.00    +0.059 C 
ATOM     20  C   UNL     1       4.910   5.632 -11.247  0.00  0.00    -0.021 C 
ATOM     21  C   UNL     1       4.527   4.850 -10.254  0.00  0.00    -0.005 C 
ENDBRANCH   1  21
BRANCH   6  22
ATOM     22  C   UNL     1       0.657   4.986  -4.664  0.00  0.00    +0.022 C 
ATOM     23  C   UNL     1      -0.940   5.370  -4.718  0.00  0.00    +0.005 C 
BRANCH  22  24
ATOM     24  C   UNL     1       0.936   5.730  -3.271  0.00  0.00    -0.029 C 
ATOM     25  C   UNL     1       0.503   5.252  -2.186  0.00  0.00    +0.002 C 
BRANCH  25  26
ATOM     26  C   UNL     1       1.067   5.892  -0.772  0.00  0.00    +0.174 C 
ATOM     27  O   UNL     1       1.968   6.967  -1.454  0.00  0.00    -0.218 OA
BRANCH  26  28
ATOM     28  C   UNL     1      -0.277   6.911  -0.664  0.00  0.00    +0.035 C 
ATOM     29  C   UNL     1      -1.533   6.143  -0.609  0.00  0.00    +0.003 C 
ATOM     30  C   UNL     1      -0.945   6.906   0.611  0.00  0.00    +0.003 C 
ENDBRANCH  26  28
ENDBRANCH  25  26
ENDBRANCH  22  24
ENDBRANCH   6  22
TORSDOF 5
ENDMDL
MODEL 9
REMARK VINA RESULT:      -8.2      4.044      5.803
REMARK  Name = 
REMARK  5 active torsions:
REMARK  status: ('A' for Active; 'I' for Inactive)
REMARK    1  A    between atoms: C_4  and  C_5
REMARK    2  A    between atoms: C_15  and  C_16
REMARK    3  A    between atoms: C_16  and  C_18
REMARK    4  A    between atoms: C_19  and  C_20
REMARK    5  A    between atoms: C_20  and  C_22
REMARK                            x       y       z     vdW  Elec       q    Type
REMARK                         _______ _______ _______ _____ _____    ______ ____
ROOT
ATOM      1  C   UNL     1      -1.112   6.899  -1.056  0.00  0.00    -0.009 C 
ATOM      2  C   UNL     1      -1.434   6.763  -2.334  0.00  0.00    -0.045 C 
ATOM      3  C   UNL     1      -0.756   5.454  -3.040  0.00  0.00    +0.018 C 
ATOM      4  C   UNL     1       0.657   6.261  -3.359  0.00  0.00    +0.004 C 
ATOM      5  C   UNL     1       1.114   5.376  -4.396  0.00  0.00    +0.001 C 
ATOM      6  C   UNL     1      -0.162   5.017  -5.351  0.00  0.00    +0.004 C 
ATOM      7  C   UNL     1      -1.255   5.927  -4.548  0.00  0.00    +0.004 C 
ATOM      8  C   UNL     1      -1.002   7.328  -4.694  0.00  0.00    +0.000 C 
ATOM      9  C   UNL     1      -2.581   5.337  -4.682  0.00  0.00    +0.001 C 
ATOM     10  C   UNL     1      -3.368   5.616  -3.409  0.00  0.00    +0.004 C 
ATOM     11  C   UNL     1      -2.873   6.892  -2.732  0.00  0.00    +0.022 C 
ENDROOT
BRANCH   1  21
ATOM     12  C   UNL     1       0.013   6.357   1.106  0.00  0.00    -0.002 C 
ATOM     13  C   UNL     1      -0.410   7.557   1.454  0.00  0.00    +0.004 C 
ATOM     14  C   UNL     1      -0.599   7.670   3.102  0.00  0.00    +0.176 C 
ATOM     15  O   UNL     1       0.904   7.350   3.331  0.00  0.00    -0.218 OA
ATOM     16  C   UNL     1      -0.313   9.330   3.162  0.00  0.00    +0.071 C 
ATOM     17  C   UNL     1      -1.039   9.822   1.733  0.00  0.00    +0.159 C 
ATOM     18  O   UNL     1      -1.751  11.004   2.433  0.00  0.00    -0.223 OA
ATOM     19  C   UNL     1      -2.394   8.837   1.946  0.00  0.00    +0.059 C 
ATOM     20  C   UNL     1      -1.826   7.766   1.048  0.00  0.00    -0.021 C 
ATOM     21  C   UNL     1      -2.034   7.720  -0.255  0.00  0.00    -0.005 C 
ENDBRANCH   1  21
BRANCH   6  22
ATOM     22  C   UNL     1       0.306   6.256  -6.469  0.00  0.00    +0.022 C 
ATOM     23  C   UNL     1      -0.678   5.624  -7.624  0.00  0.00    +0.005 C 
BRANCH  22  24
ATOM     24  C   UNL     1       1.594   5.401  -6.898  0.00  0.00    -0.029 C 
ATOM     25  C   UNL     1       2.143   5.579  -8.020  0.00  0.00    +0.002 C 
BRANCH  25  26
ATOM     26  C   UNL     1       3.622   4.893  -8.283  0.00  0.00    +0.174 C 
ATOM     27  O   UNL     1       3.057   3.495  -8.685  0.00  0.00    -0.218 OA
BRANCH  26  28
ATOM     28  C   UNL     1       3.641   5.475  -9.869  0.00  0.00    +0.035 C 
ATOM     29  C   UNL     1       2.558   6.447 -10.100  0.00  0.00    +0.003 C 
ATOM     30  C   UNL     1       4.058   6.847 -10.009  0.00  0.00    +0.003 C 
ENDBRANCH  26  28
ENDBRANCH  25  26
ENDBRANCH  22  24
ENDBRANCH   6  22
TORSDOF 5
ENDMDL
