MODEL 1
REMARK VINA RESULT:      -7.6      0.000      0.000
REMARK  Name = 
REMARK  5 active torsions:
REMARK  status: ('A' for Active; 'I' for Inactive)
REMARK    1  A    between atoms: C_2  and  C_4
REMARK    2  A    between atoms: C_4  and  C_5
REMARK    3  A    between atoms: C_5  and  C_6
REMARK    4  A    between atoms: C_8  and  C_9
REMARK    5  A    between atoms: C_15  and  C_16
REMARK                            x       y       z     vdW  Elec       q    Type
REMARK                         _______ _______ _______ _____ _____    ______ ____
ROOT
ATOM      1  C   UNL     1      -1.016   5.521  -5.898  0.00  0.00    +0.206 A 
ATOM      2  O   UNL     1      -0.417   5.631  -7.049  0.00  0.00    -0.438 OA
ATOM      3  C   UNL     1       0.898   5.648  -6.901  0.00  0.00    +0.164 A 
ATOM      4  C   UNL     1       1.133   5.234  -5.595  0.00  0.00    +0.118 A 
ATOM      5  N   UNL     1      -0.090   5.023  -5.049  0.00  0.00    -0.212 NA
ENDROOT
BRANCH   3   6
ATOM      6  C   UNL     1       1.849   5.501  -8.012  0.00  0.00    +0.036 A 
ATOM      7  C   UNL     1       2.416   4.255  -8.254  0.00  0.00    +0.003 A 
ATOM      8  C   UNL     1       3.680   4.121  -8.815  0.00  0.00    +0.000 A 
ATOM      9  C   UNL     1       4.553   5.199  -8.750  0.00  0.00    +0.000 A 
ATOM     10  C   UNL     1       3.955   6.452  -8.754  0.00  0.00    +0.000 A 
ATOM     11  C   UNL     1       2.611   6.583  -8.436  0.00  0.00    +0.003 A 
ENDBRANCH   3   6
BRANCH   4  12
ATOM     12  C   UNL     1       2.380   5.584  -4.901  0.00  0.00    +0.021 A 
ATOM     13  C   UNL     1       3.452   4.703  -4.826  0.00  0.00    +0.002 A 
ATOM     14  C   UNL     1       4.743   5.101  -5.146  0.00  0.00    +0.000 A 
ATOM     15  C   UNL     1       5.050   6.454  -5.154  0.00  0.00    +0.000 A 
ATOM     16  C   UNL     1       4.051   7.335  -4.838  0.00  0.00    +0.000 A 
ATOM     17  C   UNL     1       2.726   6.929  -4.911  0.00  0.00    +0.002 A 
ENDBRANCH   4  12
BRANCH   1  18
ATOM     18  C   UNL     1      -2.459   5.801  -5.617  0.00  0.00    +0.097 C 
BRANCH  18  19
ATOM     19  C   UNL     1      -2.515   6.593  -4.342  0.00  0.00    +0.124 C 
BRANCH  19  21
ATOM     20  O   UNL     1      -2.747   4.766  -2.906  0.00  0.00    -0.246 OA
ATOM     21  C   UNL     1      -3.302   5.813  -3.356  0.00  0.00    +0.365 C 
ATOM     22  O   UNL     1      -4.115   6.490  -2.448  0.00  0.00    -0.246 OA
ENDBRANCH  19  21
ENDBRANCH  18  19
ENDBRANCH   1  18
TORSDOF 5
ENDMDL
MODEL 2
REMARK VINA RESULT:      -7.5      3.783      7.167
REMARK  Name = 
REMARK  5 active torsions:
REMARK  status: ('A' for Active; 'I' for Inactive)
REMARK    1  A    between atoms: C_2  and  C_4
REMARK    2  A    between atoms: C_4  and  C_5
REMARK    3  A    between atoms: C_5  and  C_6
REMARK    4  A    between atoms: C_8  and  C_9
REMARK    5  A    between atoms: C_15  and  C_16
REMARK                            x       y       z     vdW  Elec       q    Type
REMARK                         _______ _______ _______ _____ _____    ______ ____
ROOT
ATOM      1  C   UNL     1       4.483   5.214  -9.096  0.00  0.00    +0.206 A 
ATOM      2  O   UNL     1       5.039   5.697  -8.023  0.00  0.00    -0.438 OA
ATOM      3  C   UNL     1       4.173   5.758  -7.024  0.00  0.00    +0.164 A 
ATOM      4  C   UNL     1       3.085   4.995  -7.426  0.00  0.00    +0.118 A 
ATOM      5  N   UNL     1       3.384   4.551  -8.672  0.00  0.00    -0.212 NA
ENDROOT
BRANCH   3   6
ATOM      6  C   UNL     1       4.552   6.009  -5.626  0.00  0.00    +0.036 A 
ATOM      7  C   UNL     1       4.630   4.936  -4.746  0.00  0.00    +0.003 A 
ATOM      8  C   UNL     1       4.385   5.084  -3.386  0.00  0.00    +0.000 A 
ATOM      9  C   UNL     1       3.659   6.187  -2.958  0.00  0.00    +0.000 A 
ATOM     10  C   UNL     1       3.797   7.329  -3.735  0.00  0.00    +0.000 A 
ATOM     11  C   UNL     1       4.283   7.235  -5.031  0.00  0.00    +0.003 A 
ENDBRANCH   3   6
BRANCH   4  12
ATOM     12  C   UNL     1       1.752   5.207  -6.844  0.00  0.00    +0.021 A 
ATOM     13  C   UNL     1       1.272   4.424  -5.801  0.00  0.00    +0.002 A 
ATOM     14  C   UNL     1       0.714   4.991  -4.663  0.00  0.00    +0.000 A 
ATOM     15  C   UNL     1       0.262   6.302  -4.715  0.00  0.00    +0.000 A 
ATOM     16  C   UNL     1       0.388   6.972  -5.902  0.00  0.00    +0.000 A 
ATOM     17  C   UNL     1       1.281   6.514  -6.860  0.00  0.00    +0.002 A 
ENDBRANCH   4  12
BRANCH   1  18
ATOM     18  C   UNL     1       5.018   5.302 -10.491  0.00  0.00    +0.097 C 
BRANCH  18  19
ATOM     19  C   UNL     1       6.450   5.742 -10.387  0.00  0.00    +0.124 C 
BRANCH  19  21
ATOM     20  O   UNL     1       7.585   6.874 -12.086  0.00  0.00    -0.246 OA
ATOM     21  C   UNL     1       7.011   5.792 -11.760  0.00  0.00    +0.365 C 
ATOM     22  O   UNL     1       7.565   4.637 -12.308  0.00  0.00    -0.246 OA
ENDBRANCH  19  21
ENDBRANCH  18  19
ENDBRANCH   1  18
TORSDOF 5
ENDMDL
MODEL 3
REMARK VINA RESULT:      -7.3      4.953      8.637
REMARK  Name = 
REMARK  5 active torsions:
REMARK  status: ('A' for Active; 'I' for Inactive)
REMARK    1  A    between atoms: C_2  and  C_4
REMARK    2  A    between atoms: C_4  and  C_5
REMARK    3  A    between atoms: C_5  and  C_6
REMARK    4  A    between atoms: C_8  and  C_9
REMARK    5  A    between atoms: C_15  and  C_16
REMARK                            x       y       z     vdW  Elec       q    Type
REMARK                         _______ _______ _______ _____ _____    ______ ____
ROOT
ATOM      1  C   UNL     1       5.355   6.711 -11.607  0.00  0.00    +0.206 A 
ATOM      2  O   UNL     1       5.026   6.827 -10.353  0.00  0.00    -0.438 OA
ATOM      3  C   UNL     1       3.756   6.510 -10.162  0.00  0.00    +0.164 A 
ATOM      4  C   UNL     1       3.349   5.880 -11.331  0.00  0.00    +0.118 A 
ATOM      5  N   UNL     1       4.426   5.896 -12.155  0.00  0.00    -0.212 NA
ENDROOT
BRANCH   3   6
ATOM      6  C   UNL     1       3.158   6.290  -8.838  0.00  0.00    +0.036 A 
ATOM      7  C   UNL     1       2.276   7.237  -8.330  0.00  0.00    +0.003 A 
ATOM      8  C   UNL     1       2.137   7.452  -6.964  0.00  0.00    +0.000 A 
ATOM      9  C   UNL     1       3.158   7.037  -6.119  0.00  0.00    +0.000 A 
ATOM     10  C   UNL     1       3.870   5.925  -6.547  0.00  0.00    +0.000 A 
ATOM     11  C   UNL     1       3.824   5.538  -7.878  0.00  0.00    +0.003 A 
ENDBRANCH   3   6
BRANCH   4  12
ATOM     12  C   UNL     1       1.929   5.825 -11.709  0.00  0.00    +0.021 A 
ATOM     13  C   UNL     1       1.015   5.035 -11.020  0.00  0.00    +0.002 A 
ATOM     14  C   UNL     1      -0.198   5.545 -10.577  0.00  0.00    +0.000 A 
ATOM     15  C   UNL     1      -0.690   6.709 -11.152  0.00  0.00    +0.000 A 
ATOM     16  C   UNL     1       0.055   7.296 -12.139  0.00  0.00    +0.000 A 
ATOM     17  C   UNL     1       1.401   6.982 -12.265  0.00  0.00    +0.002 A 
ENDBRANCH   4  12
BRANCH   1  18
ATOM     18  C   UNL     1       6.568   7.288 -12.265  0.00  0.00    +0.097 C 
BRANCH  18  19
ATOM     19  C   UNL     1       7.764   6.767 -11.520  0.00  0.00    +0.124 C 
BRANCH  19  21
ATOM     20  O   UNL     1       9.757   5.803 -12.262  0.00  0.00    -0.246 OA
ATOM     21  C   UNL     1       8.502   5.852 -12.425  0.00  0.00    +0.365 C 
ATOM     22  O   UNL     1       7.906   4.652 -12.810  0.00  0.00    -0.246 OA
ENDBRANCH  19  21
ENDBRANCH  18  19
ENDBRANCH   1  18
TORSDOF 5
ENDMDL
MODEL 4
REMARK VINA RESULT:      -7.3      1.490      3.491
REMARK  Name = 
REMARK  5 active torsions:
REMARK  status: ('A' for Active; 'I' for Inactive)
REMARK    1  A    between atoms: C_2  and  C_4
REMARK    2  A    between atoms: C_4  and  C_5
REMARK    3  A    between atoms: C_5  and  C_6
REMARK    4  A    between atoms: C_8  and  C_9
REMARK    5  A    between atoms: C_15  and  C_16
REMARK                            x       y       z     vdW  Elec       q    Type
REMARK                         _______ _______ _______ _____ _____    ______ ____
ROOT
ATOM      1  C   UNL     1      -0.946   6.883  -4.424  0.00  0.00    +0.206 A 
ATOM      2  O   UNL     1       0.098   6.613  -3.694  0.00  0.00    -0.438 OA
ATOM      3  C   UNL     1       1.163   6.395  -4.449  0.00  0.00    +0.164 A 
ATOM      4  C   UNL     1       0.818   6.841  -5.719  0.00  0.00    +0.118 A 
ATOM      5  N   UNL     1      -0.463   7.275  -5.624  0.00  0.00    -0.212 NA
ENDROOT
BRANCH   3   6
ATOM      6  C   UNL     1       2.535   6.324  -3.927  0.00  0.00    +0.036 A 
ATOM      7  C   UNL     1       3.314   7.475  -3.921  0.00  0.00    +0.003 A 
ATOM      8  C   UNL     1       4.698   7.425  -4.033  0.00  0.00    +0.000 A 
ATOM      9  C   UNL     1       5.280   6.283  -4.570  0.00  0.00    +0.000 A 
ATOM     10  C   UNL     1       4.589   5.101  -4.345  0.00  0.00    +0.000 A 
ATOM     11  C   UNL     1       3.250   5.135  -3.982  0.00  0.00    +0.003 A 
ENDBRANCH   3   6
BRANCH   4  12
ATOM     12  C   UNL     1       1.510   6.336  -6.913  0.00  0.00    +0.021 A 
ATOM     13  C   UNL     1       2.580   7.015  -7.485  0.00  0.00    +0.002 A 
ATOM     14  C   UNL     1       3.766   6.367  -7.803  0.00  0.00    +0.000 A 
ATOM     15  C   UNL     1       3.766   4.985  -7.932  0.00  0.00    +0.000 A 
ATOM     16  C   UNL     1       2.581   4.328  -7.741  0.00  0.00    +0.000 A 
ATOM     17  C   UNL     1       1.547   4.956  -7.059  0.00  0.00    +0.002 A 
ENDBRANCH   4  12
BRANCH   1  18
ATOM     18  C   UNL     1      -2.374   6.854  -3.977  0.00  0.00    +0.097 C 
BRANCH  18  19
ATOM     19  C   UNL     1      -2.372   7.008  -2.483  0.00  0.00    +0.124 C 
BRANCH  19  21
ATOM     20  O   UNL     1      -2.904   4.738  -2.598  0.00  0.00    -0.246 OA
ATOM     21  C   UNL     1      -2.391   5.651  -1.885  0.00  0.00    +0.365 C 
ATOM     22  O   UNL     1      -1.324   5.249  -1.083  0.00  0.00    -0.246 OA
ENDBRANCH  19  21
ENDBRANCH  18  19
ENDBRANCH   1  18
TORSDOF 5
ENDMDL
MODEL 5
REMARK VINA RESULT:      -7.3      2.483      3.635
REMARK  Name = 
REMARK  5 active torsions:
REMARK  status: ('A' for Active; 'I' for Inactive)
REMARK    1  A    between atoms: C_2  and  C_4
REMARK    2  A    between atoms: C_4  and  C_5
REMARK    3  A    between atoms: C_5  and  C_6
REMARK    4  A    between atoms: C_8  and  C_9
REMARK    5  A    between atoms: C_15  and  C_16
REMARK                            x       y       z     vdW  Elec       q    Type
REMARK                         _______ _______ _______ _____ _____    ______ ____
ROOT
ATOM      1  C   UNL     1      -0.248   5.425  -6.617  0.00  0.00    +0.206 A 
ATOM      2  O   UNL     1      -0.742   5.652  -7.800  0.00  0.00    -0.438 OA
ATOM      3  C   UNL     1       0.215   5.710  -8.712  0.00  0.00    +0.164 A 
ATOM      4  C   UNL     1       1.350   5.200  -8.095  0.00  0.00    +0.118 A 
ATOM      5  N   UNL     1       0.978   4.896  -6.827  0.00  0.00    -0.212 NA
ENDROOT
BRANCH   3   6
ATOM      6  C   UNL     1      -0.033   5.692 -10.160  0.00  0.00    +0.036 A 
ATOM      7  C   UNL     1       0.231   4.530 -10.876  0.00  0.00    +0.003 A 
ATOM      8  C   UNL     1       0.605   4.562 -12.214  0.00  0.00    +0.000 A 
ATOM      9  C   UNL     1       1.125   5.741 -12.731  0.00  0.00    +0.000 A 
ATOM     10  C   UNL     1       0.650   6.907 -12.147  0.00  0.00    +0.000 A 
ATOM     11  C   UNL     1       0.038   6.864 -10.903  0.00  0.00    +0.003 A 
ENDBRANCH   3   6
BRANCH   4  12
ATOM     12  C   UNL     1       2.695   5.542  -8.579  0.00  0.00    +0.021 A 
ATOM     13  C   UNL     1       3.458   4.649  -9.323  0.00  0.00    +0.002 A 
ATOM     14  C   UNL     1       4.069   5.029 -10.511  0.00  0.00    +0.000 A 
ATOM     15  C   UNL     1       4.267   6.379 -10.766  0.00  0.00    +0.000 A 
ATOM     16  C   UNL     1       3.847   7.274  -9.820  0.00  0.00    +0.000 A 
ATOM     17  C   UNL     1       2.917   6.883  -8.866  0.00  0.00    +0.002 A 
ENDBRANCH   4  12
BRANCH   1  18
ATOM     18  C   UNL     1      -0.948   5.623  -5.309  0.00  0.00    +0.097 C 
BRANCH  18  19
ATOM     19  C   UNL     1      -0.538   6.971  -4.789  0.00  0.00    +0.124 C 
BRANCH  19  21
ATOM     20  O   UNL     1      -2.745   7.537  -5.300  0.00  0.00    -0.246 OA
ATOM     21  C   UNL     1      -1.772   7.748  -4.516  0.00  0.00    +0.365 C 
ATOM     22  O   UNL     1      -2.124   8.021  -3.195  0.00  0.00    -0.246 OA
ENDBRANCH  19  21
ENDBRANCH  18  19
ENDBRANCH   1  18
TORSDOF 5
ENDMDL
MODEL 6
REMARK VINA RESULT:      -7.1      2.305      2.904
REMARK  Name = 
REMARK  5 active torsions:
REMARK  status: ('A' for Active; 'I' for Inactive)
REMARK    1  A    between atoms: C_2  and  C_4
REMARK    2  A    between atoms: C_4  and  C_5
REMARK    3  A    between atoms: C_5  and  C_6
REMARK    4  A    between atoms: C_8  and  C_9
REMARK    5  A    between atoms: C_15  and  C_16
REMARK                            x       y       z     vdW  Elec       q    Type
REMARK                         _______ _______ _______ _____ _____    ______ ____
ROOT
ATOM      1  C   UNL     1      -0.667   5.495  -2.292  0.00  0.00    +0.206 A 
ATOM      2  O   UNL     1      -0.684   5.570  -3.592  0.00  0.00    -0.438 OA
ATOM      3  C   UNL     1       0.542   5.665  -4.080  0.00  0.00    +0.164 A 
ATOM      4  C   UNL     1       1.389   5.339  -3.028  0.00  0.00    +0.118 A 
ATOM      5  N   UNL     1       0.582   5.095  -1.965  0.00  0.00    -0.212 NA
ENDROOT
BRANCH   3   6
ATOM      6  C   UNL     1       0.871   5.505  -5.503  0.00  0.00    +0.036 A 
ATOM      7  C   UNL     1       1.388   4.293  -5.944  0.00  0.00    +0.003 A 
ATOM      8  C   UNL     1       2.249   4.215  -7.032  0.00  0.00    +0.000 A 
ATOM      9  C   UNL     1       2.930   5.360  -7.424  0.00  0.00    +0.000 A 
ATOM     10  C   UNL     1       2.269   6.557  -7.186  0.00  0.00    +0.000 A 
ATOM     11  C   UNL     1       1.225   6.606  -6.273  0.00  0.00    +0.003 A 
ENDBRANCH   3   6
BRANCH   4  12
ATOM     12  C   UNL     1       2.786   5.794  -3.010  0.00  0.00    +0.021 A 
ATOM     13  C   UNL     1       3.837   4.956  -3.366  0.00  0.00    +0.002 A 
ATOM     14  C   UNL     1       4.811   5.356  -4.272  0.00  0.00    +0.000 A 
ATOM     15  C   UNL     1       4.982   6.711  -4.523  0.00  0.00    +0.000 A 
ATOM     16  C   UNL     1       4.174   7.589  -3.854  0.00  0.00    +0.000 A 
ATOM     17  C   UNL     1       2.992   7.140  -3.281  0.00  0.00    +0.002 A 
ENDBRANCH   4  12
BRANCH   1  18
ATOM     18  C   UNL     1      -1.828   5.713  -1.373  0.00  0.00    +0.097 C 
BRANCH  18  19
ATOM     19  C   UNL     1      -2.086   7.192  -1.332  0.00  0.00    +0.124 C 
BRANCH  19  21
ATOM     20  O   UNL     1      -1.178   8.835   0.057  0.00  0.00    -0.246 OA
ATOM     21  C   UNL     1      -1.705   7.683   0.015  0.00  0.00    +0.365 C 
ATOM     22  O   UNL     1      -2.506   7.357   1.108  0.00  0.00    -0.246 OA
ENDBRANCH  19  21
ENDBRANCH  18  19
ENDBRANCH   1  18
TORSDOF 5
ENDMDL
MODEL 7
REMARK VINA RESULT:      -7.0      4.379      7.186
REMARK  Name = 
REMARK  5 active torsions:
REMARK  status: ('A' for Active; 'I' for Inactive)
REMARK    1  A    between atoms: C_2  and  C_4
REMARK    2  A    between atoms: C_4  and  C_5
REMARK    3  A    between atoms: C_5  and  C_6
REMARK    4  A    between atoms: C_8  and  C_9
REMARK    5  A    between atoms: C_15  and  C_16
REMARK                            x       y       z     vdW  Elec       q    Type
REMARK                         _______ _______ _______ _____ _____    ______ ____
ROOT
ATOM      1  C   UNL     1       1.666   5.627 -11.474  0.00  0.00    +0.206 A 
ATOM      2  O   UNL     1       1.925   5.673 -10.199  0.00  0.00    -0.438 OA
ATOM      3  C   UNL     1       3.170   6.063  -9.980  0.00  0.00    +0.164 A 
ATOM      4  C   UNL     1       3.623   6.568 -11.193  0.00  0.00    +0.118 A 
ATOM      5  N   UNL     1       2.596   6.410 -12.065  0.00  0.00    -0.212 NA
ENDROOT
BRANCH   3   6
ATOM      6  C   UNL     1       3.682   6.462  -8.661  0.00  0.00    +0.036 A 
ATOM      7  C   UNL     1       4.552   5.610  -7.989  0.00  0.00    +0.003 A 
ATOM      8  C   UNL     1       4.613   5.570  -6.602  0.00  0.00    +0.000 A 
ATOM      9  C   UNL     1       3.534   6.056  -5.875  0.00  0.00    +0.000 A 
ATOM     10  C   UNL     1       2.825   7.085  -6.478  0.00  0.00    +0.000 A 
ATOM     11  C   UNL     1       2.943   7.306  -7.843  0.00  0.00    +0.003 A 
ENDBRANCH   3   6
BRANCH   4  12
ATOM     12  C   UNL     1       5.059   6.637 -11.497  0.00  0.00    +0.021 A 
ATOM     13  C   UNL     1       5.812   7.775 -11.236  0.00  0.00    +0.002 A 
ATOM     14  C   UNL     1       7.022   7.707 -10.558  0.00  0.00    +0.000 A 
ATOM     15  C   UNL     1       7.688   6.491 -10.488  0.00  0.00    +0.000 A 
ATOM     16  C   UNL     1       7.110   5.413 -11.101  0.00  0.00    +0.000 A 
ATOM     17  C   UNL     1       5.758   5.440 -11.412  0.00  0.00    +0.002 A 
ENDBRANCH   4  12
BRANCH   1  18
ATOM     18  C   UNL     1       0.513   4.927 -12.122  0.00  0.00    +0.097 C 
BRANCH  18  19
ATOM     19  C   UNL     1       0.642   5.144 -13.603  0.00  0.00    +0.124 C 
BRANCH  19  21
ATOM     20  O   UNL     1      -0.009   3.386 -14.996  0.00  0.00    -0.246 OA
ATOM     21  C   UNL     1       0.903   3.827 -14.235  0.00  0.00    +0.365 C 
ATOM     22  O   UNL     1       2.204   3.505 -14.619  0.00  0.00    -0.246 OA
ENDBRANCH  19  21
ENDBRANCH  18  19
ENDBRANCH   1  18
TORSDOF 5
ENDMDL
MODEL 8
REMARK VINA RESULT:      -6.8      2.836      5.249
REMARK  Name = 
REMARK  5 active torsions:
REMARK  status: ('A' for Active; 'I' for Inactive)
REMARK    1  A    between atoms: C_2  and  C_4
REMARK    2  A    between atoms: C_4  and  C_5
REMARK    3  A    between atoms: C_5  and  C_6
REMARK    4  A    between atoms: C_8  and  C_9
REMARK    5  A    between atoms: C_15  and  C_16
REMARK                            x       y       z     vdW  Elec       q    Type
REMARK                         _______ _______ _______ _____ _____    ______ ____
ROOT
ATOM      1  C   UNL     1       2.849   6.784  -7.054  0.00  0.00    +0.206 A 
ATOM      2  O   UNL     1       4.030   6.581  -7.562  0.00  0.00    -0.438 OA
ATOM      3  C   UNL     1       3.944   6.159  -8.813  0.00  0.00    +0.164 A 
ATOM      4  C   UNL     1       2.629   6.391  -9.196  0.00  0.00    +0.118 A 
ATOM      5  N   UNL     1       2.015   6.921  -8.109  0.00  0.00    -0.212 NA
ENDROOT
BRANCH   3   6
ATOM      6  C   UNL     1       5.087   6.090  -9.734  0.00  0.00    +0.036 A 
ATOM      7  C   UNL     1       6.269   5.503  -9.300  0.00  0.00    +0.003 A 
ATOM      8  C   UNL     1       7.507   5.893  -9.795  0.00  0.00    +0.000 A 
ATOM      9  C   UNL     1       7.618   7.139 -10.400  0.00  0.00    +0.000 A 
ATOM     10  C   UNL     1       6.474   7.593 -11.041  0.00  0.00    +0.000 A 
ATOM     11  C   UNL     1       5.239   7.037 -10.740  0.00  0.00    +0.003 A 
ENDBRANCH   3   6
BRANCH   4  12
ATOM     12  C   UNL     1       2.014   5.634 -10.295  0.00  0.00    +0.021 A 
ATOM     13  C   UNL     1       1.192   4.537 -10.064  0.00  0.00    +0.002 A 
ATOM     14  C   UNL     1      -0.049   4.416 -10.675  0.00  0.00    +0.000 A 
ATOM     15  C   UNL     1      -0.315   5.163 -11.814  0.00  0.00    +0.000 A 
ATOM     16  C   UNL     1       0.674   5.986 -12.282  0.00  0.00    +0.000 A 
ATOM     17  C   UNL     1       1.714   6.359 -11.441  0.00  0.00    +0.002 A 
ENDBRANCH   4  12
BRANCH   1  18
ATOM     18  C   UNL     1       2.519   6.933  -5.602  0.00  0.00    +0.097 C 
BRANCH  18  19
ATOM     19  C   UNL     1       2.510   5.553  -5.008  0.00  0.00    +0.124 C 
BRANCH  19  21
ATOM     20  O   UNL     1       1.135   3.891  -5.903  0.00  0.00    -0.246 OA
ATOM     21  C   UNL     1       1.166   4.968  -5.237  0.00  0.00    +0.365 C 
ATOM     22  O   UNL     1       0.201   5.075  -4.236  0.00  0.00    -0.246 OA
ENDBRANCH  19  21
ENDBRANCH  18  19
ENDBRANCH   1  18
TORSDOF 5
ENDMDL
MODEL 9
REMARK VINA RESULT:      -6.7      2.922      5.532
REMARK  Name = 
REMARK  5 active torsions:
REMARK  status: ('A' for Active; 'I' for Inactive)
REMARK    1  A    between atoms: C_2  and  C_4
REMARK    2  A    between atoms: C_4  and  C_5
REMARK    3  A    between atoms: C_5  and  C_6
REMARK    4  A    between atoms: C_8  and  C_9
REMARK    5  A    between atoms: C_15  and  C_16
REMARK                            x       y       z     vdW  Elec       q    Type
REMARK                         _______ _______ _______ _____ _____    ______ ____
ROOT
ATOM      1  C   UNL     1       1.806   6.633  -9.313  0.00  0.00    +0.206 A 
ATOM      2  O   UNL     1       0.783   6.334  -8.566  0.00  0.00    -0.438 OA
ATOM      3  C   UNL     1       1.139   6.215  -7.297  0.00  0.00    +0.164 A 
ATOM      4  C   UNL     1       2.415   6.759  -7.215  0.00  0.00    +0.118 A 
ATOM      5  N   UNL     1       2.735   7.143  -8.475  0.00  0.00    -0.212 NA
ENDROOT
BRANCH   3   6
ATOM      6  C   UNL     1       0.184   6.143  -6.182  0.00  0.00    +0.036 A 
ATOM      7  C   UNL     1      -0.968   5.379  -6.329  0.00  0.00    +0.003 A 
ATOM      8  C   UNL     1      -2.146   5.694  -5.664  0.00  0.00    +0.000 A 
ATOM      9  C   UNL     1      -2.315   6.987  -5.186  0.00  0.00    +0.000 A 
ATOM     10  C   UNL     1      -1.148   7.642  -4.816  0.00  0.00    +0.000 A 
ATOM     11  C   UNL     1       0.080   7.188  -5.273  0.00  0.00    +0.003 A 
ENDBRANCH   3   6
BRANCH   4  12
ATOM     12  C   UNL     1       3.332   6.383  -6.129  0.00  0.00    +0.021 A 
ATOM     13  C   UNL     1       3.633   7.252  -5.087  0.00  0.00    +0.002 A 
ATOM     14  C   UNL     1       3.562   6.848  -3.760  0.00  0.00    +0.000 A 
ATOM     15  C   UNL     1       3.585   5.492  -3.466  0.00  0.00    +0.000 A 
ATOM     16  C   UNL     1       3.682   4.615  -4.512  0.00  0.00    +0.000 A 
ATOM     17  C   UNL     1       3.360   5.035  -5.795  0.00  0.00    +0.002 A 
ENDBRANCH   4  12
BRANCH   1  18
ATOM     18  C   UNL     1       1.881   6.520 -10.803  0.00  0.00    +0.097 C 
BRANCH  18  19
ATOM     19  C   UNL     1       0.469   6.507 -11.317  0.00  0.00    +0.124 C 
BRANCH  19  21
ATOM     20  O   UNL     1       0.761   4.752 -12.830  0.00  0.00    -0.246 OA
ATOM     21  C   UNL     1       0.165   5.130 -11.777  0.00  0.00    +0.365 C 
ATOM     22  O   UNL     1      -0.055   4.131 -10.830  0.00  0.00    -0.246 OA
ENDBRANCH  19  21
ENDBRANCH  18  19
ENDBRANCH   1  18
TORSDOF 5
ENDMDL
