MODEL 1
REMARK VINA RESULT:      -9.0      0.000      0.000
REMARK  Name = 
REMARK  8 active torsions:
REMARK  status: ('A' for Active; 'I' for Inactive)
REMARK    1  A    between atoms: C_2  and  C_3
REMARK    2  A    between atoms: C_3  and  C_4
REMARK    3  A    between atoms: C_4  and  C_5
REMARK    4  A    between atoms: C_9  and  C_10
REMARK    5  A    between atoms: N_12  and  C_13
REMARK    6  A    between atoms: C_13  and  C_14
REMARK    7  A    between atoms: C_17  and  C_18
REMARK    8  A    between atoms: C_23  and  C_24
REMARK                            x       y       z     vdW  Elec       q    Type
REMARK                         _______ _______ _______ _____ _____    ______ ____
ROOT
ATOM      1  C   UNL     1       2.200   4.803  -7.103  0.00  0.00    +0.000 A 
ATOM      2  C   UNL     1       2.450   6.123  -7.452  0.00  0.00    -0.002 A 
ATOM      3  C   UNL     1       3.326   6.399  -8.494  0.00  0.00    -0.000 A 
ATOM      4  C   UNL     1       3.890   5.392  -9.264  0.00  0.00    -0.001 A 
ATOM      5  C   UNL     1       3.397   4.121  -9.066  0.00  0.00    -0.000 A 
ATOM      6  C   UNL     1       2.457   3.855  -8.086  0.00  0.00    -0.002 A 
ENDROOT
BRANCH   4   7
ATOM      7  C   UNL     1       5.227   5.571  -9.836  0.00  0.00    -0.006 A 
ATOM      8  C   UNL     1       5.327   5.932 -11.173  0.00  0.00    -0.015 A 
ATOM      9  C   UNL     1       6.505   6.524 -11.561  0.00  0.00    -0.007 A 
ATOM     10  C   UNL     1       7.549   6.776 -10.702  0.00  0.00    -0.001 A 
ATOM     11  C   UNL     1       7.520   6.164  -9.458  0.00  0.00    -0.000 A 
ATOM     12  C   UNL     1       6.370   5.524  -9.047  0.00  0.00    -0.001 A 
BRANCH   8  13
ATOM     13  C   UNL     1       4.327   5.441 -12.129  0.00  0.00    +0.044 A 
ATOM     14  N   UNL     1       4.671   4.836 -13.292  0.00  0.00    -0.289 NA
ATOM     15  N   UNL     1       3.727   5.039 -14.205  0.00  0.00    -0.218 NA
ATOM     16  N   UNL     1       2.757   5.698 -13.598  0.00  0.00    -0.218 NA
ATOM     17  N   UNL     1       3.221   6.158 -12.444  0.00  0.00    -0.289 NA
ENDBRANCH   8  13
ENDBRANCH   4   7
BRANCH   1  18
ATOM     18  C   UNL     1       1.844   4.374  -5.736  0.00  0.00    +0.134 C 
BRANCH  18  20
ATOM     19  C   UNL     1       1.090   5.989  -4.012  0.00  0.00    +0.121 A 
ATOM     20  N   UNL     1       2.071   5.408  -4.745  0.00  0.00    -0.311 N 
ATOM     21  C   UNL     1       3.173   5.402  -3.958  0.00  0.00    +0.100 A 
ATOM     22  C   UNL     1       2.908   6.081  -2.774  0.00  0.00    +0.154 A 
ATOM     23 CL   UNL     1       3.938   6.129  -1.348  0.00  0.00    -0.060 Cl
ATOM     24  N   UNL     1       1.631   6.522  -2.890  0.00  0.00    -0.220 NA
BRANCH  21  25
ATOM     25  C   UNL     1       4.437   4.649  -4.226  0.00  0.00    +0.228 C 
ATOM     26  O   UNL     1       5.119   5.258  -5.271  0.00  0.00    -0.213 OA
ENDBRANCH  21  25
BRANCH  19  27
ATOM     27  C   UNL     1      -0.371   5.714  -4.144  0.00  0.00    +0.064 C 
BRANCH  27  28
ATOM     28  C   UNL     1      -1.061   6.702  -5.045  0.00  0.00    +0.008 C 
BRANCH  28  30
ATOM     29  C   UNL     1      -1.463   5.284  -7.071  0.00  0.00    +0.000 C 
ATOM     30  C   UNL     1      -2.095   5.912  -5.837  0.00  0.00    +0.000 C 
ENDBRANCH  28  30
ENDBRANCH  27  28
ENDBRANCH  19  27
ENDBRANCH  18  20
ENDBRANCH   1  18
TORSDOF 8
ENDMDL
MODEL 2
REMARK VINA RESULT:      -8.9      2.975      8.630
REMARK  Name = 
REMARK  8 active torsions:
REMARK  status: ('A' for Active; 'I' for Inactive)
REMARK    1  A    between atoms: C_2  and  C_3
REMARK    2  A    between atoms: C_3  and  C_4
REMARK    3  A    between atoms: C_4  and  C_5
REMARK    4  A    between atoms: C_9  and  C_10
REMARK    5  A    between atoms: N_12  and  C_13
REMARK    6  A    between atoms: C_13  and  C_14
REMARK    7  A    between atoms: C_17  and  C_18
REMARK    8  A    between atoms: C_23  and  C_24
REMARK                            x       y       z     vdW  Elec       q    Type
REMARK                         _______ _______ _______ _____ _____    ______ ____
ROOT
ATOM      1  C   UNL     1       3.034   4.873  -7.971  0.00  0.00    +0.000 A 
ATOM      2  C   UNL     1       2.864   6.167  -7.500  0.00  0.00    -0.002 A 
ATOM      3  C   UNL     1       1.898   6.420  -6.534  0.00  0.00    -0.000 A 
ATOM      4  C   UNL     1       1.160   5.401  -5.951  0.00  0.00    -0.001 A 
ATOM      5  C   UNL     1       1.556   4.115  -6.241  0.00  0.00    -0.000 A 
ATOM      6  C   UNL     1       2.579   3.858  -7.138  0.00  0.00    -0.002 A 
ENDROOT
BRANCH   4   7
ATOM      7  C   UNL     1      -0.214   5.655  -5.510  0.00  0.00    -0.006 A 
ATOM      8  C   UNL     1      -0.419   6.069  -4.200  0.00  0.00    -0.015 A 
ATOM      9  C   UNL     1      -1.600   6.721  -3.941  0.00  0.00    -0.007 A 
ATOM     10  C   UNL     1      -2.550   6.983  -4.900  0.00  0.00    -0.001 A 
ATOM     11  C   UNL     1      -2.436   6.324  -6.115  0.00  0.00    -0.000 A 
ATOM     12  C   UNL     1      -1.283   5.624  -6.397  0.00  0.00    -0.001 A 
BRANCH   8  13
ATOM     13  C   UNL     1       0.469   5.574  -3.141  0.00  0.00    +0.044 A 
ATOM     14  N   UNL     1       0.008   4.883  -2.072  0.00  0.00    -0.289 NA
ATOM     15  N   UNL     1       0.804   5.080  -1.026  0.00  0.00    -0.218 NA
ATOM     16  N   UNL     1       1.806   5.825  -1.455  0.00  0.00    -0.218 NA
ATOM     17  N   UNL     1       1.476   6.330  -2.637  0.00  0.00    -0.289 NA
ENDBRANCH   8  13
ENDBRANCH   4   7
BRANCH   1  18
ATOM     18  C   UNL     1       3.510   4.555  -9.332  0.00  0.00    +0.134 C 
BRANCH  18  20
ATOM     19  C   UNL     1       3.870   6.114 -11.227  0.00  0.00    +0.121 A 
ATOM     20  N   UNL     1       3.058   5.513 -10.323  0.00  0.00    -0.311 N 
ATOM     21  C   UNL     1       1.852   5.390 -10.926  0.00  0.00    +0.100 A 
ATOM     22  C   UNL     1       1.882   6.015 -12.168  0.00  0.00    +0.154 A 
ATOM     23 CL   UNL     1       0.645   5.913 -13.416  0.00  0.00    -0.060 Cl
ATOM     24  N   UNL     1       3.126   6.544 -12.275  0.00  0.00    -0.220 NA
BRANCH  21  25
ATOM     25  C   UNL     1       0.703   4.573 -10.429  0.00  0.00    +0.228 C 
ATOM     26  O   UNL     1      -0.095   5.360  -9.608  0.00  0.00    -0.213 OA
ENDBRANCH  21  25
BRANCH  19  27
ATOM     27  C   UNL     1       5.350   5.943 -11.313  0.00  0.00    +0.064 C 
BRANCH  27  28
ATOM     28  C   UNL     1       6.090   7.234 -11.095  0.00  0.00    +0.008 C 
BRANCH  28  30
ATOM     29  C   UNL     1       7.204   5.738  -9.422  0.00  0.00    +0.000 C 
ATOM     30  C   UNL     1       7.406   6.868 -10.422  0.00  0.00    +0.000 C 
ENDBRANCH  28  30
ENDBRANCH  27  28
ENDBRANCH  19  27
ENDBRANCH  18  20
ENDBRANCH   1  18
TORSDOF 8
ENDMDL
MODEL 3
REMARK VINA RESULT:      -8.8      3.038      7.858
REMARK  Name = 
REMARK  8 active torsions:
REMARK  status: ('A' for Active; 'I' for Inactive)
REMARK    1  A    between atoms: C_2  and  C_3
REMARK    2  A    between atoms: C_3  and  C_4
REMARK    3  A    between atoms: C_4  and  C_5
REMARK    4  A    between atoms: C_9  and  C_10
REMARK    5  A    between atoms: N_12  and  C_13
REMARK    6  A    between atoms: C_13  and  C_14
REMARK    7  A    between atoms: C_17  and  C_18
REMARK    8  A    between atoms: C_23  and  C_24
REMARK                            x       y       z     vdW  Elec       q    Type
REMARK                         _______ _______ _______ _____ _____    ______ ____
ROOT
ATOM      1  C   UNL     1       2.629   5.859 -10.290  0.00  0.00    +0.000 A 
ATOM      2  C   UNL     1       2.767   4.812  -9.389  0.00  0.00    -0.002 A 
ATOM      3  C   UNL     1       1.763   4.576  -8.458  0.00  0.00    -0.000 A 
ATOM      4  C   UNL     1       0.578   5.296  -8.461  0.00  0.00    -0.001 A 
ATOM      5  C   UNL     1       0.368   6.126  -9.539  0.00  0.00    -0.000 A 
ATOM      6  C   UNL     1       1.332   6.298 -10.518  0.00  0.00    -0.002 A 
ENDROOT
BRANCH   4   7
ATOM      7  C   UNL     1      -0.124   5.553  -7.200  0.00  0.00    -0.006 A 
ATOM      8  C   UNL     1       0.485   6.379  -6.265  0.00  0.00    -0.015 A 
ATOM      9  C   UNL     1      -0.340   6.962  -5.333  0.00  0.00    -0.007 A 
ATOM     10  C   UNL     1      -1.702   6.774  -5.299  0.00  0.00    -0.001 A 
ATOM     11  C   UNL     1      -2.227   5.744  -6.065  0.00  0.00    -0.000 A 
ATOM     12  C   UNL     1      -1.421   5.106  -6.983  0.00  0.00    -0.001 A 
BRANCH   8  13
ATOM     13  C   UNL     1       1.949   6.380  -6.147  0.00  0.00    +0.044 A 
ATOM     14  N   UNL     1       2.590   5.864  -5.073  0.00  0.00    -0.289 NA
ATOM     15  N   UNL     1       3.749   6.489  -4.892  0.00  0.00    -0.218 NA
ATOM     16  N   UNL     1       3.874   7.338  -5.895  0.00  0.00    -0.218 NA
ATOM     17  N   UNL     1       2.696   7.457  -6.493  0.00  0.00    -0.289 NA
ENDBRANCH   8  13
ENDBRANCH   4   7
BRANCH   1  18
ATOM     18  C   UNL     1       3.772   6.597 -10.863  0.00  0.00    +0.134 C 
BRANCH  18  20
ATOM     19  C   UNL     1       4.631   5.369 -12.839  0.00  0.00    +0.121 A 
ATOM     20  N   UNL     1       4.721   5.731 -11.536  0.00  0.00    -0.311 N 
ATOM     21  C   UNL     1       6.044   5.776 -11.250  0.00  0.00    +0.100 A 
ATOM     22  C   UNL     1       6.776   5.334 -12.346  0.00  0.00    +0.154 A 
ATOM     23 CL   UNL     1       8.522   5.442 -12.544  0.00  0.00    -0.060 Cl
ATOM     24  N   UNL     1       5.856   4.991 -13.279  0.00  0.00    -0.220 NA
BRANCH  21  25
ATOM     25  C   UNL     1       6.654   6.363 -10.017  0.00  0.00    +0.228 C 
ATOM     26  O   UNL     1       7.398   5.386  -9.367  0.00  0.00    -0.213 OA
ENDBRANCH  21  25
BRANCH  19  27
ATOM     27  C   UNL     1       3.525   5.742 -13.768  0.00  0.00    +0.064 C 
BRANCH  27  28
ATOM     28  C   UNL     1       2.542   4.620 -13.968  0.00  0.00    +0.008 C 
BRANCH  28  30
ATOM     29  C   UNL     1       1.301   6.785 -14.194  0.00  0.00    +0.000 C 
ATOM     30  C   UNL     1       1.173   5.270 -14.123  0.00  0.00    +0.000 C 
ENDBRANCH  28  30
ENDBRANCH  27  28
ENDBRANCH  19  27
ENDBRANCH  18  20
ENDBRANCH   1  18
TORSDOF 8
ENDMDL
MODEL 4
REMARK VINA RESULT:      -8.4      3.086      7.701
REMARK  Name = 
REMARK  8 active torsions:
REMARK  status: ('A' for Active; 'I' for Inactive)
REMARK    1  A    between atoms: C_2  and  C_3
REMARK    2  A    between atoms: C_3  and  C_4
REMARK    3  A    between atoms: C_4  and  C_5
REMARK    4  A    between atoms: C_9  and  C_10
REMARK    5  A    between atoms: N_12  and  C_13
REMARK    6  A    between atoms: C_13  and  C_14
REMARK    7  A    between atoms: C_17  and  C_18
REMARK    8  A    between atoms: C_23  and  C_24
REMARK                            x       y       z     vdW  Elec       q    Type
REMARK                         _______ _______ _______ _____ _____    ______ ____
ROOT
ATOM      1  C   UNL     1       3.637   6.672  -8.975  0.00  0.00    +0.000 A 
ATOM      2  C   UNL     1       4.123   5.595  -8.246  0.00  0.00    -0.002 A 
ATOM      3  C   UNL     1       3.901   5.545  -6.875  0.00  0.00    -0.000 A 
ATOM      4  C   UNL     1       3.124   6.492  -6.223  0.00  0.00    -0.001 A 
ATOM      5  C   UNL     1       2.435   7.375  -7.024  0.00  0.00    -0.000 A 
ATOM      6  C   UNL     1       2.584   7.371  -8.400  0.00  0.00    -0.002 A 
ENDROOT
BRANCH   4   7
ATOM      7  C   UNL     1       3.425   6.853  -4.835  0.00  0.00    -0.006 A 
ATOM      8  C   UNL     1       2.641   6.305  -3.828  0.00  0.00    -0.015 A 
ATOM      9  C   UNL     1       3.192   6.278  -2.569  0.00  0.00    -0.007 A 
ATOM     10  C   UNL     1       4.452   6.746  -2.280  0.00  0.00    -0.001 A 
ATOM     11  C   UNL     1       5.085   7.522  -3.239  0.00  0.00    -0.000 A 
ATOM     12  C   UNL     1       4.543   7.608  -4.504  0.00  0.00    -0.001 A 
BRANCH   8  13
ATOM     13  C   UNL     1       1.220   6.040  -4.084  0.00  0.00    +0.044 A 
ATOM     14  N   UNL     1       0.327   7.032  -4.314  0.00  0.00    -0.289 NA
ATOM     15  N   UNL     1      -0.883   6.655  -3.915  0.00  0.00    -0.218 NA
ATOM     16  N   UNL     1      -0.769   5.403  -3.511  0.00  0.00    -0.218 NA
ATOM     17  N   UNL     1       0.520   5.124  -3.371  0.00  0.00    -0.289 NA
ENDBRANCH   8  13
ENDBRANCH   4   7
BRANCH   1  18
ATOM     18  C   UNL     1       4.276   7.177 -10.207  0.00  0.00    +0.134 C 
BRANCH  18  20
ATOM     19  C   UNL     1       4.172   5.641 -12.151  0.00  0.00    +0.121 A 
ATOM     20  N   UNL     1       4.798   6.115 -11.046  0.00  0.00    -0.311 N 
ATOM     21  C   UNL     1       6.125   5.990 -11.284  0.00  0.00    +0.100 A 
ATOM     22  C   UNL     1       6.325   5.335 -12.493  0.00  0.00    +0.154 A 
ATOM     23 CL   UNL     1       7.858   5.159 -13.341  0.00  0.00    -0.060 Cl
ATOM     24  N   UNL     1       5.085   5.041 -12.954  0.00  0.00    -0.220 NA
BRANCH  21  25
ATOM     25  C   UNL     1       7.221   6.599 -10.470  0.00  0.00    +0.228 C 
ATOM     26  O   UNL     1       7.486   5.784  -9.377  0.00  0.00    -0.213 OA
ENDBRANCH  21  25
BRANCH  19  27
ATOM     27  C   UNL     1       2.835   6.079 -12.647  0.00  0.00    +0.064 C 
BRANCH  27  28
ATOM     28  C   UNL     1       1.706   5.341 -11.981  0.00  0.00    +0.008 C 
BRANCH  28  30
ATOM     29  C   UNL     1      -0.031   6.117 -10.351  0.00  0.00    +0.000 C 
ATOM     30  C   UNL     1       0.622   6.374 -11.701  0.00  0.00    +0.000 C 
ENDBRANCH  28  30
ENDBRANCH  27  28
ENDBRANCH  19  27
ENDBRANCH  18  20
ENDBRANCH   1  18
TORSDOF 8
ENDMDL
MODEL 5
REMARK VINA RESULT:      -8.3      3.236      7.856
REMARK  Name = 
REMARK  8 active torsions:
REMARK  status: ('A' for Active; 'I' for Inactive)
REMARK    1  A    between atoms: C_2  and  C_3
REMARK    2  A    between atoms: C_3  and  C_4
REMARK    3  A    between atoms: C_4  and  C_5
REMARK    4  A    between atoms: C_9  and  C_10
REMARK    5  A    between atoms: N_12  and  C_13
REMARK    6  A    between atoms: C_13  and  C_14
REMARK    7  A    between atoms: C_17  and  C_18
REMARK    8  A    between atoms: C_23  and  C_24
REMARK                            x       y       z     vdW  Elec       q    Type
REMARK                         _______ _______ _______ _____ _____    ______ ____
ROOT
ATOM      1  C   UNL     1       3.738   5.865  -8.308  0.00  0.00    +0.000 A 
ATOM      2  C   UNL     1       2.982   7.007  -8.082  0.00  0.00    -0.002 A 
ATOM      3  C   UNL     1       2.796   7.456  -6.780  0.00  0.00    -0.000 A 
ATOM      4  C   UNL     1       3.422   6.851  -5.700  0.00  0.00    -0.001 A 
ATOM      5  C   UNL     1       4.378   5.905  -5.998  0.00  0.00    -0.000 A 
ATOM      6  C   UNL     1       4.630   5.517  -7.302  0.00  0.00    -0.002 A 
ENDROOT
BRANCH   4   7
ATOM      7  C   UNL     1       2.764   6.831  -4.392  0.00  0.00    -0.006 A 
ATOM      8  C   UNL     1       1.601   6.086  -4.252  0.00  0.00    -0.015 A 
ATOM      9  C   UNL     1       1.263   5.711  -2.973  0.00  0.00    -0.007 A 
ATOM     10  C   UNL     1       2.014   6.025  -1.865  0.00  0.00    -0.001 A 
ATOM     11  C   UNL     1       3.003   6.987  -2.011  0.00  0.00    -0.000 A 
ATOM     12  C   UNL     1       3.343   7.420  -3.275  0.00  0.00    -0.001 A 
BRANCH   8  13
ATOM     13  C   UNL     1       0.679   5.967  -5.388  0.00  0.00    +0.044 A 
ATOM     14  N   UNL     1      -0.508   6.616  -5.430  0.00  0.00    -0.289 NA
ATOM     15  N   UNL     1      -1.376   5.929  -6.166  0.00  0.00    -0.218 NA
ATOM     16  N   UNL     1      -0.715   4.894  -6.652  0.00  0.00    -0.218 NA
ATOM     17  N   UNL     1       0.427   4.777  -5.987  0.00  0.00    -0.289 NA
ENDBRANCH   8  13
ENDBRANCH   4   7
BRANCH   1  18
ATOM     18  C   UNL     1       3.520   4.956  -9.451  0.00  0.00    +0.134 C 
BRANCH  18  20
ATOM     19  C   UNL     1       3.849   6.107 -11.623  0.00  0.00    +0.121 A 
ATOM     20  N   UNL     1       3.044   5.646 -10.635  0.00  0.00    -0.311 N 
ATOM     21  C   UNL     1       1.878   5.302 -11.232  0.00  0.00    +0.100 A 
ATOM     22  C   UNL     1       1.917   5.653 -12.576  0.00  0.00    +0.154 A 
ATOM     23 CL   UNL     1       0.747   5.192 -13.808  0.00  0.00    -0.060 Cl
ATOM     24  N   UNL     1       3.122   6.247 -12.758  0.00  0.00    -0.220 NA
BRANCH  21  25
ATOM     25  C   UNL     1       0.771   4.516 -10.604  0.00  0.00    +0.228 C 
ATOM     26  O   UNL     1      -0.189   5.392 -10.114  0.00  0.00    -0.213 OA
ENDBRANCH  21  25
BRANCH  19  27
ATOM     27  C   UNL     1       5.340   6.042 -11.629  0.00  0.00    +0.064 C 
BRANCH  27  28
ATOM     28  C   UNL     1       5.973   7.369 -11.307  0.00  0.00    +0.008 C 
BRANCH  28  30
ATOM     29  C   UNL     1       7.240   5.738  -9.888  0.00  0.00    +0.000 C 
ATOM     30  C   UNL     1       7.307   7.059 -10.642  0.00  0.00    +0.000 C 
ENDBRANCH  28  30
ENDBRANCH  27  28
ENDBRANCH  19  27
ENDBRANCH  18  20
ENDBRANCH   1  18
TORSDOF 8
ENDMDL
MODEL 6
REMARK VINA RESULT:      -8.3      2.687      4.147
REMARK  Name = 
REMARK  8 active torsions:
REMARK  status: ('A' for Active; 'I' for Inactive)
REMARK    1  A    between atoms: C_2  and  C_3
REMARK    2  A    between atoms: C_3  and  C_4
REMARK    3  A    between atoms: C_4  and  C_5
REMARK    4  A    between atoms: C_9  and  C_10
REMARK    5  A    between atoms: N_12  and  C_13
REMARK    6  A    between atoms: C_13  and  C_14
REMARK    7  A    between atoms: C_17  and  C_18
REMARK    8  A    between atoms: C_23  and  C_24
REMARK                            x       y       z     vdW  Elec       q    Type
REMARK                         _______ _______ _______ _____ _____    ______ ____
ROOT
ATOM      1  C   UNL     1       2.250   6.030  -5.435  0.00  0.00    +0.000 A 
ATOM      2  C   UNL     1       2.122   4.926  -6.265  0.00  0.00    -0.002 A 
ATOM      3  C   UNL     1       3.089   4.684  -7.233  0.00  0.00    -0.000 A 
ATOM      4  C   UNL     1       4.234   5.461  -7.335  0.00  0.00    -0.001 A 
ATOM      5  C   UNL     1       4.454   6.363  -6.319  0.00  0.00    -0.000 A 
ATOM      6  C   UNL     1       3.533   6.546  -5.301  0.00  0.00    -0.002 A 
ENDROOT
BRANCH   4   7
ATOM      7  C   UNL     1       4.857   5.675  -8.644  0.00  0.00    -0.006 A 
ATOM      8  C   UNL     1       4.155   6.404  -9.595  0.00  0.00    -0.015 A 
ATOM      9  C   UNL     1       4.898   6.971 -10.603  0.00  0.00    -0.007 A 
ATOM     10  C   UNL     1       6.265   6.860 -10.695  0.00  0.00    -0.001 A 
ATOM     11  C   UNL     1       6.888   5.913  -9.897  0.00  0.00    -0.000 A 
ATOM     12  C   UNL     1       6.167   5.290  -8.900  0.00  0.00    -0.001 A 
BRANCH   8  13
ATOM     13  C   UNL     1       2.690   6.314  -9.636  0.00  0.00    +0.044 A 
ATOM     14  N   UNL     1       2.023   5.824 -10.708  0.00  0.00    -0.289 NA
ATOM     15  N   UNL     1       0.819   6.380 -10.786  0.00  0.00    -0.218 NA
ATOM     16  N   UNL     1       0.696   7.154  -9.724  0.00  0.00    -0.218 NA
ATOM     17  N   UNL     1       1.896   7.314  -9.181  0.00  0.00    -0.289 NA
ENDBRANCH   8  13
ENDBRANCH   4   7
BRANCH   1  18
ATOM     18  C   UNL     1       1.101   6.745  -4.845  0.00  0.00    +0.134 C 
BRANCH  18  20
ATOM     19  C   UNL     1       0.408   5.586  -2.765  0.00  0.00    +0.121 A 
ATOM     20  N   UNL     1       0.231   5.874  -4.077  0.00  0.00    -0.311 N 
ATOM     21  C   UNL     1      -1.106   5.846  -4.290  0.00  0.00    +0.100 A 
ATOM     22  C   UNL     1      -1.757   5.430  -3.134  0.00  0.00    +0.154 A 
ATOM     23 CL   UNL     1      -3.492   5.470  -2.843  0.00  0.00    -0.060 Cl
ATOM     24  N   UNL     1      -0.772   5.178  -2.238  0.00  0.00    -0.220 NA
BRANCH  21  25
ATOM     25  C   UNL     1      -1.809   6.339  -5.515  0.00  0.00    +0.228 C 
ATOM     26  O   UNL     1      -2.377   7.578  -5.247  0.00  0.00    -0.213 OA
ENDBRANCH  21  25
BRANCH  19  27
ATOM     27  C   UNL     1       1.544   6.055  -1.919  0.00  0.00    +0.064 C 
BRANCH  27  28
ATOM     28  C   UNL     1       2.292   4.917  -1.281  0.00  0.00    +0.008 C 
BRANCH  28  30
ATOM     29  C   UNL     1       4.239   6.453  -1.641  0.00  0.00    +0.000 C 
ATOM     30  C   UNL     1       3.732   5.023  -1.766  0.00  0.00    +0.000 C 
ENDBRANCH  28  30
ENDBRANCH  27  28
ENDBRANCH  19  27
ENDBRANCH  18  20
ENDBRANCH   1  18
TORSDOF 8
ENDMDL
MODEL 7
REMARK VINA RESULT:      -8.1      2.160      2.969
REMARK  Name = 
REMARK  8 active torsions:
REMARK  status: ('A' for Active; 'I' for Inactive)
REMARK    1  A    between atoms: C_2  and  C_3
REMARK    2  A    between atoms: C_3  and  C_4
REMARK    3  A    between atoms: C_4  and  C_5
REMARK    4  A    between atoms: C_9  and  C_10
REMARK    5  A    between atoms: N_12  and  C_13
REMARK    6  A    between atoms: C_13  and  C_14
REMARK    7  A    between atoms: C_17  and  C_18
REMARK    8  A    between atoms: C_23  and  C_24
REMARK                            x       y       z     vdW  Elec       q    Type
REMARK                         _______ _______ _______ _____ _____    ______ ____
ROOT
ATOM      1  C   UNL     1       2.615   5.697  -4.423  0.00  0.00    +0.000 A 
ATOM      2  C   UNL     1       2.792   6.918  -5.059  0.00  0.00    -0.002 A 
ATOM      3  C   UNL     1       3.063   6.943  -6.421  0.00  0.00    -0.000 A 
ATOM      4  C   UNL     1       3.069   5.788  -7.190  0.00  0.00    -0.001 A 
ATOM      5  C   UNL     1       2.612   4.643  -6.576  0.00  0.00    -0.000 A 
ATOM      6  C   UNL     1       2.256   4.632  -5.238  0.00  0.00    -0.002 A 
ENDROOT
BRANCH   4   7
ATOM      7  C   UNL     1       3.960   5.685  -8.348  0.00  0.00    -0.006 A 
ATOM      8  C   UNL     1       3.502   6.152  -9.573  0.00  0.00    -0.015 A 
ATOM      9  C   UNL     1       4.462   6.466 -10.506  0.00  0.00    -0.007 A 
ATOM     10  C   UNL     1       5.812   6.352 -10.276  0.00  0.00    -0.001 A 
ATOM     11  C   UNL     1       6.216   5.636  -9.159  0.00  0.00    -0.000 A 
ATOM     12  C   UNL     1       5.278   5.266  -8.219  0.00  0.00    -0.001 A 
BRANCH   8  13
ATOM     13  C   UNL     1       2.076   6.036  -9.902  0.00  0.00    +0.044 A 
ATOM     14  N   UNL     1       1.629   5.280 -10.933  0.00  0.00    -0.289 NA
ATOM     15  N   UNL     1       0.492   5.783 -11.404  0.00  0.00    -0.218 NA
ATOM     16  N   UNL     1       0.183   6.801 -10.623  0.00  0.00    -0.218 NA
ATOM     17  N   UNL     1       1.248   7.109  -9.894  0.00  0.00    -0.289 NA
ENDBRANCH   8  13
ENDBRANCH   4   7
BRANCH   1  18
ATOM     18  C   UNL     1       2.938   5.465  -3.001  0.00  0.00    +0.134 C 
BRANCH  18  20
ATOM     19  C   UNL     1       0.942   6.207  -1.730  0.00  0.00    +0.121 A 
ATOM     20  N   UNL     1       2.234   6.366  -2.109  0.00  0.00    -0.311 N 
ATOM     21  C   UNL     1       2.860   6.959  -1.065  0.00  0.00    +0.100 A 
ATOM     22  C   UNL     1       1.933   7.271  -0.077  0.00  0.00    +0.154 A 
ATOM     23 CL   UNL     1       2.295   7.823   1.554  0.00  0.00    -0.060 Cl
ATOM     24  N   UNL     1       0.733   6.881  -0.573  0.00  0.00    -0.220 NA
BRANCH  21  25
ATOM     25  C   UNL     1       4.338   7.115  -0.904  0.00  0.00    +0.228 C 
ATOM     26  O   UNL     1       4.805   6.149  -0.021  0.00  0.00    -0.213 OA
ENDBRANCH  21  25
BRANCH  19  27
ATOM     27  C   UNL     1       0.023   5.133  -2.209  0.00  0.00    +0.064 C 
BRANCH  27  28
ATOM     28  C   UNL     1      -1.243   5.686  -2.805  0.00  0.00    +0.008 C 
BRANCH  28  30
ATOM     29  C   UNL     1      -1.186   6.052  -5.283  0.00  0.00    +0.000 C 
ATOM     30  C   UNL     1      -0.817   6.628  -3.924  0.00  0.00    +0.000 C 
ENDBRANCH  28  30
ENDBRANCH  27  28
ENDBRANCH  19  27
ENDBRANCH  18  20
ENDBRANCH   1  18
TORSDOF 8
ENDMDL
MODEL 8
REMARK VINA RESULT:      -8.0      2.748      4.406
REMARK  Name = 
REMARK  8 active torsions:
REMARK  status: ('A' for Active; 'I' for Inactive)
REMARK    1  A    between atoms: C_2  and  C_3
REMARK    2  A    between atoms: C_3  and  C_4
REMARK    3  A    between atoms: C_4  and  C_5
REMARK    4  A    between atoms: C_9  and  C_10
REMARK    5  A    between atoms: N_12  and  C_13
REMARK    6  A    between atoms: C_13  and  C_14
REMARK    7  A    between atoms: C_17  and  C_18
REMARK    8  A    between atoms: C_23  and  C_24
REMARK                            x       y       z     vdW  Elec       q    Type
REMARK                         _______ _______ _______ _____ _____    ______ ____
ROOT
ATOM      1  C   UNL     1       1.573   6.557  -6.860  0.00  0.00    +0.000 A 
ATOM      2  C   UNL     1       1.428   5.316  -7.464  0.00  0.00    -0.002 A 
ATOM      3  C   UNL     1       1.962   5.108  -8.730  0.00  0.00    -0.000 A 
ATOM      4  C   UNL     1       2.719   6.075  -9.374  0.00  0.00    -0.001 A 
ATOM      5  C   UNL     1       3.072   7.176  -8.626  0.00  0.00    -0.000 A 
ATOM      6  C   UNL     1       2.615   7.346  -7.330  0.00  0.00    -0.002 A 
ENDROOT
BRANCH   4   7
ATOM      7  C   UNL     1       2.693   6.169 -10.836  0.00  0.00    -0.006 A 
ATOM      8  C   UNL     1       3.885   5.997 -11.528  0.00  0.00    -0.015 A 
ATOM      9  C   UNL     1       3.780   5.640 -12.850  0.00  0.00    -0.007 A 
ATOM     10  C   UNL     1       2.580   5.440 -13.491  0.00  0.00    -0.001 A 
ATOM     11  C   UNL     1       1.430   5.880 -12.854  0.00  0.00    -0.000 A 
ATOM     12  C   UNL     1       1.500   6.286 -11.538  0.00  0.00    -0.001 A 
BRANCH   8  13
ATOM     13  C   UNL     1       5.143   6.450 -10.920  0.00  0.00    +0.044 A 
ATOM     14  N   UNL     1       5.620   7.706 -11.090  0.00  0.00    -0.289 NA
ATOM     15  N   UNL     1       6.946   7.703 -11.007  0.00  0.00    -0.218 NA
ATOM     16  N   UNL     1       7.298   6.467 -10.705  0.00  0.00    -0.218 NA
ATOM     17  N   UNL     1       6.254   5.673 -10.906  0.00  0.00    -0.289 NA
ENDBRANCH   8  13
ENDBRANCH   4   7
BRANCH   1  18
ATOM     18  C   UNL     1       0.603   7.112  -5.894  0.00  0.00    +0.134 C 
BRANCH  18  20
ATOM     19  C   UNL     1       0.812   5.864  -3.761  0.00  0.00    +0.121 A 
ATOM     20  N   UNL     1       0.160   6.134  -4.918  0.00  0.00    -0.311 N 
ATOM     21  C   UNL     1      -1.155   5.939  -4.661  0.00  0.00    +0.100 A 
ATOM     22  C   UNL     1      -1.313   5.438  -3.374  0.00  0.00    +0.154 A 
ATOM     23 CL   UNL     1      -2.833   5.258  -2.506  0.00  0.00    -0.060 Cl
ATOM     24  N   UNL     1      -0.057   5.308  -2.882  0.00  0.00    -0.220 NA
BRANCH  21  25
ATOM     25  C   UNL     1      -2.290   6.345  -5.546  0.00  0.00    +0.228 C 
ATOM     26  O   UNL     1      -2.735   7.605  -5.167  0.00  0.00    -0.213 OA
ENDBRANCH  21  25
BRANCH  19  27
ATOM     27  C   UNL     1       2.108   6.469  -3.333  0.00  0.00    +0.064 C 
BRANCH  27  28
ATOM     28  C   UNL     1       3.156   5.431  -3.038  0.00  0.00    +0.008 C 
BRANCH  28  30
ATOM     29  C   UNL     1       4.750   5.493  -4.970  0.00  0.00    +0.000 C 
ATOM     30  C   UNL     1       3.530   4.805  -4.376  0.00  0.00    +0.000 C 
ENDBRANCH  28  30
ENDBRANCH  27  28
ENDBRANCH  19  27
ENDBRANCH  18  20
ENDBRANCH   1  18
TORSDOF 8
ENDMDL
MODEL 9
REMARK VINA RESULT:      -8.0      3.196      8.113
REMARK  Name = 
REMARK  8 active torsions:
REMARK  status: ('A' for Active; 'I' for Inactive)
REMARK    1  A    between atoms: C_2  and  C_3
REMARK    2  A    between atoms: C_3  and  C_4
REMARK    3  A    between atoms: C_4  and  C_5
REMARK    4  A    between atoms: C_9  and  C_10
REMARK    5  A    between atoms: N_12  and  C_13
REMARK    6  A    between atoms: C_13  and  C_14
REMARK    7  A    between atoms: C_17  and  C_18
REMARK    8  A    between atoms: C_23  and  C_24
REMARK                            x       y       z     vdW  Elec       q    Type
REMARK                         _______ _______ _______ _____ _____    ______ ____
ROOT
ATOM      1  C   UNL     1       3.009   6.856  -9.044  0.00  0.00    +0.000 A 
ATOM      2  C   UNL     1       2.760   7.714  -7.982  0.00  0.00    -0.002 A 
ATOM      3  C   UNL     1       1.919   7.301  -6.956  0.00  0.00    -0.000 A 
ATOM      4  C   UNL     1       1.394   6.018  -6.910  0.00  0.00    -0.001 A 
ATOM      5  C   UNL     1       1.891   5.120  -7.827  0.00  0.00    -0.000 A 
ATOM      6  C   UNL     1       2.798   5.506  -8.799  0.00  0.00    -0.002 A 
ENDROOT
BRANCH   4   7
ATOM      7  C   UNL     1       0.077   5.789  -6.310  0.00  0.00    -0.006 A 
ATOM      8  C   UNL     1      -0.143   6.238  -5.015  0.00  0.00    -0.015 A 
ATOM      9  C   UNL     1      -1.454   6.428  -4.646  0.00  0.00    -0.007 A 
ATOM     10  C   UNL     1      -2.520   6.211  -5.487  0.00  0.00    -0.001 A 
ATOM     11  C   UNL     1      -2.280   5.512  -6.661  0.00  0.00    -0.000 A 
ATOM     12  C   UNL     1      -0.979   5.265  -7.046  0.00  0.00    -0.001 A 
BRANCH   8  13
ATOM     13  C   UNL     1       0.964   6.230  -4.050  0.00  0.00    +0.044 A 
ATOM     14  N   UNL     1       1.877   5.231  -4.004  0.00  0.00    -0.289 NA
ATOM     15  N   UNL     1       2.352   5.107  -2.769  0.00  0.00    -0.218 NA
ATOM     16  N   UNL     1       1.802   6.075  -2.059  0.00  0.00    -0.218 NA
ATOM     17  N   UNL     1       0.789   6.579  -2.752  0.00  0.00    -0.289 NA
ENDBRANCH   8  13
ENDBRANCH   4   7
BRANCH   1  18
ATOM     18  C   UNL     1       3.319   7.321 -10.411  0.00  0.00    +0.134 C 
BRANCH  18  20
ATOM     19  C   UNL     1       3.098   5.690 -12.266  0.00  0.00    +0.121 A 
ATOM     20  N   UNL     1       3.815   6.259 -11.267  0.00  0.00    -0.311 N 
ATOM     21  C   UNL     1       5.109   6.218 -11.664  0.00  0.00    +0.100 A 
ATOM     22  C   UNL     1       5.211   5.521 -12.862  0.00  0.00    +0.154 A 
ATOM     23 CL   UNL     1       6.637   5.415 -13.888  0.00  0.00    -0.060 Cl
ATOM     24  N   UNL     1       3.950   5.118 -13.153  0.00  0.00    -0.220 NA
BRANCH  21  25
ATOM     25  C   UNL     1       6.247   6.943 -11.018  0.00  0.00    +0.228 C 
ATOM     26  O   UNL     1       6.445   8.154 -11.670  0.00  0.00    -0.213 OA
ENDBRANCH  21  25
BRANCH  19  27
ATOM     27  C   UNL     1       1.680   6.007 -12.607  0.00  0.00    +0.064 C 
BRANCH  27  28
ATOM     28  C   UNL     1       0.709   5.052 -11.968  0.00  0.00    +0.008 C 
BRANCH  28  30
ATOM     29  C   UNL     1      -0.282   7.289 -11.426  0.00  0.00    +0.000 C 
ATOM     30  C   UNL     1      -0.076   5.860 -10.943  0.00  0.00    +0.000 C 
ENDBRANCH  28  30
ENDBRANCH  27  28
ENDBRANCH  19  27
ENDBRANCH  18  20
ENDBRANCH   1  18
TORSDOF 8
ENDMDL
