MODEL 1
REMARK VINA RESULT:      -6.0      0.000      0.000
REMARK  Name = 
REMARK  4 active torsions:
REMARK  status: ('A' for Active; 'I' for Inactive)
REMARK    1  A    between atoms: N_2  and  N_3
REMARK    2  A    between atoms: N_3  and  C_4
REMARK    3  A    between atoms: C_4  and  C_5
REMARK    4  A    between atoms: N_9  and  C_10
REMARK                            x       y       z     vdW  Elec       q    Type
REMARK                         _______ _______ _______ _____ _____    ______ ____
ROOT
ATOM      1  N   UNL     1      -0.886   5.478  -3.157  0.00  0.00    -0.127 N 
ATOM      2  C   UNL     1       0.415   5.559  -2.570  0.00  0.00    +0.345 C 
ATOM      3  N   UNL     1       1.606   5.227  -3.253  0.00  0.00    -0.189 NA
ATOM      4  O   UNL     1       0.511   6.146  -1.459  0.00  0.00    -0.249 OA
ENDROOT
BRANCH   3   5
ATOM      5  C   UNL     1       2.793   6.015  -3.089  0.00  0.00    +0.097 C 
ATOM      6  C   UNL     1       4.044   5.232  -2.902  0.00  0.00    +0.022 C 
ATOM      7  C   UNL     1       4.781   4.906  -4.164  0.00  0.00    +0.002 C 
ATOM      8  C   UNL     1       4.147   5.586  -5.347  0.00  0.00    +0.000 C 
ATOM      9  C   UNL     1       3.948   7.051  -5.069  0.00  0.00    +0.002 C 
ATOM     10  C   UNL     1       2.895   7.184  -4.011  0.00  0.00    +0.022 C 
ENDBRANCH   3   5
BRANCH   1  12
ATOM     11  O   UNL     1      -2.959   4.610  -2.892  0.00  0.00    -0.126 OA
ATOM     12  N   UNL     1      -1.907   4.984  -2.322  0.00  0.00    +0.053 NA
ENDBRANCH   1  12
BRANCH   1  13
ATOM     13  C   UNL     1      -1.281   6.577  -4.036  0.00  0.00    +0.141 C 
BRANCH  13  14
ATOM     14  C   UNL     1      -0.952   6.191  -5.474  0.00  0.00    +0.119 C 
ATOM     15 CL   UNL     1      -2.481   5.650  -6.217  0.00  0.00    -0.112 Cl
ENDBRANCH  13  14
ENDBRANCH   1  13
TORSDOF 4
ENDMDL
MODEL 2
REMARK VINA RESULT:      -5.8      5.764      7.070
REMARK  Name = 
REMARK  4 active torsions:
REMARK  status: ('A' for Active; 'I' for Inactive)
REMARK    1  A    between atoms: N_2  and  N_3
REMARK    2  A    between atoms: N_3  and  C_4
REMARK    3  A    between atoms: C_4  and  C_5
REMARK    4  A    between atoms: N_9  and  C_10
REMARK                            x       y       z     vdW  Elec       q    Type
REMARK                         _______ _______ _______ _____ _____    ______ ____
ROOT
ATOM      1  N   UNL     1       3.166   5.511  -7.494  0.00  0.00    -0.127 N 
ATOM      2  C   UNL     1       3.744   5.111  -8.739  0.00  0.00    +0.345 C 
ATOM      3  N   UNL     1       4.450   5.987  -9.593  0.00  0.00    -0.189 NA
ATOM      4  O   UNL     1       3.797   3.876  -8.981  0.00  0.00    -0.249 OA
ENDROOT
BRANCH   3   5
ATOM      5  C   UNL     1       5.638   5.556 -10.271  0.00  0.00    +0.097 C 
ATOM      6  C   UNL     1       5.608   5.715 -11.750  0.00  0.00    +0.022 C 
ATOM      7  C   UNL     1       6.138   7.021 -12.257  0.00  0.00    +0.002 C 
ATOM      8  C   UNL     1       6.728   7.833 -11.136  0.00  0.00    +0.000 C 
ATOM      9  C   UNL     1       7.695   7.002 -10.336  0.00  0.00    +0.002 C 
ATOM     10  C   UNL     1       6.913   5.954  -9.606  0.00  0.00    +0.022 C 
ENDBRANCH   3   5
BRANCH   1  12
ATOM     11  O   UNL     1       1.876   4.054  -6.338  0.00  0.00    -0.126 OA
ATOM     12  N   UNL     1       1.902   4.963  -7.201  0.00  0.00    +0.053 NA
ENDBRANCH   1  12
BRANCH   1  13
ATOM     13  C   UNL     1       4.072   5.625  -6.353  0.00  0.00    +0.141 C 
BRANCH  13  14
ATOM     14  C   UNL     1       3.770   6.928  -5.622  0.00  0.00    +0.119 C 
ATOM     15 CL   UNL     1       5.145   7.227  -4.527  0.00  0.00    -0.112 Cl
ENDBRANCH  13  14
ENDBRANCH   1  13
TORSDOF 4
ENDMDL
MODEL 3
REMARK VINA RESULT:      -5.8      8.853      9.908
REMARK  Name = 
REMARK  4 active torsions:
REMARK  status: ('A' for Active; 'I' for Inactive)
REMARK    1  A    between atoms: N_2  and  N_3
REMARK    2  A    between atoms: N_3  and  C_4
REMARK    3  A    between atoms: C_4  and  C_5
REMARK    4  A    between atoms: N_9  and  C_10
REMARK                            x       y       z     vdW  Elec       q    Type
REMARK                         _______ _______ _______ _____ _____    ______ ____
ROOT
ATOM      1  N   UNL     1       3.601   5.259 -13.726  0.00  0.00    -0.127 N 
ATOM      2  C   UNL     1       3.622   5.599 -12.337  0.00  0.00    +0.345 C 
ATOM      3  N   UNL     1       4.717   5.339 -11.482  0.00  0.00    -0.189 NA
ATOM      4  O   UNL     1       2.700   6.345 -11.912  0.00  0.00    -0.249 OA
ENDROOT
BRANCH   3   5
ATOM      5  C   UNL     1       5.124   6.297 -10.496  0.00  0.00    +0.097 C 
ATOM      6  C   UNL     1       5.908   5.736  -9.363  0.00  0.00    +0.022 C 
ATOM      7  C   UNL     1       7.393   5.737  -9.560  0.00  0.00    +0.002 C 
ATOM      8  C   UNL     1       7.766   6.455 -10.828  0.00  0.00    +0.000 C 
ATOM      9  C   UNL     1       7.100   7.803 -10.886  0.00  0.00    +0.002 C 
ATOM     10  C   UNL     1       5.628   7.587 -11.053  0.00  0.00    +0.022 C 
ENDBRANCH   3   5
BRANCH   1  12
ATOM     11  O   UNL     1       2.392   3.565 -14.615  0.00  0.00    -0.126 OA
ATOM     12  N   UNL     1       2.381   4.754 -14.215  0.00  0.00    +0.053 NA
ENDBRANCH   1  12
BRANCH   1  13
ATOM     13  C   UNL     1       4.310   6.157 -14.634  0.00  0.00    +0.141 C 
BRANCH  13  14
ATOM     14  C   UNL     1       5.809   5.954 -14.447  0.00  0.00    +0.119 C 
ATOM     15 CL   UNL     1       6.579   7.533 -14.758  0.00  0.00    -0.112 Cl
ENDBRANCH  13  14
ENDBRANCH   1  13
TORSDOF 4
ENDMDL
MODEL 4
REMARK VINA RESULT:      -5.8      7.652      9.142
REMARK  Name = 
REMARK  4 active torsions:
REMARK  status: ('A' for Active; 'I' for Inactive)
REMARK    1  A    between atoms: N_2  and  N_3
REMARK    2  A    between atoms: N_3  and  C_4
REMARK    3  A    between atoms: C_4  and  C_5
REMARK    4  A    between atoms: N_9  and  C_10
REMARK                            x       y       z     vdW  Elec       q    Type
REMARK                         _______ _______ _______ _____ _____    ______ ____
ROOT
ATOM      1  N   UNL     1       6.056   5.680 -11.707  0.00  0.00    -0.127 N 
ATOM      2  C   UNL     1       4.715   5.305 -11.381  0.00  0.00    +0.345 C 
ATOM      3  N   UNL     1       4.285   4.988 -10.073  0.00  0.00    -0.189 NA
ATOM      4  O   UNL     1       3.839   5.465 -12.271  0.00  0.00    -0.249 OA
ENDROOT
BRANCH   3   5
ATOM      5  C   UNL     1       3.009   5.428  -9.590  0.00  0.00    +0.097 C 
ATOM      6  C   UNL     1       2.255   4.419  -8.799  0.00  0.00    +0.022 C 
ATOM      7  C   UNL     1       2.505   4.456  -7.323  0.00  0.00    +0.002 C 
ATOM      8  C   UNL     1       3.372   5.629  -6.954  0.00  0.00    +0.000 C 
ATOM      9  C   UNL     1       2.826   6.897  -7.555  0.00  0.00    +0.002 C 
ATOM     10  C   UNL     1       2.997   6.817  -9.041  0.00  0.00    +0.022 C 
ENDBRANCH   3   5
BRANCH   1  12
ATOM     11  O   UNL     1       7.674   4.570 -12.834  0.00  0.00    -0.126 OA
ATOM     12  N   UNL     1       6.565   5.150 -12.909  0.00  0.00    +0.053 NA
ENDBRANCH   1  12
BRANCH   1  13
ATOM     13  C   UNL     1       6.442   7.060 -11.424  0.00  0.00    +0.141 C 
BRANCH  13  14
ATOM     14  C   UNL     1       7.704   7.046 -10.570  0.00  0.00    +0.119 C 
ATOM     15 CL   UNL     1       7.487   5.752  -9.363  0.00  0.00    -0.112 Cl
ENDBRANCH  13  14
ENDBRANCH   1  13
TORSDOF 4
ENDMDL
MODEL 5
REMARK VINA RESULT:      -5.8      2.789      5.338
REMARK  Name = 
REMARK  4 active torsions:
REMARK  status: ('A' for Active; 'I' for Inactive)
REMARK    1  A    between atoms: N_2  and  N_3
REMARK    2  A    between atoms: N_3  and  C_4
REMARK    3  A    between atoms: C_4  and  C_5
REMARK    4  A    between atoms: N_9  and  C_10
REMARK                            x       y       z     vdW  Elec       q    Type
REMARK                         _______ _______ _______ _____ _____    ______ ____
ROOT
ATOM      1  N   UNL     1       2.450   5.497  -4.586  0.00  0.00    -0.127 N 
ATOM      2  C   UNL     1       1.110   5.034  -4.767  0.00  0.00    +0.345 C 
ATOM      3  N   UNL     1       0.040   5.375  -3.909  0.00  0.00    -0.189 NA
ATOM      4  O   UNL     1       0.839   4.462  -5.856  0.00  0.00    -0.249 OA
ENDROOT
BRANCH   3   5
ATOM      5  C   UNL     1      -1.261   5.668  -4.436  0.00  0.00    +0.097 C 
ATOM      6  C   UNL     1      -2.394   5.320  -3.537  0.00  0.00    +0.022 C 
ATOM      7  C   UNL     1      -2.834   6.418  -2.619  0.00  0.00    +0.002 C 
ATOM      8  C   UNL     1      -2.106   7.698  -2.926  0.00  0.00    +0.000 C 
ATOM      9  C   UNL     1      -2.182   8.008  -4.397  0.00  0.00    +0.002 C 
ATOM     10  C   UNL     1      -1.369   6.985  -5.129  0.00  0.00    +0.022 C 
ENDBRANCH   3   5
BRANCH   1  12
ATOM     11  O   UNL     1       4.484   4.625  -4.111  0.00  0.00    -0.126 OA
ATOM     12  N   UNL     1       3.465   4.553  -4.838  0.00  0.00    +0.053 NA
ENDBRANCH   1  12
BRANCH   1  13
ATOM     13  C   UNL     1       2.744   6.856  -5.035  0.00  0.00    +0.141 C 
BRANCH  13  14
ATOM     14  C   UNL     1       3.180   6.802  -6.495  0.00  0.00    +0.119 C 
ATOM     15 CL   UNL     1       1.914   7.637  -7.435  0.00  0.00    -0.112 Cl
ENDBRANCH  13  14
ENDBRANCH   1  13
TORSDOF 4
ENDMDL
MODEL 6
REMARK VINA RESULT:      -5.7      2.726      5.397
REMARK  Name = 
REMARK  4 active torsions:
REMARK  status: ('A' for Active; 'I' for Inactive)
REMARK    1  A    between atoms: N_2  and  N_3
REMARK    2  A    between atoms: N_3  and  C_4
REMARK    3  A    between atoms: C_4  and  C_5
REMARK    4  A    between atoms: N_9  and  C_10
REMARK                            x       y       z     vdW  Elec       q    Type
REMARK                         _______ _______ _______ _____ _____    ______ ____
ROOT
ATOM      1  N   UNL     1       2.254   6.136  -1.696  0.00  0.00    -0.127 N 
ATOM      2  C   UNL     1       0.938   5.595  -1.828  0.00  0.00    +0.345 C 
ATOM      3  N   UNL     1      -0.097   6.218  -2.562  0.00  0.00    -0.189 NA
ATOM      4  O   UNL     1       0.759   4.410  -1.438  0.00  0.00    -0.249 OA
ENDROOT
BRANCH   3   5
ATOM      5  C   UNL     1      -0.992   5.446  -3.373  0.00  0.00    +0.097 C 
ATOM      6  C   UNL     1      -2.382   5.346  -2.853  0.00  0.00    +0.022 C 
ATOM      7  C   UNL     1      -3.317   6.409  -3.340  0.00  0.00    +0.002 C 
ATOM      8  C   UNL     1      -2.656   7.270  -4.382  0.00  0.00    +0.000 C 
ATOM      9  C   UNL     1      -2.028   6.416  -5.450  0.00  0.00    +0.002 C 
ATOM     10  C   UNL     1      -0.868   5.690  -4.841  0.00  0.00    +0.022 C 
ENDBRANCH   3   5
BRANCH   1  12
ATOM     11  O   UNL     1       3.923   5.374  -0.371  0.00  0.00    -0.126 OA
ATOM     12  N   UNL     1       2.844   6.010  -0.423  0.00  0.00    +0.053 NA
ENDBRANCH   1  12
BRANCH   1  13
ATOM     13  C   UNL     1       3.163   5.940  -2.822  0.00  0.00    +0.141 C 
BRANCH  13  14
ATOM     14  C   UNL     1       3.251   7.244  -3.607  0.00  0.00    +0.119 C 
ATOM     15 CL   UNL     1       4.952   7.417  -4.116  0.00  0.00    -0.112 Cl
ENDBRANCH  13  14
ENDBRANCH   1  13
TORSDOF 4
ENDMDL
MODEL 7
REMARK VINA RESULT:      -5.6      6.432      7.455
REMARK  Name = 
REMARK  4 active torsions:
REMARK  status: ('A' for Active; 'I' for Inactive)
REMARK    1  A    between atoms: N_2  and  N_3
REMARK    2  A    between atoms: N_3  and  C_4
REMARK    3  A    between atoms: C_4  and  C_5
REMARK    4  A    between atoms: N_9  and  C_10
REMARK                            x       y       z     vdW  Elec       q    Type
REMARK                         _______ _______ _______ _____ _____    ______ ____
ROOT
ATOM      1  N   UNL     1       3.080   4.671  -9.195  0.00  0.00    -0.127 N 
ATOM      2  C   UNL     1       4.481   4.955  -9.188  0.00  0.00    +0.345 C 
ATOM      3  N   UNL     1       5.216   5.308 -10.342  0.00  0.00    -0.189 NA
ATOM      4  O   UNL     1       5.037   5.092  -8.066  0.00  0.00    -0.249 OA
ENDROOT
BRANCH   3   5
ATOM      5  C   UNL     1       6.225   6.325 -10.290  0.00  0.00    +0.097 C 
ATOM      6  C   UNL     1       7.621   5.831 -10.430  0.00  0.00    +0.022 C 
ATOM      7  C   UNL     1       8.140   5.791 -11.834  0.00  0.00    +0.002 C 
ATOM      8  C   UNL     1       7.157   6.412 -12.789  0.00  0.00    +0.000 C 
ATOM      9  C   UNL     1       6.724   7.765 -12.292  0.00  0.00    +0.002 C 
ATOM     10  C   UNL     1       5.900   7.564 -11.057  0.00  0.00    +0.022 C 
ENDBRANCH   3   5
BRANCH   1  12
ATOM     11  O   UNL     1       2.077   3.905  -7.316  0.00  0.00    -0.126 OA
ATOM     12  N   UNL     1       2.668   3.600  -8.379  0.00  0.00    +0.053 NA
ENDBRANCH   1  12
BRANCH   1  13
ATOM     13  C   UNL     1       2.176   5.819  -9.215  0.00  0.00    +0.141 C 
BRANCH  13  14
ATOM     14  C   UNL     1       1.658   6.003 -10.637  0.00  0.00    +0.119 C 
ATOM     15 CL   UNL     1      -0.039   6.533 -10.495  0.00  0.00    -0.112 Cl
ENDBRANCH  13  14
ENDBRANCH   1  13
TORSDOF 4
ENDMDL
MODEL 8
REMARK VINA RESULT:      -5.5      3.135      5.356
REMARK  Name = 
REMARK  4 active torsions:
REMARK  status: ('A' for Active; 'I' for Inactive)
REMARK    1  A    between atoms: N_2  and  N_3
REMARK    2  A    between atoms: N_3  and  C_4
REMARK    3  A    between atoms: C_4  and  C_5
REMARK    4  A    between atoms: N_9  and  C_10
REMARK                            x       y       z     vdW  Elec       q    Type
REMARK                         _______ _______ _______ _____ _____    ______ ____
ROOT
ATOM      1  N   UNL     1       2.694   5.148  -3.793  0.00  0.00    -0.127 N 
ATOM      2  C   UNL     1       2.024   5.491  -5.008  0.00  0.00    +0.345 C 
ATOM      3  N   UNL     1       0.659   5.218  -5.256  0.00  0.00    -0.189 NA
ATOM      4  O   UNL     1       2.631   6.252  -5.808  0.00  0.00    -0.249 OA
ENDROOT
BRANCH   3   5
ATOM      5  C   UNL     1      -0.172   6.173  -5.929  0.00  0.00    +0.097 C 
ATOM      6  C   UNL     1      -1.234   5.584  -6.788  0.00  0.00    +0.022 C 
ATOM      7  C   UNL     1      -2.546   5.353  -6.104  0.00  0.00    +0.002 C 
ATOM      8  C   UNL     1      -2.532   5.918  -4.710  0.00  0.00    +0.000 C 
ATOM      9  C   UNL     1      -2.045   7.342  -4.724  0.00  0.00    +0.002 C 
ATOM     10  C   UNL     1      -0.593   7.333  -5.089  0.00  0.00    +0.022 C 
ENDBRANCH   3   5
BRANCH   1  12
ATOM     11  O   UNL     1       4.929   5.430  -3.578  0.00  0.00    -0.126 OA
ATOM     12  N   UNL     1       4.008   4.659  -3.935  0.00  0.00    +0.053 NA
ENDBRANCH   1  12
BRANCH   1  13
ATOM     13  C   UNL     1       2.482   6.033  -2.651  0.00  0.00    +0.141 C 
BRANCH  13  14
ATOM     14  C   UNL     1       1.853   5.225  -1.521  0.00  0.00    +0.119 C 
ATOM     15 CL   UNL     1       0.097   5.194  -1.836  0.00  0.00    -0.112 Cl
ENDBRANCH  13  14
ENDBRANCH   1  13
TORSDOF 4
ENDMDL
MODEL 9
REMARK VINA RESULT:      -5.5      1.851      2.283
REMARK  Name = 
REMARK  4 active torsions:
REMARK  status: ('A' for Active; 'I' for Inactive)
REMARK    1  A    between atoms: N_2  and  N_3
REMARK    2  A    between atoms: N_3  and  C_4
REMARK    3  A    between atoms: C_4  and  C_5
REMARK    4  A    between atoms: N_9  and  C_10
REMARK                            x       y       z     vdW  Elec       q    Type
REMARK                         _______ _______ _______ _____ _____    ______ ____
ROOT
ATOM      1  N   UNL     1       0.198   5.295  -3.679  0.00  0.00    -0.127 N 
ATOM      2  C   UNL     1       1.526   5.765  -3.921  0.00  0.00    +0.345 C 
ATOM      3  N   UNL     1       2.263   5.466  -5.090  0.00  0.00    -0.189 NA
ATOM      4  O   UNL     1       1.975   6.650  -3.146  0.00  0.00    -0.249 OA
ENDROOT
BRANCH   3   5
ATOM      5  C   UNL     1       3.077   6.463  -5.721  0.00  0.00    +0.097 C 
ATOM      6  C   UNL     1       4.468   6.034  -6.029  0.00  0.00    +0.022 C 
ATOM      7  C   UNL     1       4.659   5.430  -7.386  0.00  0.00    +0.002 C 
ATOM      8  C   UNL     1       3.398   5.531  -8.201  0.00  0.00    +0.000 C 
ATOM      9  C   UNL     1       2.871   6.941  -8.183  0.00  0.00    +0.002 C 
ATOM     10  C   UNL     1       2.390   7.239  -6.795  0.00  0.00    +0.022 C 
ENDBRANCH   3   5
BRANCH   1  12
ATOM     11  O   UNL     1      -1.273   4.968  -1.991  0.00  0.00    -0.126 OA
ATOM     12  N   UNL     1      -0.077   4.887  -2.359  0.00  0.00    +0.053 NA
ENDBRANCH   1  12
BRANCH   1  13
ATOM     13  C   UNL     1      -0.886   6.011  -4.346  0.00  0.00    +0.141 C 
BRANCH  13  14
ATOM     14  C   UNL     1      -0.998   5.501  -5.778  0.00  0.00    +0.119 C 
ATOM     15 CL   UNL     1      -2.614   5.977  -6.363  0.00  0.00    -0.112 Cl
ENDBRANCH  13  14
ENDBRANCH   1  13
TORSDOF 4
ENDMDL
