MODEL 1
REMARK VINA RESULT:      -7.2      0.000      0.000
REMARK  Name = 
REMARK  5 active torsions:
REMARK  status: ('A' for Active; 'I' for Inactive)
REMARK    1  A    between atoms: C_2  and  C_3
REMARK    2  A    between atoms: C_3  and  C_4
REMARK    3  A    between atoms: C_4  and  N_5
REMARK    4  A    between atoms: C_10  and  C_11
REMARK    5  A    between atoms: N_13  and  C_14
REMARK                            x       y       z     vdW  Elec       q    Type
REMARK                         _______ _______ _______ _____ _____    ______ ____
ROOT
ATOM      1  C   UNL     1       2.608   7.297  -7.755  0.00  0.00    +0.260 C 
ATOM      2  N   UNL     1       2.093   6.581  -8.849  0.00  0.00    -0.179 NA
ATOM      3  O   UNL     1       2.129   8.443  -8.028  0.00  0.00    -0.272 OA
ENDROOT
BRANCH   2   4
ATOM      4  C   UNL     1       2.572   6.431 -10.106  0.00  0.00    +0.065 A 
ATOM      5  C   UNL     1       1.561   6.368 -11.073  0.00  0.00    -0.007 A 
ATOM      6  C   UNL     1       0.205   6.952 -10.827  0.00  0.00    +0.032 C 
ATOM      7  C   UNL     1       1.820   6.048 -12.378  0.00  0.00    -0.003 A 
ATOM      8  C   UNL     1       3.056   5.598 -12.758  0.00  0.00    -0.001 A 
ATOM      9  C   UNL     1       4.102   5.895 -11.914  0.00  0.00    -0.003 A 
ATOM     10  C   UNL     1       3.823   6.229 -10.593  0.00  0.00    -0.007 A 
ATOM     11  C   UNL     1       4.903   6.007  -9.642  0.00  0.00    +0.032 C 
ENDBRANCH   2   4
BRANCH   1  13
ATOM     12  N   UNL     1       2.865   5.608  -6.227  0.00  0.00    -0.267 NA
ATOM     13  C   UNL     1       2.014   6.935  -6.296  0.00  0.00    +0.137 C 
ATOM     14  C   UNL     1       0.711   6.165  -6.930  0.00  0.00    +0.025 C 
ATOM     15  C   UNL     1       0.492   4.904  -6.224  0.00  0.00    +0.003 C 
ATOM     16  C   UNL     1       1.101   4.749  -4.878  0.00  0.00    +0.017 C 
ATOM     17  C   UNL     1       2.567   5.047  -4.914  0.00  0.00    +0.072 C 
BRANCH  12  18
ATOM     18  C   UNL     1       4.250   6.064  -6.109  0.00  0.00    +0.072 C 
BRANCH  18  19
ATOM     19  C   UNL     1       4.597   5.955  -4.656  0.00  0.00    +0.017 C 
BRANCH  19  21
ATOM     20  C   UNL     1       5.022   7.871  -4.185  0.00  0.00    +0.000 C 
ATOM     21  C   UNL     1       5.354   7.225  -4.291  0.00  0.00    +0.001 C 
ENDBRANCH  19  21
ENDBRANCH  18  19
ENDBRANCH  12  18
ENDBRANCH   1  13
TORSDOF 5
ENDMDL
MODEL 2
REMARK VINA RESULT:      -7.1      2.142      4.089
REMARK  Name = 
REMARK  5 active torsions:
REMARK  status: ('A' for Active; 'I' for Inactive)
REMARK    1  A    between atoms: C_2  and  C_3
REMARK    2  A    between atoms: C_3  and  C_4
REMARK    3  A    between atoms: C_4  and  N_5
REMARK    4  A    between atoms: C_10  and  C_11
REMARK    5  A    between atoms: N_13  and  C_14
REMARK                            x       y       z     vdW  Elec       q    Type
REMARK                         _______ _______ _______ _____ _____    ______ ____
ROOT
ATOM      1  C   UNL     1       1.887   4.619  -6.328  0.00  0.00    +0.260 C 
ATOM      2  N   UNL     1       2.395   5.142  -7.530  0.00  0.00    -0.179 NA
ATOM      3  O   UNL     1       2.163   3.392  -6.517  0.00  0.00    -0.272 OA
ENDROOT
BRANCH   2   4
ATOM      4  C   UNL     1       1.824   5.249  -8.753  0.00  0.00    +0.065 A 
ATOM      5  C   UNL     1       2.760   5.391  -9.783  0.00  0.00    -0.007 A 
ATOM      6  C   UNL     1       4.172   4.919  -9.628  0.00  0.00    +0.032 C 
ATOM      7  C   UNL     1       2.392   5.685 -11.068  0.00  0.00    -0.003 A 
ATOM      8  C   UNL     1       1.102   6.033 -11.366  0.00  0.00    -0.001 A 
ATOM      9  C   UNL     1       0.141   5.654 -10.455  0.00  0.00    -0.003 A 
ATOM     10  C   UNL     1       0.532   5.347  -9.156  0.00  0.00    -0.007 A 
ATOM     11  C   UNL     1      -0.499   5.484  -8.136  0.00  0.00    +0.032 C 
ENDBRANCH   2   4
BRANCH   1  13
ATOM     12  N   UNL     1       1.907   6.396  -4.881  0.00  0.00    -0.267 NA
ATOM     13  C   UNL     1       2.666   5.016  -4.968  0.00  0.00    +0.137 C 
ATOM     14  C   UNL     1       3.930   5.667  -5.789  0.00  0.00    +0.025 C 
ATOM     15  C   UNL     1       4.302   6.946  -5.186  0.00  0.00    +0.003 C 
ATOM     16  C   UNL     1       3.862   7.208  -3.791  0.00  0.00    +0.017 C 
ATOM     17  C   UNL     1       2.387   7.004  -3.645  0.00  0.00    +0.072 C 
BRANCH  12  18
ATOM     18  C   UNL     1       0.521   6.038  -4.583  0.00  0.00    +0.072 C 
BRANCH  18  19
ATOM     19  C   UNL     1      -0.300   7.239  -4.937  0.00  0.00    +0.017 C 
BRANCH  19  21
ATOM     20  C   UNL     1      -2.318   7.267  -4.943  0.00  0.00    +0.000 C 
ATOM     21  C   UNL     1      -1.756   6.794  -4.921  0.00  0.00    +0.001 C 
ENDBRANCH  19  21
ENDBRANCH  18  19
ENDBRANCH  12  18
ENDBRANCH   1  13
TORSDOF 5
ENDMDL
MODEL 3
REMARK VINA RESULT:      -7.1      2.479      5.644
REMARK  Name = 
REMARK  5 active torsions:
REMARK  status: ('A' for Active; 'I' for Inactive)
REMARK    1  A    between atoms: C_2  and  C_3
REMARK    2  A    between atoms: C_3  and  C_4
REMARK    3  A    between atoms: C_4  and  N_5
REMARK    4  A    between atoms: C_10  and  C_11
REMARK    5  A    between atoms: N_13  and  C_14
REMARK                            x       y       z     vdW  Elec       q    Type
REMARK                         _______ _______ _______ _____ _____    ______ ____
ROOT
ATOM      1  C   UNL     1       1.476   4.738  -6.138  0.00  0.00    +0.260 C 
ATOM      2  N   UNL     1       0.233   5.385  -6.024  0.00  0.00    -0.179 NA
ATOM      3  O   UNL     1       1.078   3.534  -6.043  0.00  0.00    -0.272 OA
ENDROOT
BRANCH   2   4
ATOM      4  C   UNL     1      -0.471   5.752  -4.927  0.00  0.00    +0.065 A 
ATOM      5  C   UNL     1      -1.775   6.163  -5.225  0.00  0.00    -0.007 A 
ATOM      6  C   UNL     1      -2.469   5.719  -6.475  0.00  0.00    +0.032 C 
ATOM      7  C   UNL     1      -2.593   6.732  -4.288  0.00  0.00    -0.003 A 
ATOM      8  C   UNL     1      -2.106   7.092  -3.060  0.00  0.00    -0.001 A 
ATOM      9  C   UNL     1      -0.941   6.479  -2.659  0.00  0.00    -0.003 A 
ATOM     10  C   UNL     1      -0.126   5.894  -3.622  0.00  0.00    -0.007 A 
ATOM     11  C   UNL     1       1.279   5.754  -3.263  0.00  0.00    +0.032 C 
ENDBRANCH   2   4
BRANCH   1  13
ATOM     12  N   UNL     1       2.850   6.220  -7.218  0.00  0.00    -0.267 NA
ATOM     13  C   UNL     1       2.217   4.820  -7.572  0.00  0.00    +0.137 C 
ATOM     14  C   UNL     1       0.911   5.499  -8.297  0.00  0.00    +0.025 C 
ATOM     15  C   UNL     1       1.340   6.615  -9.139  0.00  0.00    +0.003 C 
ATOM     16  C   UNL     1       2.765   6.659  -9.557  0.00  0.00    +0.017 C 
ATOM     17  C   UNL     1       3.675   6.555  -8.373  0.00  0.00    +0.072 C 
BRANCH  12  18
ATOM     18  C   UNL     1       3.821   5.930  -6.164  0.00  0.00    +0.072 C 
BRANCH  18  19
ATOM     19  C   UNL     1       3.969   7.198  -5.380  0.00  0.00    +0.017 C 
BRANCH  19  21
ATOM     20  C   UNL     1       5.476   7.516  -4.076  0.00  0.00    +0.000 C 
ATOM     21  C   UNL     1       5.097   6.967  -4.384  0.00  0.00    +0.001 C 
ENDBRANCH  19  21
ENDBRANCH  18  19
ENDBRANCH  12  18
ENDBRANCH   1  13
TORSDOF 5
ENDMDL
MODEL 4
REMARK VINA RESULT:      -7.0      2.154      4.818
REMARK  Name = 
REMARK  5 active torsions:
REMARK  status: ('A' for Active; 'I' for Inactive)
REMARK    1  A    between atoms: C_2  and  C_3
REMARK    2  A    between atoms: C_3  and  C_4
REMARK    3  A    between atoms: C_4  and  N_5
REMARK    4  A    between atoms: C_10  and  C_11
REMARK    5  A    between atoms: N_13  and  C_14
REMARK                            x       y       z     vdW  Elec       q    Type
REMARK                         _______ _______ _______ _____ _____    ______ ____
ROOT
ATOM      1  C   UNL     1       3.463   4.762  -9.074  0.00  0.00    +0.260 C 
ATOM      2  N   UNL     1       4.620   5.536  -9.279  0.00  0.00    -0.179 NA
ATOM      3  O   UNL     1       4.001   3.610  -9.048  0.00  0.00    -0.272 OA
ENDROOT
BRANCH   2   4
ATOM      4  C   UNL     1       5.268   5.862 -10.422  0.00  0.00    +0.065 A 
ATOM      5  C   UNL     1       6.623   6.145 -10.220  0.00  0.00    -0.007 A 
ATOM      6  C   UNL     1       7.367   5.610  -9.036  0.00  0.00    +0.032 C 
ATOM      7  C   UNL     1       7.417   6.660 -11.210  0.00  0.00    -0.003 A 
ATOM      8  C   UNL     1       6.873   7.092 -12.390  0.00  0.00    -0.001 A 
ATOM      9  C   UNL     1       5.628   6.598 -12.708  0.00  0.00    -0.003 A 
ATOM     10  C   UNL     1       4.838   6.067 -11.693  0.00  0.00    -0.007 A 
ATOM     11  C   UNL     1       3.403   6.064 -11.943  0.00  0.00    +0.032 C 
ENDBRANCH   2   4
BRANCH   1  13
ATOM     12  N   UNL     1       1.689   5.942  -8.230  0.00  0.00    -0.267 NA
ATOM     13  C   UNL     1       2.727   4.910  -7.643  0.00  0.00    +0.137 C 
ATOM     14  C   UNL     1       3.751   6.093  -7.149  0.00  0.00    +0.025 C 
ATOM     15  C   UNL     1       2.990   7.173  -6.522  0.00  0.00    +0.003 C 
ATOM     16  C   UNL     1       1.620   6.863  -6.036  0.00  0.00    +0.017 C 
ATOM     17  C   UNL     1       0.795   6.241  -7.117  0.00  0.00    +0.072 C 
BRANCH  12  18
ATOM     18  C   UNL     1       0.863   5.155  -9.145  0.00  0.00    +0.072 C 
BRANCH  18  19
ATOM     19  C   UNL     1       0.143   6.147 -10.006  0.00  0.00    +0.017 C 
BRANCH  19  21
ATOM     20  C   UNL     1      -0.090   4.731 -11.426  0.00  0.00    +0.000 C 
ATOM     21  C   UNL     1      -0.120   5.459 -11.339  0.00  0.00    +0.001 C 
ENDBRANCH  19  21
ENDBRANCH  18  19
ENDBRANCH  12  18
ENDBRANCH   1  13
TORSDOF 5
ENDMDL
MODEL 5
REMARK VINA RESULT:      -6.9      2.027      4.283
REMARK  Name = 
REMARK  5 active torsions:
REMARK  status: ('A' for Active; 'I' for Inactive)
REMARK    1  A    between atoms: C_2  and  C_3
REMARK    2  A    between atoms: C_3  and  C_4
REMARK    3  A    between atoms: C_4  and  N_5
REMARK    4  A    between atoms: C_10  and  C_11
REMARK    5  A    between atoms: N_13  and  C_14
REMARK                            x       y       z     vdW  Elec       q    Type
REMARK                         _______ _______ _______ _____ _____    ______ ____
ROOT
ATOM      1  C   UNL     1       3.499   5.019  -8.393  0.00  0.00    +0.260 C 
ATOM      2  N   UNL     1       4.776   5.454  -8.790  0.00  0.00    -0.179 NA
ATOM      3  O   UNL     1       3.592   3.799  -8.742  0.00  0.00    -0.272 OA
ENDROOT
BRANCH   2   4
ATOM      4  C   UNL     1       5.225   5.880  -9.994  0.00  0.00    +0.065 A 
ATOM      5  C   UNL     1       6.601   6.133 -10.007  0.00  0.00    -0.007 A 
ATOM      6  C   UNL     1       7.525   5.485  -9.023  0.00  0.00    +0.032 C 
ATOM      7  C   UNL     1       7.224   6.730 -11.069  0.00  0.00    -0.003 A 
ATOM      8  C   UNL     1       6.495   7.274 -12.093  0.00  0.00    -0.001 A 
ATOM      9  C   UNL     1       5.203   6.819 -12.233  0.00  0.00    -0.003 A 
ATOM     10  C   UNL     1       4.588   6.204 -11.148  0.00  0.00    -0.007 A 
ATOM     11  C   UNL     1       3.132   6.234 -11.144  0.00  0.00    +0.032 C 
ENDBRANCH   2   4
BRANCH   1  13
ATOM     12  N   UNL     1       2.377   6.319  -6.876  0.00  0.00    -0.267 NA
ATOM     13  C   UNL     1       3.200   4.976  -6.805  0.00  0.00    +0.137 C 
ATOM     14  C   UNL     1       4.598   5.754  -6.440  0.00  0.00    +0.025 C 
ATOM     15  C   UNL     1       4.339   6.791  -5.443  0.00  0.00    +0.003 C 
ATOM     16  C   UNL     1       3.096   6.679  -4.636  0.00  0.00    +0.017 C 
ATOM     17  C   UNL     1       1.895   6.530  -5.516  0.00  0.00    +0.072 C 
BRANCH  12  18
ATOM     18  C   UNL     1       1.170   5.974  -7.628  0.00  0.00    +0.072 C 
BRANCH  18  19
ATOM     19  C   UNL     1       0.302   5.204  -6.680  0.00  0.00    +0.017 C 
BRANCH  19  21
ATOM     20  C   UNL     1      -1.714   5.301  -6.680  0.00  0.00    +0.000 C 
ATOM     21  C   UNL     1      -1.138   5.446  -7.112  0.00  0.00    +0.001 C 
ENDBRANCH  19  21
ENDBRANCH  18  19
ENDBRANCH  12  18
ENDBRANCH   1  13
TORSDOF 5
ENDMDL
MODEL 6
REMARK VINA RESULT:      -6.8      2.158      3.036
REMARK  Name = 
REMARK  5 active torsions:
REMARK  status: ('A' for Active; 'I' for Inactive)
REMARK    1  A    between atoms: C_2  and  C_3
REMARK    2  A    between atoms: C_3  and  C_4
REMARK    3  A    between atoms: C_4  and  N_5
REMARK    4  A    between atoms: C_10  and  C_11
REMARK    5  A    between atoms: N_13  and  C_14
REMARK                            x       y       z     vdW  Elec       q    Type
REMARK                         _______ _______ _______ _____ _____    ______ ____
ROOT
ATOM      1  C   UNL     1       4.141   6.574  -9.139  0.00  0.00    +0.260 C 
ATOM      2  N   UNL     1       4.603   5.714 -10.151  0.00  0.00    -0.179 NA
ATOM      3  O   UNL     1       3.635   7.483  -9.871  0.00  0.00    -0.272 OA
ENDROOT
BRANCH   2   4
ATOM      4  C   UNL     1       5.758   5.726 -10.857  0.00  0.00    +0.065 A 
ATOM      5  C   UNL     1       5.564   5.519 -12.227  0.00  0.00    -0.007 A 
ATOM      6  C   UNL     1       4.253   5.815 -12.886  0.00  0.00    +0.032 C 
ATOM      7  C   UNL     1       6.608   5.324 -13.090  0.00  0.00    -0.003 A 
ATOM      8  C   UNL     1       7.882   5.143 -12.620  0.00  0.00    -0.001 A 
ATOM      9  C   UNL     1       8.133   5.593 -11.344  0.00  0.00    -0.003 A 
ATOM     10  C   UNL     1       7.060   5.797 -10.482  0.00  0.00    -0.007 A 
ATOM     11  C   UNL     1       7.371   5.738  -9.060  0.00  0.00    +0.032 C 
ENDBRANCH   2   4
BRANCH   1  13
ATOM     12  N   UNL     1       3.905   5.295  -7.252  0.00  0.00    -0.267 NA
ATOM     13  C   UNL     1       2.917   6.044  -8.228  0.00  0.00    +0.137 C 
ATOM     14  C   UNL     1       2.695   4.712  -9.160  0.00  0.00    +0.025 C 
ATOM     15  C   UNL     1       2.518   3.537  -8.308  0.00  0.00    +0.003 C 
ATOM     16  C   UNL     1       2.119   3.762  -6.894  0.00  0.00    +0.017 C 
ATOM     17  C   UNL     1       3.045   4.725  -6.221  0.00  0.00    +0.072 C 
BRANCH  12  18
ATOM     18  C   UNL     1       4.622   6.366  -6.561  0.00  0.00    +0.072 C 
BRANCH  18  19
ATOM     19  C   UNL     1       3.693   6.864  -5.497  0.00  0.00    +0.017 C 
BRANCH  19  21
ATOM     20  C   UNL     1       5.274   7.416  -4.369  0.00  0.00    +0.000 C 
ATOM     21  C   UNL     1       4.557   7.554  -4.450  0.00  0.00    +0.001 C 
ENDBRANCH  19  21
ENDBRANCH  18  19
ENDBRANCH  12  18
ENDBRANCH   1  13
TORSDOF 5
ENDMDL
MODEL 7
REMARK VINA RESULT:      -6.8      1.726      3.016
REMARK  Name = 
REMARK  5 active torsions:
REMARK  status: ('A' for Active; 'I' for Inactive)
REMARK    1  A    between atoms: C_2  and  C_3
REMARK    2  A    between atoms: C_3  and  C_4
REMARK    3  A    between atoms: C_4  and  N_5
REMARK    4  A    between atoms: C_10  and  C_11
REMARK    5  A    between atoms: N_13  and  C_14
REMARK                            x       y       z     vdW  Elec       q    Type
REMARK                         _______ _______ _______ _____ _____    ______ ____
ROOT
ATOM      1  C   UNL     1       3.204   6.515  -8.678  0.00  0.00    +0.260 C 
ATOM      2  N   UNL     1       3.825   5.529  -9.465  0.00  0.00    -0.179 NA
ATOM      3  O   UNL     1       2.658   7.190  -9.607  0.00  0.00    -0.272 OA
ENDROOT
BRANCH   2   4
ATOM      4  C   UNL     1       5.020   5.536 -10.102  0.00  0.00    +0.065 A 
ATOM      5  C   UNL     1       6.108   5.568  -9.223  0.00  0.00    -0.007 A 
ATOM      6  C   UNL     1       5.988   5.086  -7.810  0.00  0.00    +0.032 C 
ATOM      7  C   UNL     1       7.393   5.752  -9.658  0.00  0.00    -0.003 A 
ATOM      8  C   UNL     1       7.650   6.094 -10.958  0.00  0.00    -0.001 A 
ATOM      9  C   UNL     1       6.658   5.816 -11.872  0.00  0.00    -0.003 A 
ATOM     10  C   UNL     1       5.359   5.621 -11.413  0.00  0.00    -0.007 A 
ATOM     11  C   UNL     1       4.301   5.867 -12.383  0.00  0.00    +0.032 C 
ENDBRANCH   2   4
BRANCH   1  13
ATOM     12  N   UNL     1       2.939   5.879  -6.493  0.00  0.00    -0.267 NA
ATOM     13  C   UNL     1       1.981   6.038  -7.736  0.00  0.00    +0.137 C 
ATOM     14  C   UNL     1       2.151   4.466  -8.174  0.00  0.00    +0.025 C 
ATOM     15  C   UNL     1       2.076   3.613  -6.989  0.00  0.00    +0.003 C 
ATOM     16  C   UNL     1       1.439   4.177  -5.770  0.00  0.00    +0.017 C 
ATOM     17  C   UNL     1       2.060   5.486  -5.397  0.00  0.00    +0.072 C 
BRANCH  12  18
ATOM     18  C   UNL     1       3.334   7.246  -6.155  0.00  0.00    +0.072 C 
BRANCH  18  19
ATOM     19  C   UNL     1       3.652   7.232  -4.691  0.00  0.00    +0.017 C 
BRANCH  19  21
ATOM     20  C   UNL     1       5.529   7.296  -3.949  0.00  0.00    +0.000 C 
ATOM     21  C   UNL     1       5.157   7.433  -4.568  0.00  0.00    +0.001 C 
ENDBRANCH  19  21
ENDBRANCH  18  19
ENDBRANCH  12  18
ENDBRANCH   1  13
TORSDOF 5
ENDMDL
MODEL 8
REMARK VINA RESULT:      -6.7      1.965      6.000
REMARK  Name = 
REMARK  5 active torsions:
REMARK  status: ('A' for Active; 'I' for Inactive)
REMARK    1  A    between atoms: C_2  and  C_3
REMARK    2  A    between atoms: C_3  and  C_4
REMARK    3  A    between atoms: C_4  and  N_5
REMARK    4  A    between atoms: C_10  and  C_11
REMARK    5  A    between atoms: N_13  and  C_14
REMARK                            x       y       z     vdW  Elec       q    Type
REMARK                         _______ _______ _______ _____ _____    ______ ____
ROOT
ATOM      1  C   UNL     1       1.888   7.119  -8.166  0.00  0.00    +0.260 C 
ATOM      2  N   UNL     1       1.694   6.269  -7.062  0.00  0.00    -0.179 NA
ATOM      3  O   UNL     1       2.020   8.220  -7.543  0.00  0.00    -0.272 OA
ENDROOT
BRANCH   2   4
ATOM      4  C   UNL     1       0.569   5.964  -6.374  0.00  0.00    +0.065 A 
ATOM      5  C   UNL     1      -0.477   5.535  -7.199  0.00  0.00    -0.007 A 
ATOM      6  C   UNL     1      -0.217   4.951  -8.553  0.00  0.00    +0.032 C 
ATOM      7  C   UNL     1      -1.747   5.342  -6.727  0.00  0.00    -0.003 A 
ATOM      8  C   UNL     1      -2.092   5.738  -5.462  0.00  0.00    -0.001 A 
ATOM      9  C   UNL     1      -1.056   5.910  -4.571  0.00  0.00    -0.003 A 
ATOM     10  C   UNL     1       0.231   6.093  -5.066  0.00  0.00    -0.007 A 
ATOM     11  C   UNL     1       1.157   6.785  -4.181  0.00  0.00    +0.032 C 
ENDBRANCH   2   4
BRANCH   1  13
ATOM     12  N   UNL     1       2.534   6.111 -10.120  0.00  0.00    -0.267 NA
ATOM     13  C   UNL     1       3.263   6.941  -8.995  0.00  0.00    +0.137 C 
ATOM     14  C   UNL     1       3.687   5.595  -8.158  0.00  0.00    +0.025 C 
ATOM     15  C   UNL     1       4.172   4.572  -9.083  0.00  0.00    +0.003 C 
ATOM     16  C   UNL     1       4.624   5.014 -10.428  0.00  0.00    +0.017 C 
ATOM     17  C   UNL     1       3.572   5.833 -11.106  0.00  0.00    +0.072 C 
BRANCH  12  18
ATOM     18  C   UNL     1       1.663   7.078 -10.786  0.00  0.00    +0.072 C 
BRANCH  18  19
ATOM     19  C   UNL     1       0.741   6.275 -11.651  0.00  0.00    +0.017 C 
BRANCH  19  21
ATOM     20  C   UNL     1      -0.735   7.651 -11.617  0.00  0.00    +0.000 C 
ATOM     21  C   UNL     1      -0.632   6.927 -11.551  0.00  0.00    +0.001 C 
ENDBRANCH  19  21
ENDBRANCH  18  19
ENDBRANCH  12  18
ENDBRANCH   1  13
TORSDOF 5
ENDMDL
MODEL 9
REMARK VINA RESULT:      -6.7      1.857      5.573
REMARK  Name = 
REMARK  5 active torsions:
REMARK  status: ('A' for Active; 'I' for Inactive)
REMARK    1  A    between atoms: C_2  and  C_3
REMARK    2  A    between atoms: C_3  and  C_4
REMARK    3  A    between atoms: C_4  and  N_5
REMARK    4  A    between atoms: C_10  and  C_11
REMARK    5  A    between atoms: N_13  and  C_14
REMARK                            x       y       z     vdW  Elec       q    Type
REMARK                         _______ _______ _______ _____ _____    ______ ____
ROOT
ATOM      1  C   UNL     1       2.504   4.714  -9.024  0.00  0.00    +0.260 C 
ATOM      2  N   UNL     1       1.864   5.337  -7.938  0.00  0.00    -0.179 NA
ATOM      3  O   UNL     1       2.362   3.503  -8.665  0.00  0.00    -0.272 OA
ENDROOT
BRANCH   2   4
ATOM      4  C   UNL     1       2.341   5.689  -6.721  0.00  0.00    +0.065 A 
ATOM      5  C   UNL     1       1.340   6.133  -5.849  0.00  0.00    -0.007 A 
ATOM      6  C   UNL     1      -0.091   5.735  -6.033  0.00  0.00    +0.032 C 
ATOM      7  C   UNL     1       1.627   6.695  -4.635  0.00  0.00    -0.003 A 
ATOM      8  C   UNL     1       2.915   7.014  -4.297  0.00  0.00    -0.001 A 
ATOM      9  C   UNL     1       3.909   6.368  -4.997  0.00  0.00    -0.003 A 
ATOM     10  C   UNL     1       3.599   5.792  -6.224  0.00  0.00    -0.007 A 
ATOM     11  C   UNL     1       4.717   5.615  -7.141  0.00  0.00    +0.032 C 
ENDBRANCH   2   4
BRANCH   1  13
ATOM     12  N   UNL     1       2.424   6.217 -10.753  0.00  0.00    -0.267 NA
ATOM     13  C   UNL     1       1.771   4.811 -10.461  0.00  0.00    +0.137 C 
ATOM     14  C   UNL     1       0.418   5.479  -9.815  0.00  0.00    +0.025 C 
ATOM     15  C   UNL     1      -0.019   6.604 -10.641  0.00  0.00    +0.003 C 
ATOM     16  C   UNL     1       0.473   6.666 -12.042  0.00  0.00    +0.017 C 
ATOM     17  C   UNL     1       1.965   6.567 -12.093  0.00  0.00    +0.072 C 
BRANCH  12  18
ATOM     18  C   UNL     1       3.847   5.933 -10.930  0.00  0.00    +0.072 C 
BRANCH  18  19
ATOM     19  C   UNL     1       4.572   7.164 -10.480  0.00  0.00    +0.017 C 
BRANCH  19  21
ATOM     20  C   UNL     1       6.300   7.830 -11.282  0.00  0.00    +0.000 C 
ATOM     21  C   UNL     1       5.825   7.273 -11.338  0.00  0.00    +0.001 C 
ENDBRANCH  19  21
ENDBRANCH  18  19
ENDBRANCH  12  18
ENDBRANCH   1  13
TORSDOF 5
ENDMDL
