MODEL 1
REMARK VINA RESULT:      -5.6      0.000      0.000
REMARK  Name = 
REMARK  3 active torsions:
REMARK  status: ('A' for Active; 'I' for Inactive)
REMARK    1  A    between atoms: N_2  and  C_3
REMARK    2  A    between atoms: C_3  and  C_4
REMARK    3  A    between atoms: C_4  and  C_6
REMARK                            x       y       z     vdW  Elec       q    Type
REMARK                         _______ _______ _______ _____ _____    ______ ____
ROOT
ATOM      1  C   UNL     1       4.984   6.253 -10.208  0.00  0.00    +0.013 A 
ATOM      2  C   UNL     1       4.609   5.662 -11.412  0.00  0.00    +0.044 A 
ATOM      3  C   UNL     1       5.602   5.393 -12.345  0.00  0.00    +0.234 A 
ATOM      4  O   UNL     1       5.266   4.684 -13.501  0.00  0.00    -0.283 OA
ATOM      5  C   UNL     1       6.935   5.364 -11.984  0.00  0.00    +0.234 A 
ATOM      6  O   UNL     1       7.846   4.594 -12.687  0.00  0.00    -0.283 OA
ATOM      7  C   UNL     1       7.285   5.935 -10.770  0.00  0.00    +0.045 A 
ATOM      8  C   UNL     1       6.289   6.084  -9.816  0.00  0.00    +0.002 A 
ENDROOT
BRANCH   1   9
ATOM      9  C   UNL     1       3.915   5.781  -9.033  0.00  0.00    +0.192 C 
ATOM     10  O   UNL     1       3.350   7.223  -8.903  0.00  0.00    -0.217 OA
BRANCH   9  11
ATOM     11  C   UNL     1       2.753   5.393 -10.192  0.00  0.00    +0.126 C 
BRANCH  11  13
ATOM     12  C   UNL     1       2.643   3.749  -8.543  0.00  0.00    +0.108 C 
ATOM     13  N   UNL     1       1.837   4.556  -9.417  0.00  0.00    -0.213 NA
ENDBRANCH  11  13
ENDBRANCH   9  11
ENDBRANCH   1   9
TORSDOF 3
ENDMDL
MODEL 2
REMARK VINA RESULT:      -5.5      5.814      9.059
REMARK  Name = 
REMARK  3 active torsions:
REMARK  status: ('A' for Active; 'I' for Inactive)
REMARK    1  A    between atoms: N_2  and  C_3
REMARK    2  A    between atoms: C_3  and  C_4
REMARK    3  A    between atoms: C_4  and  C_6
REMARK                            x       y       z     vdW  Elec       q    Type
REMARK                         _______ _______ _______ _____ _____    ______ ____
ROOT
ATOM      1  C   UNL     1       0.084   6.462  -4.968  0.00  0.00    +0.013 A 
ATOM      2  C   UNL     1       0.347   5.925  -3.710  0.00  0.00    +0.044 A 
ATOM      3  C   UNL     1      -0.735   5.582  -2.908  0.00  0.00    +0.234 A 
ATOM      4  O   UNL     1      -0.494   4.923  -1.699  0.00  0.00    -0.283 OA
ATOM      5  C   UNL     1      -2.000   5.426  -3.440  0.00  0.00    +0.234 A 
ATOM      6  O   UNL     1      -2.924   4.587  -2.842  0.00  0.00    -0.283 OA
ATOM      7  C   UNL     1      -2.234   5.945  -4.704  0.00  0.00    +0.045 A 
ATOM      8  C   UNL     1      -1.137   6.170  -5.523  0.00  0.00    +0.002 A 
ENDROOT
BRANCH   1   9
ATOM      9  C   UNL     1       1.337   6.072  -5.979  0.00  0.00    +0.192 C 
ATOM     10  O   UNL     1       2.295   5.839  -4.779  0.00  0.00    -0.217 OA
BRANCH   9  11
ATOM     11  C   UNL     1       0.884   4.447  -5.978  0.00  0.00    +0.126 C 
BRANCH  11  13
ATOM     12  C   UNL     1       2.366   4.037  -7.730  0.00  0.00    +0.108 C 
ATOM     13  N   UNL     1       2.144   3.793  -6.331  0.00  0.00    -0.213 NA
ENDBRANCH  11  13
ENDBRANCH   9  11
ENDBRANCH   1   9
TORSDOF 3
ENDMDL
MODEL 3
REMARK VINA RESULT:      -5.4      2.672      5.104
REMARK  Name = 
REMARK  3 active torsions:
REMARK  status: ('A' for Active; 'I' for Inactive)
REMARK    1  A    between atoms: N_2  and  C_3
REMARK    2  A    between atoms: C_3  and  C_4
REMARK    3  A    between atoms: C_4  and  C_6
REMARK                            x       y       z     vdW  Elec       q    Type
REMARK                         _______ _______ _______ _____ _____    ______ ____
ROOT
ATOM      1  C   UNL     1       4.169   5.610  -9.358  0.00  0.00    +0.013 A 
ATOM      2  C   UNL     1       3.323   6.714  -9.277  0.00  0.00    +0.044 A 
ATOM      3  C   UNL     1       2.876   7.103  -8.021  0.00  0.00    +0.234 A 
ATOM      4  O   UNL     1       2.134   8.282  -7.906  0.00  0.00    -0.283 OA
ATOM      5  C   UNL     1       3.506   6.671  -6.870  0.00  0.00    +0.234 A 
ATOM      6  O   UNL     1       3.469   7.429  -5.712  0.00  0.00    -0.283 OA
ATOM      7  C   UNL     1       4.365   5.588  -6.976  0.00  0.00    +0.045 A 
ATOM      8  C   UNL     1       4.884   5.296  -8.229  0.00  0.00    +0.002 A 
ENDROOT
BRANCH   1   9
ATOM      9  C   UNL     1       5.146   5.791 -10.683  0.00  0.00    +0.192 C 
ATOM     10  O   UNL     1       5.039   7.339 -10.609  0.00  0.00    -0.217 OA
BRANCH   9  11
ATOM     11  C   UNL     1       6.526   5.804  -9.713  0.00  0.00    +0.126 C 
BRANCH  11  13
ATOM     12  C   UNL     1       8.119   5.503 -11.389  0.00  0.00    +0.108 C 
ATOM     13  N   UNL     1       7.481   6.501 -10.574  0.00  0.00    -0.213 NA
ENDBRANCH  11  13
ENDBRANCH   9  11
ENDBRANCH   1   9
TORSDOF 3
ENDMDL
MODEL 4
REMARK VINA RESULT:      -5.4      2.752      4.594
REMARK  Name = 
REMARK  3 active torsions:
REMARK  status: ('A' for Active; 'I' for Inactive)
REMARK    1  A    between atoms: N_2  and  C_3
REMARK    2  A    between atoms: C_3  and  C_4
REMARK    3  A    between atoms: C_4  and  C_6
REMARK                            x       y       z     vdW  Elec       q    Type
REMARK                         _______ _______ _______ _____ _____    ______ ____
ROOT
ATOM      1  C   UNL     1       6.142   5.532 -10.691  0.00  0.00    +0.013 A 
ATOM      2  C   UNL     1       4.775   5.484 -10.950  0.00  0.00    +0.044 A 
ATOM      3  C   UNL     1       3.927   5.110  -9.914  0.00  0.00    +0.234 A 
ATOM      4  O   UNL     1       2.546   5.182 -10.116  0.00  0.00    -0.283 OA
ATOM      5  C   UNL     1       4.348   5.135  -8.599  0.00  0.00    +0.234 A 
ATOM      6  O   UNL     1       3.444   5.318  -7.566  0.00  0.00    -0.283 OA
ATOM      7  C   UNL     1       5.712   5.209  -8.362  0.00  0.00    +0.045 A 
ATOM      8  C   UNL     1       6.518   5.696  -9.381  0.00  0.00    +0.002 A 
ENDROOT
BRANCH   1   9
ATOM      9  C   UNL     1       6.827   6.669 -11.682  0.00  0.00    +0.192 C 
ATOM     10  O   UNL     1       7.564   7.335 -10.488  0.00  0.00    -0.217 OA
BRANCH   9  11
ATOM     11  C   UNL     1       8.149   5.666 -11.984  0.00  0.00    +0.126 C 
BRANCH  11  13
ATOM     12  C   UNL     1       7.148   5.676 -14.091  0.00  0.00    +0.108 C 
ATOM     13  N   UNL     1       7.627   4.809 -13.049  0.00  0.00    -0.213 NA
ENDBRANCH  11  13
ENDBRANCH   9  11
ENDBRANCH   1   9
TORSDOF 3
ENDMDL
MODEL 5
REMARK VINA RESULT:      -5.2      2.016      2.232
REMARK  Name = 
REMARK  3 active torsions:
REMARK  status: ('A' for Active; 'I' for Inactive)
REMARK    1  A    between atoms: N_2  and  C_3
REMARK    2  A    between atoms: C_3  and  C_4
REMARK    3  A    between atoms: C_4  and  C_6
REMARK                            x       y       z     vdW  Elec       q    Type
REMARK                         _______ _______ _______ _____ _____    ______ ____
ROOT
ATOM      1  C   UNL     1       4.579   6.077  -9.330  0.00  0.00    +0.013 A 
ATOM      2  C   UNL     1       4.745   6.860 -10.469  0.00  0.00    +0.044 A 
ATOM      3  C   UNL     1       6.040   7.175 -10.861  0.00  0.00    +0.234 A 
ATOM      4  O   UNL     1       6.232   7.848 -12.071  0.00  0.00    -0.283 OA
ATOM      5  C   UNL     1       7.126   6.466 -10.385  0.00  0.00    +0.234 A 
ATOM      6  O   UNL     1       8.290   6.365 -11.128  0.00  0.00    -0.283 OA
ATOM      7  C   UNL     1       6.934   5.672  -9.266  0.00  0.00    +0.045 A 
ATOM      8  C   UNL     1       5.637   5.280  -8.967  0.00  0.00    +0.002 A 
ENDROOT
BRANCH   1   9
ATOM      9  C   UNL     1       3.173   5.214  -9.484  0.00  0.00    +0.192 C 
ATOM     10  O   UNL     1       3.906   3.877  -9.182  0.00  0.00    -0.217 OA
BRANCH   9  11
ATOM     11  C   UNL     1       2.816   5.428  -7.849  0.00  0.00    +0.126 C 
BRANCH  11  13
ATOM     12  C   UNL     1       1.984   4.148  -6.087  0.00  0.00    +0.108 C 
ATOM     13  N   UNL     1       2.371   4.087  -7.470  0.00  0.00    -0.213 NA
ENDBRANCH  11  13
ENDBRANCH   9  11
ENDBRANCH   1   9
TORSDOF 3
ENDMDL
MODEL 6
REMARK VINA RESULT:      -4.9      1.598      2.043
REMARK  Name = 
REMARK  3 active torsions:
REMARK  status: ('A' for Active; 'I' for Inactive)
REMARK    1  A    between atoms: N_2  and  C_3
REMARK    2  A    between atoms: C_3  and  C_4
REMARK    3  A    between atoms: C_4  and  C_6
REMARK                            x       y       z     vdW  Elec       q    Type
REMARK                         _______ _______ _______ _____ _____    ______ ____
ROOT
ATOM      1  C   UNL     1       4.807   6.448 -11.475  0.00  0.00    +0.013 A 
ATOM      2  C   UNL     1       5.351   5.571 -12.410  0.00  0.00    +0.044 A 
ATOM      3  C   UNL     1       6.695   5.712 -12.732  0.00  0.00    +0.234 A 
ATOM      4  O   UNL     1       7.290   4.762 -13.567  0.00  0.00    -0.283 OA
ATOM      5  C   UNL     1       7.555   6.428 -11.922  0.00  0.00    +0.234 A 
ATOM      6  O   UNL     1       8.908   6.138 -11.888  0.00  0.00    -0.283 OA
ATOM      7  C   UNL     1       6.994   7.277 -10.980  0.00  0.00    +0.045 A 
ATOM      8  C   UNL     1       5.682   7.037 -10.597  0.00  0.00    +0.002 A 
ENDROOT
BRANCH   1   9
ATOM      9  C   UNL     1       3.562   5.682 -10.695  0.00  0.00    +0.192 C 
ATOM     10  O   UNL     1       3.357   6.889  -9.739  0.00  0.00    -0.217 OA
BRANCH   9  11
ATOM     11  C   UNL     1       2.440   6.311 -11.786  0.00  0.00    +0.126 C 
BRANCH  11  13
ATOM     12  C   UNL     1       0.870   4.952 -12.848  0.00  0.00    +0.108 C 
ATOM     13  N   UNL     1       1.291   5.433 -11.560  0.00  0.00    -0.213 NA
ENDBRANCH  11  13
ENDBRANCH   9  11
ENDBRANCH   1   9
TORSDOF 3
ENDMDL
MODEL 7
REMARK VINA RESULT:      -4.9      2.118      2.649
REMARK  Name = 
REMARK  3 active torsions:
REMARK  status: ('A' for Active; 'I' for Inactive)
REMARK    1  A    between atoms: N_2  and  C_3
REMARK    2  A    between atoms: C_3  and  C_4
REMARK    3  A    between atoms: C_4  and  C_6
REMARK                            x       y       z     vdW  Elec       q    Type
REMARK                         _______ _______ _______ _____ _____    ______ ____
ROOT
ATOM      1  C   UNL     1       4.108   5.815  -8.989  0.00  0.00    +0.013 A 
ATOM      2  C   UNL     1       5.406   5.375  -8.737  0.00  0.00    +0.044 A 
ATOM      3  C   UNL     1       6.396   5.707  -9.653  0.00  0.00    +0.234 A 
ATOM      4  O   UNL     1       7.724   5.388  -9.353  0.00  0.00    -0.283 OA
ATOM      5  C   UNL     1       6.211   6.719 -10.574  0.00  0.00    +0.234 A 
ATOM      6  O   UNL     1       7.288   7.423 -11.083  0.00  0.00    -0.283 OA
ATOM      7  C   UNL     1       4.915   7.160 -10.792  0.00  0.00    +0.045 A 
ATOM      8  C   UNL     1       3.974   6.912  -9.803  0.00  0.00    +0.002 A 
ENDROOT
BRANCH   1   9
ATOM      9  C   UNL     1       3.329   6.015  -7.541  0.00  0.00    +0.192 C 
ATOM     10  O   UNL     1       2.818   7.422  -7.957  0.00  0.00    -0.217 OA
BRANCH   9  11
ATOM     11  C   UNL     1       1.933   5.289  -8.147  0.00  0.00    +0.126 C 
BRANCH  11  13
ATOM     12  C   UNL     1       2.019   3.843  -6.320  0.00  0.00    +0.108 C 
ATOM     13  N   UNL     1       1.248   4.900  -6.914  0.00  0.00    -0.213 NA
ENDBRANCH  11  13
ENDBRANCH   9  11
ENDBRANCH   1   9
TORSDOF 3
ENDMDL
MODEL 8
REMARK VINA RESULT:      -4.8      3.927      6.943
REMARK  Name = 
REMARK  3 active torsions:
REMARK  status: ('A' for Active; 'I' for Inactive)
REMARK    1  A    between atoms: N_2  and  C_3
REMARK    2  A    between atoms: C_3  and  C_4
REMARK    3  A    between atoms: C_4  and  C_6
REMARK                            x       y       z     vdW  Elec       q    Type
REMARK                         _______ _______ _______ _____ _____    ______ ____
ROOT
ATOM      1  C   UNL     1       1.337   6.175  -7.397  0.00  0.00    +0.013 A 
ATOM      2  C   UNL     1       0.044   5.688  -7.575  0.00  0.00    +0.044 A 
ATOM      3  C   UNL     1      -0.744   5.501  -6.446  0.00  0.00    +0.234 A 
ATOM      4  O   UNL     1      -2.084   5.138  -6.613  0.00  0.00    -0.283 OA
ATOM      5  C   UNL     1      -0.425   6.097  -5.242  0.00  0.00    +0.234 A 
ATOM      6  O   UNL     1      -1.407   6.394  -4.313  0.00  0.00    -0.283 OA
ATOM      7  C   UNL     1       0.859   6.598  -5.093  0.00  0.00    +0.045 A 
ATOM      8  C   UNL     1       1.578   6.883  -6.245  0.00  0.00    +0.002 A 
ENDROOT
BRANCH   1   9
ATOM      9  C   UNL     1       1.772   7.023  -8.752  0.00  0.00    +0.192 C 
ATOM     10  O   UNL     1       2.119   8.281  -7.910  0.00  0.00    -0.217 OA
BRANCH   9  11
ATOM     11  C   UNL     1       3.360   6.465  -8.638  0.00  0.00    +0.126 C 
BRANCH  11  13
ATOM     12  C   UNL     1       4.410   5.186 -10.280  0.00  0.00    +0.108 C 
ATOM     13  N   UNL     1       3.283   5.212  -9.388  0.00  0.00    -0.213 NA
ENDBRANCH  11  13
ENDBRANCH   9  11
ENDBRANCH   1   9
TORSDOF 3
ENDMDL
MODEL 9
REMARK VINA RESULT:      -4.8      2.310      4.891
REMARK  Name = 
REMARK  3 active torsions:
REMARK  status: ('A' for Active; 'I' for Inactive)
REMARK    1  A    between atoms: N_2  and  C_3
REMARK    2  A    between atoms: C_3  and  C_4
REMARK    3  A    between atoms: C_4  and  C_6
REMARK                            x       y       z     vdW  Elec       q    Type
REMARK                         _______ _______ _______ _____ _____    ______ ____
ROOT
ATOM      1  C   UNL     1       4.272   6.131  -9.552  0.00  0.00    +0.013 A 
ATOM      2  C   UNL     1       3.364   7.149  -9.271  0.00  0.00    +0.044 A 
ATOM      3  C   UNL     1       2.806   7.194  -8.000  0.00  0.00    +0.234 A 
ATOM      4  O   UNL     1       1.994   8.279  -7.659  0.00  0.00    -0.283 OA
ATOM      5  C   UNL     1       3.372   6.508  -6.944  0.00  0.00    +0.234 A 
ATOM      6  O   UNL     1       3.209   6.947  -5.641  0.00  0.00    -0.283 OA
ATOM      7  C   UNL     1       4.294   5.516  -7.242  0.00  0.00    +0.045 A 
ATOM      8  C   UNL     1       4.918   5.567  -8.480  0.00  0.00    +0.002 A 
ENDROOT
BRANCH   1   9
ATOM      9  C   UNL     1       5.333   6.673 -10.703  0.00  0.00    +0.192 C 
ATOM     10  O   UNL     1       6.525   5.960 -10.008  0.00  0.00    -0.217 OA
BRANCH   9  11
ATOM     11  C   UNL     1       5.039   5.320 -11.666  0.00  0.00    +0.126 C 
BRANCH  11  13
ATOM     12  C   UNL     1       4.031   5.084 -13.756  0.00  0.00    +0.108 C 
ATOM     13  N   UNL     1       3.944   5.798 -12.511  0.00  0.00    -0.213 NA
ENDBRANCH  11  13
ENDBRANCH   9  11
ENDBRANCH   1   9
TORSDOF 3
ENDMDL
