MODEL 1
REMARK VINA RESULT:      -9.0      0.000      0.000
REMARK  Name = 
REMARK  9 active torsions:
REMARK  status: ('A' for Active; 'I' for Inactive)
REMARK    1  A    between atoms: C_2  and  N_3
REMARK    2  A    between atoms: N_3  and  C_4
REMARK    3  A    between atoms: N_3  and  C_6
REMARK    4  A    between atoms: C_6  and  C_7
REMARK    5  A    between atoms: C_7  and  O_8
REMARK    6  A    between atoms: O_8  and  C_9
REMARK    7  A    between atoms: C_12  and  C_13
REMARK    8  A    between atoms: C_13  and  C_22
REMARK    9  A    between atoms: C_14  and  C_16
REMARK                            x       y       z     vdW  Elec       q    Type
REMARK                         _______ _______ _______ _____ _____    ______ ____
ROOT
ATOM      1  C   UNL     1       1.146   5.924  -5.424  0.00  0.00    +0.011 C 
ATOM      2  C   UNL     1       1.597   5.580  -4.219  0.00  0.00    +0.058 C 
ATOM      3 CL   UNL     1       0.416   4.967  -3.091  0.00  0.00    -0.082 Cl
ENDROOT
BRANCH   1   7
ATOM      4  C   UNL     1       3.011   6.131  -9.109  0.00  0.00    +0.139 A 
ATOM      5  C   UNL     1       3.049   4.925  -8.423  0.00  0.00    +0.037 A 
ATOM      6  C   UNL     1       2.270   4.869  -7.275  0.00  0.00    +0.003 A 
ATOM      7  C   UNL     1       2.167   6.002  -6.477  0.00  0.00    +0.001 A 
ATOM      8  C   UNL     1       2.206   7.207  -7.171  0.00  0.00    +0.003 A 
ATOM      9  C   UNL     1       2.828   7.314  -8.411  0.00  0.00    +0.037 A 
BRANCH   4  10
ATOM     10  O   UNL     1       3.346   6.152 -10.461  0.00  0.00    -0.474 OA
BRANCH  10  11
ATOM     11  C   UNL     1       4.366   5.279 -10.931  0.00  0.00    +0.223 C 
BRANCH  11  12
ATOM     12  C   UNL     1       5.359   6.042 -11.799  0.00  0.00    +0.120 C 
BRANCH  12  13
ATOM     13  N   UNL     1       6.677   5.789 -11.227  0.00  0.00    -0.270 NA
BRANCH  13  15
ATOM     14  C   UNL     1       6.436   8.218 -11.348  0.00  0.00    +0.019 C 
ATOM     15  C   UNL     1       7.303   7.056 -10.892  0.00  0.00    +0.072 C 
ENDBRANCH  13  15
BRANCH  13  16
ATOM     16  C   UNL     1       7.533   5.148 -12.208  0.00  0.00    +0.072 C 
ATOM     17  C   UNL     1       8.914   5.776 -12.070  0.00  0.00    +0.019 C 
ENDBRANCH  13  16
ENDBRANCH  12  13
ENDBRANCH  11  12
ENDBRANCH  10  11
ENDBRANCH   4  10
ENDBRANCH   1   7
BRANCH   2  18
ATOM     18  C   UNL     1       2.916   5.992  -3.730  0.00  0.00    +0.011 A 
ATOM     19  C   UNL     1       4.062   5.275  -3.953  0.00  0.00    +0.001 A 
ATOM     20  C   UNL     1       5.318   5.867  -4.001  0.00  0.00    +0.000 A 
ATOM     21  C   UNL     1       5.423   7.253  -3.992  0.00  0.00    +0.000 A 
ATOM     22  C   UNL     1       4.348   7.924  -3.424  0.00  0.00    +0.000 A 
ATOM     23  C   UNL     1       3.095   7.325  -3.376  0.00  0.00    +0.001 A 
ENDBRANCH   2  18
BRANCH   1  24
ATOM     24  C   UNL     1      -0.214   6.443  -5.624  0.00  0.00    +0.001 A 
ATOM     25  C   UNL     1      -1.222   5.630  -6.130  0.00  0.00    +0.000 A 
ATOM     26  C   UNL     1      -2.524   6.108  -6.116  0.00  0.00    +0.000 A 
ATOM     27  C   UNL     1      -2.895   7.230  -5.410  0.00  0.00    +0.000 A 
ATOM     28  C   UNL     1      -1.930   7.905  -4.711  0.00  0.00    +0.000 A 
ATOM     29  C   UNL     1      -0.623   7.474  -4.791  0.00  0.00    +0.000 A 
ENDBRANCH   1  24
TORSDOF 9
ENDMDL
MODEL 2
REMARK VINA RESULT:      -9.0      1.094      1.673
REMARK  Name = 
REMARK  9 active torsions:
REMARK  status: ('A' for Active; 'I' for Inactive)
REMARK    1  A    between atoms: C_2  and  N_3
REMARK    2  A    between atoms: N_3  and  C_4
REMARK    3  A    between atoms: N_3  and  C_6
REMARK    4  A    between atoms: C_6  and  C_7
REMARK    5  A    between atoms: C_7  and  O_8
REMARK    6  A    between atoms: O_8  and  C_9
REMARK    7  A    between atoms: C_12  and  C_13
REMARK    8  A    between atoms: C_13  and  C_22
REMARK    9  A    between atoms: C_14  and  C_16
REMARK                            x       y       z     vdW  Elec       q    Type
REMARK                         _______ _______ _______ _____ _____    ______ ____
ROOT
ATOM      1  C   UNL     1       0.817   5.628  -4.877  0.00  0.00    +0.011 C 
ATOM      2  C   UNL     1       1.469   5.434  -3.731  0.00  0.00    +0.058 C 
ATOM      3 CL   UNL     1       0.499   4.991  -2.350  0.00  0.00    -0.082 Cl
ENDROOT
BRANCH   1   7
ATOM      4  C   UNL     1       2.030   5.270  -8.814  0.00  0.00    +0.139 A 
ATOM      5  C   UNL     1       2.235   4.191  -7.965  0.00  0.00    +0.037 A 
ATOM      6  C   UNL     1       1.662   4.308  -6.705  0.00  0.00    +0.003 A 
ATOM      7  C   UNL     1       1.644   5.553  -6.088  0.00  0.00    +0.001 A 
ATOM      8  C   UNL     1       1.513   6.630  -6.958  0.00  0.00    +0.003 A 
ATOM      9  C   UNL     1       1.913   6.547  -8.287  0.00  0.00    +0.037 A 
BRANCH   4  10
ATOM     10  O   UNL     1       2.132   5.078 -10.190  0.00  0.00    -0.474 OA
BRANCH  10  11
ATOM     11  C   UNL     1       2.858   6.024 -10.965  0.00  0.00    +0.223 C 
BRANCH  11  12
ATOM     12  C   UNL     1       4.308   5.585 -11.117  0.00  0.00    +0.120 C 
BRANCH  12  13
ATOM     13  N   UNL     1       5.095   6.475 -10.271  0.00  0.00    -0.270 NA
BRANCH  13  15
ATOM     14  C   UNL     1       7.203   7.535 -10.906  0.00  0.00    +0.019 C 
ATOM     15  C   UNL     1       5.695   7.509 -11.094  0.00  0.00    +0.072 C 
ENDBRANCH  13  15
BRANCH  13  16
ATOM     16  C   UNL     1       6.188   5.745  -9.655  0.00  0.00    +0.072 C 
ATOM     17  C   UNL     1       5.674   5.218  -8.321  0.00  0.00    +0.019 C 
ENDBRANCH  13  16
ENDBRANCH  12  13
ENDBRANCH  11  12
ENDBRANCH  10  11
ENDBRANCH   4  10
ENDBRANCH   1   7
BRANCH   2  18
ATOM     18  C   UNL     1       2.850   5.881  -3.530  0.00  0.00    +0.011 A 
ATOM     19  C   UNL     1       3.943   5.099  -3.795  0.00  0.00    +0.001 A 
ATOM     20  C   UNL     1       5.179   5.632  -4.138  0.00  0.00    +0.000 A 
ATOM     21  C   UNL     1       5.292   6.994  -4.392  0.00  0.00    +0.000 A 
ATOM     22  C   UNL     1       4.322   7.788  -3.794  0.00  0.00    +0.000 A 
ATOM     23  C   UNL     1       3.089   7.248  -3.449  0.00  0.00    +0.001 A 
ENDBRANCH   2  18
BRANCH   1  24
ATOM     24  C   UNL     1      -0.559   6.141  -4.908  0.00  0.00    +0.001 A 
ATOM     25  C   UNL     1      -0.843   7.450  -4.536  0.00  0.00    +0.000 A 
ATOM     26  C   UNL     1      -2.119   7.940  -4.767  0.00  0.00    +0.000 A 
ATOM     27  C   UNL     1      -3.033   7.284  -5.561  0.00  0.00    +0.000 A 
ATOM     28  C   UNL     1      -2.663   6.093  -6.126  0.00  0.00    +0.000 A 
ATOM     29  C   UNL     1      -1.423   5.569  -5.830  0.00  0.00    +0.000 A 
ENDBRANCH   1  24
TORSDOF 9
ENDMDL
MODEL 3
REMARK VINA RESULT:      -8.8      3.498      8.496
REMARK  Name = 
REMARK  9 active torsions:
REMARK  status: ('A' for Active; 'I' for Inactive)
REMARK    1  A    between atoms: C_2  and  N_3
REMARK    2  A    between atoms: N_3  and  C_4
REMARK    3  A    between atoms: N_3  and  C_6
REMARK    4  A    between atoms: C_6  and  C_7
REMARK    5  A    between atoms: C_7  and  O_8
REMARK    6  A    between atoms: O_8  and  C_9
REMARK    7  A    between atoms: C_12  and  C_13
REMARK    8  A    between atoms: C_13  and  C_22
REMARK    9  A    between atoms: C_14  and  C_16
REMARK                            x       y       z     vdW  Elec       q    Type
REMARK                         _______ _______ _______ _____ _____    ______ ____
ROOT
ATOM      1  C   UNL     1       3.787   5.814 -10.238  0.00  0.00    +0.011 C 
ATOM      2  C   UNL     1       3.248   5.439 -11.398  0.00  0.00    +0.058 C 
ATOM      3 CL   UNL     1       4.359   4.949 -12.650  0.00  0.00    -0.082 Cl
ENDROOT
BRANCH   1   7
ATOM      4  C   UNL     1       2.280   5.981  -6.391  0.00  0.00    +0.139 A 
ATOM      5  C   UNL     1       2.415   4.735  -6.988  0.00  0.00    +0.037 A 
ATOM      6  C   UNL     1       3.076   4.728  -8.210  0.00  0.00    +0.003 A 
ATOM      7  C   UNL     1       2.876   5.788  -9.087  0.00  0.00    +0.001 A 
ATOM      8  C   UNL     1       2.667   7.018  -8.473  0.00  0.00    +0.003 A 
ATOM      9  C   UNL     1       2.158   7.113  -7.182  0.00  0.00    +0.037 A 
BRANCH   4  10
ATOM     10  O   UNL     1       2.079   6.054  -5.014  0.00  0.00    -0.474 OA
BRANCH  10  11
ATOM     11  C   UNL     1       0.881   6.643  -4.524  0.00  0.00    +0.223 C 
BRANCH  11  12
ATOM     12  C   UNL     1      -0.265   5.641  -4.582  0.00  0.00    +0.120 C 
BRANCH  12  13
ATOM     13  N   UNL     1      -1.429   6.381  -5.056  0.00  0.00    -0.270 NA
BRANCH  13  15
ATOM     14  C   UNL     1      -3.007   5.330  -3.515  0.00  0.00    +0.019 C 
ATOM     15  C   UNL     1      -2.329   6.621  -3.942  0.00  0.00    +0.072 C 
ENDBRANCH  13  15
BRANCH  13  16
ATOM     16  C   UNL     1      -2.166   5.590  -6.023  0.00  0.00    +0.072 C 
ATOM     17  C   UNL     1      -1.216   5.308  -7.181  0.00  0.00    +0.019 C 
ENDBRANCH  13  16
ENDBRANCH  12  13
ENDBRANCH  11  12
ENDBRANCH  10  11
ENDBRANCH   4  10
ENDBRANCH   1   7
BRANCH   2  18
ATOM     18  C   UNL     1       1.853   5.729 -11.743  0.00  0.00    +0.011 A 
ATOM     19  C   UNL     1       0.784   5.220 -11.057  0.00  0.00    +0.001 A 
ATOM     20  C   UNL     1      -0.443   5.868 -10.994  0.00  0.00    +0.000 A 
ATOM     21  C   UNL     1      -0.562   7.160 -11.493  0.00  0.00    +0.000 A 
ATOM     22  C   UNL     1       0.370   7.506 -12.463  0.00  0.00    +0.000 A 
ATOM     23  C   UNL     1       1.594   6.851 -12.524  0.00  0.00    +0.001 A 
ENDBRANCH   2  18
BRANCH   1  24
ATOM     24  C   UNL     1       5.106   6.456 -10.168  0.00  0.00    +0.001 A 
ATOM     25  C   UNL     1       6.233   5.736  -9.788  0.00  0.00    +0.000 A 
ATOM     26  C   UNL     1       7.476   6.335  -9.924  0.00  0.00    +0.000 A 
ATOM     27  C   UNL     1       7.666   7.496 -10.640  0.00  0.00    +0.000 A 
ATOM     28  C   UNL     1       6.574   8.085 -11.221  0.00  0.00    +0.000 A 
ATOM     29  C   UNL     1       5.329   7.532 -11.016  0.00  0.00    +0.000 A 
ENDBRANCH   1  24
TORSDOF 9
ENDMDL
MODEL 4
REMARK VINA RESULT:      -8.7      2.073      3.307
REMARK  Name = 
REMARK  9 active torsions:
REMARK  status: ('A' for Active; 'I' for Inactive)
REMARK    1  A    between atoms: C_2  and  N_3
REMARK    2  A    between atoms: N_3  and  C_4
REMARK    3  A    between atoms: N_3  and  C_6
REMARK    4  A    between atoms: C_6  and  C_7
REMARK    5  A    between atoms: C_7  and  O_8
REMARK    6  A    between atoms: O_8  and  C_9
REMARK    7  A    between atoms: C_12  and  C_13
REMARK    8  A    between atoms: C_13  and  C_22
REMARK    9  A    between atoms: C_14  and  C_16
REMARK                            x       y       z     vdW  Elec       q    Type
REMARK                         _______ _______ _______ _____ _____    ______ ____
ROOT
ATOM      1  C   UNL     1       1.278   5.733  -5.377  0.00  0.00    +0.011 C 
ATOM      2  C   UNL     1       1.675   5.524  -4.122  0.00  0.00    +0.058 C 
ATOM      3 CL   UNL     1       0.442   5.046  -2.985  0.00  0.00    -0.082 Cl
ENDROOT
BRANCH   1   7
ATOM      4  C   UNL     1       3.302   5.473  -8.974  0.00  0.00    +0.139 A 
ATOM      5  C   UNL     1       3.329   4.374  -8.126  0.00  0.00    +0.037 A 
ATOM      6  C   UNL     1       2.501   4.458  -7.014  0.00  0.00    +0.003 A 
ATOM      7  C   UNL     1       2.344   5.688  -6.386  0.00  0.00    +0.001 A 
ATOM      8  C   UNL     1       2.394   6.786  -7.239  0.00  0.00    +0.003 A 
ATOM      9  C   UNL     1       3.067   6.736  -8.454  0.00  0.00    +0.037 A 
BRANCH   4  10
ATOM     10  O   UNL     1       3.696   5.314 -10.301  0.00  0.00    -0.474 OA
BRANCH  10  11
ATOM     11  C   UNL     1       3.347   6.318 -11.246  0.00  0.00    +0.223 C 
BRANCH  11  12
ATOM     12  C   UNL     1       2.193   5.845 -12.121  0.00  0.00    +0.120 C 
BRANCH  12  13
ATOM     13  N   UNL     1       0.978   6.378 -11.515  0.00  0.00    -0.270 NA
BRANCH  13  15
ATOM     14  C   UNL     1       0.031   4.911  -9.805  0.00  0.00    +0.019 C 
ATOM     15  C   UNL     1       0.046   5.290 -11.277  0.00  0.00    +0.072 C 
ENDBRANCH  13  15
BRANCH  13  16
ATOM     16  C   UNL     1       0.323   7.295 -12.429  0.00  0.00    +0.072 C 
ATOM     17  C   UNL     1      -0.932   7.800 -11.728  0.00  0.00    +0.019 C 
ENDBRANCH  13  16
ENDBRANCH  12  13
ENDBRANCH  11  12
ENDBRANCH  10  11
ENDBRANCH   4  10
ENDBRANCH   1   7
BRANCH   2  18
ATOM     18  C   UNL     1       2.976   5.982  -3.626  0.00  0.00    +0.011 A 
ATOM     19  C   UNL     1       4.127   5.249  -3.736  0.00  0.00    +0.001 A 
ATOM     20  C   UNL     1       5.386   5.835  -3.792  0.00  0.00    +0.000 A 
ATOM     21  C   UNL     1       5.494   7.215  -3.914  0.00  0.00    +0.000 A 
ATOM     22  C   UNL     1       4.400   7.936  -3.455  0.00  0.00    +0.000 A 
ATOM     23  C   UNL     1       3.144   7.344  -3.396  0.00  0.00    +0.001 A 
ENDBRANCH   2  18
BRANCH   1  24
ATOM     24  C   UNL     1      -0.067   6.231  -5.691  0.00  0.00    +0.001 A 
ATOM     25  C   UNL     1      -1.032   5.391  -6.234  0.00  0.00    +0.000 A 
ATOM     26  C   UNL     1      -2.334   5.858  -6.330  0.00  0.00    +0.000 A 
ATOM     27  C   UNL     1      -2.761   7.003  -5.697  0.00  0.00    +0.000 A 
ATOM     28  C   UNL     1      -1.851   7.713  -4.959  0.00  0.00    +0.000 A 
ATOM     29  C   UNL     1      -0.540   7.290  -4.930  0.00  0.00    +0.000 A 
ENDBRANCH   1  24
TORSDOF 9
ENDMDL
MODEL 5
REMARK VINA RESULT:      -8.5      4.241      8.255
REMARK  Name = 
REMARK  9 active torsions:
REMARK  status: ('A' for Active; 'I' for Inactive)
REMARK    1  A    between atoms: C_2  and  N_3
REMARK    2  A    between atoms: N_3  and  C_4
REMARK    3  A    between atoms: N_3  and  C_6
REMARK    4  A    between atoms: C_6  and  C_7
REMARK    5  A    between atoms: C_7  and  O_8
REMARK    6  A    between atoms: O_8  and  C_9
REMARK    7  A    between atoms: C_12  and  C_13
REMARK    8  A    between atoms: C_13  and  C_22
REMARK    9  A    between atoms: C_14  and  C_16
REMARK                            x       y       z     vdW  Elec       q    Type
REMARK                         _______ _______ _______ _____ _____    ______ ____
ROOT
ATOM      1  C   UNL     1       1.567   5.317  -7.133  0.00  0.00    +0.011 C 
ATOM      2  C   UNL     1       1.612   4.793  -8.357  0.00  0.00    +0.058 C 
ATOM      3 CL   UNL     1       2.842   3.591  -8.644  0.00  0.00    -0.082 Cl
ENDROOT
BRANCH   1   7
ATOM      4  C   UNL     1      -1.793   6.536  -5.052  0.00  0.00    +0.139 A 
ATOM      5  C   UNL     1      -1.948   5.576  -6.043  0.00  0.00    +0.037 A 
ATOM      6  C   UNL     1      -0.768   5.089  -6.590  0.00  0.00    +0.003 A 
ATOM      7  C   UNL     1       0.298   5.962  -6.773  0.00  0.00    +0.001 A 
ATOM      8  C   UNL     1       0.397   6.965  -5.814  0.00  0.00    +0.003 A 
ATOM      9  C   UNL     1      -0.711   7.403  -5.098  0.00  0.00    +0.037 A 
BRANCH   4  10
ATOM     10  O   UNL     1      -2.822   6.737  -4.136  0.00  0.00    -0.474 OA
BRANCH  10  11
ATOM     11  C   UNL     1      -2.507   6.806  -2.751  0.00  0.00    +0.223 C 
BRANCH  11  12
ATOM     12  C   UNL     1      -2.347   5.406  -2.172  0.00  0.00    +0.120 C 
BRANCH  12  13
ATOM     13  N   UNL     1      -1.082   5.407  -1.445  0.00  0.00    -0.270 NA
BRANCH  13  15
ATOM     14  C   UNL     1      -1.189   6.843   0.529  0.00  0.00    +0.019 C 
ATOM     15  C   UNL     1      -0.822   6.745  -0.942  0.00  0.00    +0.072 C 
ENDBRANCH  13  15
BRANCH  13  16
ATOM     16  C   UNL     1       0.011   5.079  -2.341  0.00  0.00    +0.072 C 
ATOM     17  C   UNL     1       1.096   6.126  -2.119  0.00  0.00    +0.019 C 
ENDBRANCH  13  16
ENDBRANCH  12  13
ENDBRANCH  11  12
ENDBRANCH  10  11
ENDBRANCH   4  10
ENDBRANCH   1   7
BRANCH   2  18
ATOM     18  C   UNL     1       0.917   5.402  -9.495  0.00  0.00    +0.011 A 
ATOM     19  C   UNL     1       1.314   6.573 -10.083  0.00  0.00    +0.001 A 
ATOM     20  C   UNL     1       1.052   6.868 -11.416  0.00  0.00    +0.000 A 
ATOM     21  C   UNL     1       0.522   5.886 -12.244  0.00  0.00    +0.000 A 
ATOM     22  C   UNL     1      -0.182   4.881 -11.592  0.00  0.00    +0.000 A 
ATOM     23  C   UNL     1       0.081   4.593 -10.258  0.00  0.00    +0.001 A 
ENDBRANCH   2  18
BRANCH   1  24
ATOM     24  C   UNL     1       2.776   5.474  -6.312  0.00  0.00    +0.001 A 
ATOM     25  C   UNL     1       3.416   6.703  -6.210  0.00  0.00    +0.000 A 
ATOM     26  C   UNL     1       4.432   6.842  -5.276  0.00  0.00    +0.000 A 
ATOM     27  C   UNL     1       4.665   5.911  -4.289  0.00  0.00    +0.000 A 
ATOM     28  C   UNL     1       3.869   4.797  -4.248  0.00  0.00    +0.000 A 
ATOM     29  C   UNL     1       2.913   4.623  -5.225  0.00  0.00    +0.000 A 
ENDBRANCH   1  24
TORSDOF 9
ENDMDL
MODEL 6
REMARK VINA RESULT:      -8.2      3.462      8.137
REMARK  Name = 
REMARK  9 active torsions:
REMARK  status: ('A' for Active; 'I' for Inactive)
REMARK    1  A    between atoms: C_2  and  N_3
REMARK    2  A    between atoms: N_3  and  C_4
REMARK    3  A    between atoms: N_3  and  C_6
REMARK    4  A    between atoms: C_6  and  C_7
REMARK    5  A    between atoms: C_7  and  O_8
REMARK    6  A    between atoms: O_8  and  C_9
REMARK    7  A    between atoms: C_12  and  C_13
REMARK    8  A    between atoms: C_13  and  C_22
REMARK    9  A    between atoms: C_14  and  C_16
REMARK                            x       y       z     vdW  Elec       q    Type
REMARK                         _______ _______ _______ _____ _____    ______ ____
ROOT
ATOM      1  C   UNL     1       3.673   5.926 -10.217  0.00  0.00    +0.011 C 
ATOM      2  C   UNL     1       3.148   5.520 -11.373  0.00  0.00    +0.058 C 
ATOM      3 CL   UNL     1       4.267   4.903 -12.560  0.00  0.00    -0.082 Cl
ENDROOT
BRANCH   1   7
ATOM      4  C   UNL     1       2.070   6.277  -6.421  0.00  0.00    +0.139 A 
ATOM      5  C   UNL     1       2.072   5.024  -7.018  0.00  0.00    +0.037 A 
ATOM      6  C   UNL     1       2.767   4.936  -8.217  0.00  0.00    +0.003 A 
ATOM      7  C   UNL     1       2.728   6.012  -9.096  0.00  0.00    +0.001 A 
ATOM      8  C   UNL     1       2.651   7.259  -8.484  0.00  0.00    +0.003 A 
ATOM      9  C   UNL     1       2.115   7.415  -7.211  0.00  0.00    +0.037 A 
BRANCH   4  10
ATOM     10  O   UNL     1       1.835   6.374  -5.051  0.00  0.00    -0.474 OA
BRANCH  10  11
ATOM     11  C   UNL     1       2.446   5.431  -4.179  0.00  0.00    +0.223 C 
BRANCH  11  12
ATOM     12  C   UNL     1       2.525   5.991  -2.765  0.00  0.00    +0.120 C 
BRANCH  12  13
ATOM     13  N   UNL     1       3.407   7.151  -2.834  0.00  0.00    -0.270 NA
BRANCH  13  15
ATOM     14  C   UNL     1       5.262   7.758  -4.304  0.00  0.00    +0.019 C 
ATOM     15  C   UNL     1       4.706   6.734  -3.329  0.00  0.00    +0.072 C 
ENDBRANCH  13  15
BRANCH  13  16
ATOM     16  C   UNL     1       3.621   7.697  -1.508  0.00  0.00    +0.072 C 
ATOM     17  C   UNL     1       4.301   6.610  -0.685  0.00  0.00    +0.019 C 
ENDBRANCH  13  16
ENDBRANCH  12  13
ENDBRANCH  11  12
ENDBRANCH  10  11
ENDBRANCH   4  10
ENDBRANCH   1   7
BRANCH   2  18
ATOM     18  C   UNL     1       1.783   5.868 -11.778  0.00  0.00    +0.011 A 
ATOM     19  C   UNL     1       0.671   5.530 -11.055  0.00  0.00    +0.001 A 
ATOM     20  C   UNL     1      -0.503   6.272 -11.096  0.00  0.00    +0.000 A 
ATOM     21  C   UNL     1      -0.518   7.496 -11.754  0.00  0.00    +0.000 A 
ATOM     22  C   UNL     1       0.448   7.647 -12.741  0.00  0.00    +0.000 A 
ATOM     23  C   UNL     1       1.618   6.900 -12.697  0.00  0.00    +0.001 A 
ENDBRANCH   2  18
BRANCH   1  24
ATOM     24  C   UNL     1       5.024   6.497 -10.137  0.00  0.00    +0.001 A 
ATOM     25  C   UNL     1       6.096   5.736  -9.685  0.00  0.00    +0.000 A 
ATOM     26  C   UNL     1       7.375   6.257  -9.812  0.00  0.00    +0.000 A 
ATOM     27  C   UNL     1       7.651   7.367 -10.578  0.00  0.00    +0.000 A 
ATOM     28  C   UNL     1       6.612   7.986 -11.221  0.00  0.00    +0.000 A 
ATOM     29  C   UNL     1       5.332   7.514 -11.029  0.00  0.00    +0.000 A 
ENDBRANCH   1  24
TORSDOF 9
ENDMDL
MODEL 7
REMARK VINA RESULT:      -8.2      4.295      8.392
REMARK  Name = 
REMARK  9 active torsions:
REMARK  status: ('A' for Active; 'I' for Inactive)
REMARK    1  A    between atoms: C_2  and  N_3
REMARK    2  A    between atoms: N_3  and  C_4
REMARK    3  A    between atoms: N_3  and  C_6
REMARK    4  A    between atoms: C_6  and  C_7
REMARK    5  A    between atoms: C_7  and  O_8
REMARK    6  A    between atoms: O_8  and  C_9
REMARK    7  A    between atoms: C_12  and  C_13
REMARK    8  A    between atoms: C_13  and  C_22
REMARK    9  A    between atoms: C_14  and  C_16
REMARK                            x       y       z     vdW  Elec       q    Type
REMARK                         _______ _______ _______ _____ _____    ______ ____
ROOT
ATOM      1  C   UNL     1       1.242   5.424  -6.797  0.00  0.00    +0.011 C 
ATOM      2  C   UNL     1       1.403   4.944  -8.030  0.00  0.00    +0.058 C 
ATOM      3 CL   UNL     1       2.735   3.843  -8.268  0.00  0.00    -0.082 Cl
ENDROOT
BRANCH   1   7
ATOM      4  C   UNL     1      -2.303   6.373  -4.892  0.00  0.00    +0.139 A 
ATOM      5  C   UNL     1      -2.332   5.400  -5.881  0.00  0.00    +0.037 A 
ATOM      6  C   UNL     1      -1.091   5.008  -6.367  0.00  0.00    +0.003 A 
ATOM      7  C   UNL     1      -0.092   5.965  -6.505  0.00  0.00    +0.001 A 
ATOM      8  C   UNL     1      -0.121   6.976  -5.551  0.00  0.00    +0.003 A 
ATOM      9  C   UNL     1      -1.295   7.325  -4.893  0.00  0.00    +0.037 A 
BRANCH   4  10
ATOM     10  O   UNL     1      -3.390   6.493  -4.028  0.00  0.00    -0.474 OA
BRANCH  10  11
ATOM     11  C   UNL     1      -3.154   6.845  -2.671  0.00  0.00    +0.223 C 
BRANCH  11  12
ATOM     12  C   UNL     1      -2.427   5.717  -1.949  0.00  0.00    +0.120 C 
BRANCH  12  13
ATOM     13  N   UNL     1      -1.141   6.264  -1.529  0.00  0.00    -0.270 NA
BRANCH  13  15
ATOM     14  C   UNL     1       1.213   6.071  -2.152  0.00  0.00    +0.019 C 
ATOM     15  C   UNL     1      -0.087   5.331  -1.883  0.00  0.00    +0.072 C 
ENDBRANCH  13  15
BRANCH  13  16
ATOM     16  C   UNL     1      -1.105   6.405  -0.085  0.00  0.00    +0.072 C 
ATOM     17  C   UNL     1      -1.213   7.894   0.218  0.00  0.00    +0.019 C 
ENDBRANCH  13  16
ENDBRANCH  12  13
ENDBRANCH  11  12
ENDBRANCH  10  11
ENDBRANCH   4  10
ENDBRANCH   1   7
BRANCH   2  18
ATOM     18  C   UNL     1       0.740   5.538  -9.194  0.00  0.00    +0.011 A 
ATOM     19  C   UNL     1       1.105   6.739  -9.740  0.00  0.00    +0.001 A 
ATOM     20  C   UNL     1       0.901   7.047 -11.079  0.00  0.00    +0.000 A 
ATOM     21  C   UNL     1       0.470   6.055 -11.952  0.00  0.00    +0.000 A 
ATOM     22  C   UNL     1      -0.213   5.001 -11.357  0.00  0.00    +0.000 A 
ATOM     23  C   UNL     1      -0.009   4.702 -10.016  0.00  0.00    +0.001 A 
ENDBRANCH   2  18
BRANCH   1  24
ATOM     24  C   UNL     1       2.381   5.640  -5.895  0.00  0.00    +0.001 A 
ATOM     25  C   UNL     1       2.881   4.605  -5.113  0.00  0.00    +0.000 A 
ATOM     26  C   UNL     1       4.069   4.809  -4.429  0.00  0.00    +0.000 A 
ATOM     27  C   UNL     1       4.895   5.882  -4.680  0.00  0.00    +0.000 A 
ATOM     28  C   UNL     1       4.509   6.788  -5.631  0.00  0.00    +0.000 A 
ATOM     29  C   UNL     1       3.289   6.627  -6.252  0.00  0.00    +0.000 A 
ENDBRANCH   1  24
TORSDOF 9
ENDMDL
MODEL 8
REMARK VINA RESULT:      -8.1      2.714      3.905
REMARK  Name = 
REMARK  9 active torsions:
REMARK  status: ('A' for Active; 'I' for Inactive)
REMARK    1  A    between atoms: C_2  and  N_3
REMARK    2  A    between atoms: N_3  and  C_4
REMARK    3  A    between atoms: N_3  and  C_6
REMARK    4  A    between atoms: C_6  and  C_7
REMARK    5  A    between atoms: C_7  and  O_8
REMARK    6  A    between atoms: O_8  and  C_9
REMARK    7  A    between atoms: C_12  and  C_13
REMARK    8  A    between atoms: C_13  and  C_22
REMARK    9  A    between atoms: C_14  and  C_16
REMARK                            x       y       z     vdW  Elec       q    Type
REMARK                         _______ _______ _______ _____ _____    ______ ____
ROOT
ATOM      1  C   UNL     1       2.987   5.397  -8.124  0.00  0.00    +0.011 C 
ATOM      2  C   UNL     1       2.966   5.051  -6.837  0.00  0.00    +0.058 C 
ATOM      3 CL   UNL     1       1.728   3.919  -6.357  0.00  0.00    -0.082 Cl
ENDROOT
BRANCH   1   7
ATOM      4  C   UNL     1       6.314   6.256 -10.425  0.00  0.00    +0.139 A 
ATOM      5  C   UNL     1       6.481   5.448  -9.308  0.00  0.00    +0.037 A 
ATOM      6  C   UNL     1       5.308   5.062  -8.672  0.00  0.00    +0.003 A 
ATOM      7  C   UNL     1       4.255   5.966  -8.598  0.00  0.00    +0.001 A 
ATOM      8  C   UNL     1       4.146   6.820  -9.691  0.00  0.00    +0.003 A 
ATOM      9  C   UNL     1       5.243   7.134 -10.484  0.00  0.00    +0.037 A 
BRANCH   4  10
ATOM     10  O   UNL     1       7.326   6.307 -11.381  0.00  0.00    -0.474 OA
BRANCH  10  11
ATOM     11  C   UNL     1       7.368   5.309 -12.393  0.00  0.00    +0.223 C 
BRANCH  11  12
ATOM     12  C   UNL     1       7.186   5.940 -13.768  0.00  0.00    +0.120 C 
BRANCH  12  13
ATOM     13  N   UNL     1       5.777   6.302 -13.867  0.00  0.00    -0.270 NA
BRANCH  13  15
ATOM     14  C   UNL     1       3.544   5.520 -13.256  0.00  0.00    +0.019 C 
ATOM     15  C   UNL     1       4.963   5.124 -13.629  0.00  0.00    +0.072 C 
ENDBRANCH  13  15
BRANCH  13  16
ATOM     16  C   UNL     1       5.470   6.757 -15.210  0.00  0.00    +0.072 C 
ATOM     17  C   UNL     1       6.661   7.581 -15.683  0.00  0.00    +0.019 C 
ENDBRANCH  13  16
ENDBRANCH  12  13
ENDBRANCH  11  12
ENDBRANCH  10  11
ENDBRANCH   4  10
ENDBRANCH   1   7
BRANCH   2  18
ATOM     18  C   UNL     1       3.694   5.803  -5.812  0.00  0.00    +0.011 A 
ATOM     19  C   UNL     1       3.276   7.011  -5.321  0.00  0.00    +0.001 A 
ATOM     20  C   UNL     1       3.598   7.453  -4.044  0.00  0.00    +0.000 A 
ATOM     21  C   UNL     1       4.223   6.585  -3.156  0.00  0.00    +0.000 A 
ATOM     22  C   UNL     1       4.936   5.549  -3.745  0.00  0.00    +0.000 A 
ATOM     23  C   UNL     1       4.611   5.114  -5.025  0.00  0.00    +0.001 A 
ENDBRANCH   2  18
BRANCH   1  24
ATOM     24  C   UNL     1       1.762   5.454  -8.931  0.00  0.00    +0.001 A 
ATOM     25  C   UNL     1       1.169   6.672  -9.246  0.00  0.00    +0.000 A 
ATOM     26  C   UNL     1       0.132   6.682 -10.166  0.00  0.00    +0.000 A 
ATOM     27  C   UNL     1      -0.170   5.597 -10.957  0.00  0.00    +0.000 A 
ATOM     28  C   UNL     1       0.579   4.459 -10.809  0.00  0.00    +0.000 A 
ATOM     29  C   UNL     1       1.556   4.425  -9.838  0.00  0.00    +0.000 A 
ENDBRANCH   1  24
TORSDOF 9
ENDMDL
MODEL 9
REMARK VINA RESULT:      -7.3      4.190      8.529
REMARK  Name = 
REMARK  9 active torsions:
REMARK  status: ('A' for Active; 'I' for Inactive)
REMARK    1  A    between atoms: C_2  and  N_3
REMARK    2  A    between atoms: N_3  and  C_4
REMARK    3  A    between atoms: N_3  and  C_6
REMARK    4  A    between atoms: C_6  and  C_7
REMARK    5  A    between atoms: C_7  and  O_8
REMARK    6  A    between atoms: O_8  and  C_9
REMARK    7  A    between atoms: C_12  and  C_13
REMARK    8  A    between atoms: C_13  and  C_22
REMARK    9  A    between atoms: C_14  and  C_16
REMARK                            x       y       z     vdW  Elec       q    Type
REMARK                         _______ _______ _______ _____ _____    ______ ____
ROOT
ATOM      1  C   UNL     1       2.112   6.062  -4.762  0.00  0.00    +0.011 C 
ATOM      2  C   UNL     1       0.876   5.568  -4.832  0.00  0.00    +0.058 C 
ATOM      3 CL   UNL     1       0.565   4.430  -6.116  0.00  0.00    -0.082 Cl
ENDROOT
BRANCH   1   7
ATOM      4  C   UNL     1       4.213   7.086  -1.350  0.00  0.00    +0.139 A 
ATOM      5  C   UNL     1       3.204   6.139  -1.239  0.00  0.00    +0.037 A 
ATOM      6  C   UNL     1       2.648   5.717  -2.439  0.00  0.00    +0.003 A 
ATOM      7  C   UNL     1       2.483   6.641  -3.464  0.00  0.00    +0.001 A 
ATOM      8  C   UNL     1       3.461   7.629  -3.517  0.00  0.00    +0.003 A 
ATOM      9  C   UNL     1       4.184   8.002  -2.390  0.00  0.00    +0.037 A 
BRANCH   4  10
ATOM     10  O   UNL     1       5.132   7.221  -0.312  0.00  0.00    -0.474 OA
BRANCH  10  11
ATOM     11  C   UNL     1       4.654   7.474   1.003  0.00  0.00    +0.223 C 
BRANCH  11  12
ATOM     12  C   UNL     1       4.335   8.954   1.176  0.00  0.00    +0.120 C 
BRANCH  12  13
ATOM     13  N   UNL     1       2.885   9.073   1.079  0.00  0.00    -0.270 NA
BRANCH  13  15
ATOM     14  C   UNL     1       3.441  10.952  -0.380  0.00  0.00    +0.019 C 
ATOM     15  C   UNL     1       2.540  10.440   0.731  0.00  0.00    +0.072 C 
ENDBRANCH  13  15
BRANCH  13  16
ATOM     16  C   UNL     1       2.273   8.803   2.367  0.00  0.00    +0.072 C 
ATOM     17  C   UNL     1       0.991   9.624   2.430  0.00  0.00    +0.019 C 
ENDBRANCH  13  16
ENDBRANCH  12  13
ENDBRANCH  11  12
ENDBRANCH  10  11
ENDBRANCH   4  10
ENDBRANCH   1   7
BRANCH   2  18
ATOM     18  C   UNL     1      -0.249   6.171  -4.112  0.00  0.00    +0.011 A 
ATOM     19  C   UNL     1      -0.930   7.271  -4.560  0.00  0.00    +0.001 A 
ATOM     20  C   UNL     1      -2.259   7.514  -4.233  0.00  0.00    +0.000 A 
ATOM     21  C   UNL     1      -2.991   6.537  -3.570  0.00  0.00    +0.000 A 
ATOM     22  C   UNL     1      -2.237   5.631  -2.834  0.00  0.00    +0.000 A 
ATOM     23  C   UNL     1      -0.908   5.395  -3.164  0.00  0.00    +0.001 A 
ENDBRANCH   2  18
BRANCH   1  24
ATOM     24  C   UNL     1       2.939   6.254  -5.961  0.00  0.00    +0.001 A 
ATOM     25  C   UNL     1       3.900   5.318  -6.324  0.00  0.00    +0.000 A 
ATOM     26  C   UNL     1       4.514   5.449  -7.560  0.00  0.00    +0.000 A 
ATOM     27  C   UNL     1       4.048   6.302  -8.534  0.00  0.00    +0.000 A 
ATOM     28  C   UNL     1       2.943   7.063  -8.255  0.00  0.00    +0.000 A 
ATOM     29  C   UNL     1       2.383   6.990  -6.998  0.00  0.00    +0.000 A 
ENDBRANCH   1  24
TORSDOF 9
ENDMDL
