MODEL 1
REMARK VINA RESULT:      -6.6      0.000      0.000
REMARK  Name = 
REMARK  12 active torsions:
REMARK  status: ('A' for Active; 'I' for Inactive)
REMARK    1  A    between atoms: C_2  and  C_9
REMARK    2  A    between atoms: N_3  and  C_4
REMARK    3  A    between atoms: C_4  and  C_5
REMARK    4  A    between atoms: C_5  and  C_7
REMARK    5  A    between atoms: C_12  and  C_13
REMARK    6  A    between atoms: N_15  and  C_16
REMARK    7  A    between atoms: C_16  and  C_17
REMARK    8  A    between atoms: C_17  and  C_19
REMARK    9  A    between atoms: C_23  and  N_24
REMARK   10  A    between atoms: N_24  and  C_25
REMARK   11  A    between atoms: C_25  and  C_26
REMARK   12  A    between atoms: C_28  and  C_30
REMARK                            x       y       z     vdW  Elec       q    Type
REMARK                         _______ _______ _______ _____ _____    ______ ____
ROOT
ATOM      1  C   UNL     1       2.260   6.468 -12.379  0.00  0.00    +0.067 A 
ATOM      2  C   UNL     1       3.625   6.350 -12.374  0.00  0.00    +0.049 A 
ATOM      3  I   UNL     1       4.626   5.753 -14.142  0.00  0.00    -0.041 I 
ATOM      4  C   UNL     1       4.396   6.424 -11.218  0.00  0.00    +0.065 A 
ATOM      5  C   UNL     1       3.759   6.184 -10.006  0.00  0.00    +0.049 A 
ATOM      6  I   UNL     1       4.691   5.191  -8.408  0.00  0.00    -0.041 I 
ATOM      7  C   UNL     1       2.385   6.308  -9.956  0.00  0.00    +0.067 A 
ATOM      8  C   UNL     1       1.653   6.457 -11.127  0.00  0.00    +0.040 A 
ATOM      9  I   UNL     1      -0.446   6.227 -11.032  0.00  0.00    -0.042 I 
ENDROOT
BRANCH   1  11
ATOM     10  O   UNL     1       0.861   5.267 -13.524  0.00  0.00    -0.268 OA
ATOM     11  C   UNL     1       1.428   6.163 -13.545  0.00  0.00    +0.266 C 
ATOM     12  N   UNL     1       1.125   7.043 -14.588  0.00  0.00    -0.199 NA
BRANCH  12  13
ATOM     13  C   UNL     1      -0.242   7.082 -15.042  0.00  0.00    +0.151 C 
BRANCH  13  14
ATOM     14  C   UNL     1      -0.199   7.961 -16.463  0.00  0.00    +0.206 C 
ATOM     15  O   UNL     1       0.883   7.053 -17.078  0.00  0.00    -0.218 OA
BRANCH  14  16
ATOM     16  C   UNL     1      -1.433   7.052 -17.135  0.00  0.00    +0.217 C 
ATOM     17  O   UNL     1      -0.893   6.688 -18.374  0.00  0.00    -0.218 OA
ENDBRANCH  14  16
ENDBRANCH  13  14
ENDBRANCH  12  13
ENDBRANCH   1  11
BRANCH   4  18
ATOM     18  N   UNL     1       5.828   6.372 -11.249  0.00  0.00    -0.253 N 
ATOM     19  C   UNL     1       6.622   7.568 -11.243  0.00  0.00    +0.263 C 
ATOM     20  O   UNL     1       6.675   8.171 -12.355  0.00  0.00    -0.272 OA
BRANCH  19  21
ATOM     21  C   UNL     1       7.740   7.660 -10.269  0.00  0.00    +0.267 C 
ATOM     22  O   UNL     1       7.715   6.665  -9.311  0.00  0.00    -0.210 OA
ENDBRANCH  19  21
BRANCH  18  23
ATOM     23  C   UNL     1       6.368   5.332 -12.127  0.00  0.00    +0.134 C 
BRANCH  23  24
ATOM     24  C   UNL     1       7.774   4.953 -11.792  0.00  0.00    +0.204 C 
ATOM     25  O   UNL     1       8.665   5.300 -12.819  0.00  0.00    -0.218 OA
ENDBRANCH  23  24
ENDBRANCH  18  23
ENDBRANCH   4  18
BRANCH   7  26
ATOM     26  C   UNL     1       1.789   6.680  -8.680  0.00  0.00    +0.266 C 
ATOM     27  N   UNL     1       1.323   5.751  -7.723  0.00  0.00    -0.199 NA
ATOM     28  O   UNL     1       2.024   7.851  -8.251  0.00  0.00    -0.268 OA
BRANCH  27  29
ATOM     29  C   UNL     1       0.810   6.138  -6.427  0.00  0.00    +0.151 C 
BRANCH  29  30
ATOM     30  C   UNL     1       1.780   5.196  -5.442  0.00  0.00    +0.206 C 
ATOM     31  O   UNL     1       1.121   3.903  -5.961  0.00  0.00    -0.218 OA
BRANCH  30  32
ATOM     32  C   UNL     1       0.678   5.304  -4.187  0.00  0.00    +0.217 C 
ATOM     33  O   UNL     1      -0.533   5.311  -4.881  0.00  0.00    -0.218 OA
ENDBRANCH  30  32
ENDBRANCH  29  30
ENDBRANCH  27  29
ENDBRANCH   7  26
TORSDOF 12
ENDMDL
MODEL 2
REMARK VINA RESULT:      -6.4      4.698     11.562
REMARK  Name = 
REMARK  12 active torsions:
REMARK  status: ('A' for Active; 'I' for Inactive)
REMARK    1  A    between atoms: C_2  and  C_9
REMARK    2  A    between atoms: N_3  and  C_4
REMARK    3  A    between atoms: C_4  and  C_5
REMARK    4  A    between atoms: C_5  and  C_7
REMARK    5  A    between atoms: C_12  and  C_13
REMARK    6  A    between atoms: N_15  and  C_16
REMARK    7  A    between atoms: C_16  and  C_17
REMARK    8  A    between atoms: C_17  and  C_19
REMARK    9  A    between atoms: C_23  and  N_24
REMARK   10  A    between atoms: N_24  and  C_25
REMARK   11  A    between atoms: C_25  and  C_26
REMARK   12  A    between atoms: C_28  and  C_30
REMARK                            x       y       z     vdW  Elec       q    Type
REMARK                         _______ _______ _______ _____ _____    ______ ____
ROOT
ATOM      1  C   UNL     1       2.391   6.662  -2.578  0.00  0.00    +0.067 A 
ATOM      2  C   UNL     1       1.036   6.519  -2.712  0.00  0.00    +0.049 A 
ATOM      3  I   UNL     1      -0.137   6.051  -1.012  0.00  0.00    -0.041 I 
ATOM      4  C   UNL     1       0.388   6.482  -3.943  0.00  0.00    +0.065 A 
ATOM      5  C   UNL     1       1.149   6.154  -5.059  0.00  0.00    +0.049 A 
ATOM      6  I   UNL     1       0.397   5.014  -6.654  0.00  0.00    -0.041 I 
ATOM      7  C   UNL     1       2.519   6.300  -4.979  0.00  0.00    +0.067 A 
ATOM      8  C   UNL     1       3.124   6.559  -3.756  0.00  0.00    +0.040 A 
ATOM      9  I   UNL     1       5.224   6.361  -3.616  0.00  0.00    -0.042 I 
ENDROOT
BRANCH   1  11
ATOM     10  O   UNL     1       3.561   5.529  -1.142  0.00  0.00    -0.268 OA
ATOM     11  C   UNL     1       3.102   6.471  -1.311  0.00  0.00    +0.266 C 
ATOM     12  N   UNL     1       3.434   7.475  -0.398  0.00  0.00    -0.199 NA
BRANCH  12  13
ATOM     13  C   UNL     1       4.761   7.447   0.159  0.00  0.00    +0.151 C 
BRANCH  13  14
ATOM     14  C   UNL     1       4.785   8.687   1.279  0.00  0.00    +0.206 C 
ATOM     15  O   UNL     1       3.719   9.496   0.515  0.00  0.00    -0.218 OA
BRANCH  14  16
ATOM     16  C   UNL     1       3.627   7.937   2.226  0.00  0.00    +0.217 C 
ATOM     17  O   UNL     1       4.366   6.927   2.855  0.00  0.00    -0.218 OA
ENDBRANCH  14  16
ENDBRANCH  13  14
ENDBRANCH  12  13
ENDBRANCH   1  11
BRANCH   4  18
ATOM     18  N   UNL     1      -1.039   6.406  -4.054  0.00  0.00    -0.253 N 
ATOM     19  C   UNL     1      -1.840   7.581  -4.249  0.00  0.00    +0.263 C 
ATOM     20  O   UNL     1      -2.014   8.279  -3.207  0.00  0.00    -0.272 OA
BRANCH  19  21
ATOM     21  C   UNL     1      -2.852   7.565  -5.336  0.00  0.00    +0.267 C 
ATOM     22  O   UNL     1      -2.639   6.569  -6.269  0.00  0.00    -0.210 OA
ENDBRANCH  19  21
BRANCH  18  23
ATOM     23  C   UNL     1      -1.658   5.437  -3.146  0.00  0.00    +0.134 C 
BRANCH  23  24
ATOM     24  C   UNL     1      -3.027   5.021  -3.575  0.00  0.00    +0.204 C 
ATOM     25  O   UNL     1      -4.020   5.565  -2.744  0.00  0.00    -0.218 OA
ENDBRANCH  23  24
ENDBRANCH  18  23
ENDBRANCH   4  18
BRANCH   7  26
ATOM     26  C   UNL     1       3.239   6.575  -6.215  0.00  0.00    +0.266 C 
ATOM     27  N   UNL     1       3.872   5.586  -7.000  0.00  0.00    -0.199 NA
ATOM     28  O   UNL     1       2.987   7.674  -6.799  0.00  0.00    -0.268 OA
BRANCH  27  29
ATOM     29  C   UNL     1       4.512   5.870  -8.267  0.00  0.00    +0.151 C 
BRANCH  29  30
ATOM     30  C   UNL     1       3.330   5.320  -9.314  0.00  0.00    +0.206 C 
ATOM     31  O   UNL     1       3.632   3.853  -8.951  0.00  0.00    -0.218 OA
BRANCH  30  32
ATOM     32  C   UNL     1       4.419   5.275 -10.583  0.00  0.00    +0.217 C 
ATOM     33  O   UNL     1       4.380   6.598 -11.028  0.00  0.00    -0.218 OA
ENDBRANCH  30  32
ENDBRANCH  29  30
ENDBRANCH  27  29
ENDBRANCH   7  26
TORSDOF 12
ENDMDL
MODEL 3
REMARK VINA RESULT:      -6.0      4.168      7.609
REMARK  Name = 
REMARK  12 active torsions:
REMARK  status: ('A' for Active; 'I' for Inactive)
REMARK    1  A    between atoms: C_2  and  C_9
REMARK    2  A    between atoms: N_3  and  C_4
REMARK    3  A    between atoms: C_4  and  C_5
REMARK    4  A    between atoms: C_5  and  C_7
REMARK    5  A    between atoms: C_12  and  C_13
REMARK    6  A    between atoms: N_15  and  C_16
REMARK    7  A    between atoms: C_16  and  C_17
REMARK    8  A    between atoms: C_17  and  C_19
REMARK    9  A    between atoms: C_23  and  N_24
REMARK   10  A    between atoms: N_24  and  C_25
REMARK   11  A    between atoms: C_25  and  C_26
REMARK   12  A    between atoms: C_28  and  C_30
REMARK                            x       y       z     vdW  Elec       q    Type
REMARK                         _______ _______ _______ _____ _____    ______ ____
ROOT
ATOM      1  C   UNL     1       2.366   5.839  -6.196  0.00  0.00    +0.067 A 
ATOM      2  C   UNL     1       3.098   5.931  -5.042  0.00  0.00    +0.049 A 
ATOM      3  I   UNL     1       4.990   4.985  -4.930  0.00  0.00    -0.041 I 
ATOM      4  C   UNL     1       2.597   6.460  -3.858  0.00  0.00    +0.065 A 
ATOM      5  C   UNL     1       1.216   6.504  -3.708  0.00  0.00    +0.049 A 
ATOM      6  I   UNL     1       0.261   6.184  -1.865  0.00  0.00    -0.041 I 
ATOM      7  C   UNL     1       0.435   6.433  -4.843  0.00  0.00    +0.067 A 
ATOM      8  C   UNL     1       1.008   6.114  -6.068  0.00  0.00    +0.040 A 
ATOM      9  I   UNL     1      -0.273   5.615  -7.674  0.00  0.00    -0.042 I 
ENDROOT
BRANCH   1  11
ATOM     10  O   UNL     1       2.435   4.089  -7.480  0.00  0.00    -0.268 OA
ATOM     11  C   UNL     1       2.801   5.079  -7.371  0.00  0.00    +0.266 C 
ATOM     12  N   UNL     1       3.468   5.599  -8.482  0.00  0.00    -0.199 NA
BRANCH  12  13
ATOM     13  C   UNL     1       3.017   5.172  -9.782  0.00  0.00    +0.151 C 
BRANCH  13  14
ATOM     14  C   UNL     1       4.355   5.320 -10.773  0.00  0.00    +0.206 C 
ATOM     15  O   UNL     1       3.496   5.663 -12.005  0.00  0.00    -0.218 OA
BRANCH  14  16
ATOM     16  C   UNL     1       4.546   6.935 -10.378  0.00  0.00    +0.217 C 
ATOM     17  O   UNL     1       5.877   7.175 -10.739  0.00  0.00    -0.218 OA
ENDBRANCH  14  16
ENDBRANCH  13  14
ENDBRANCH  12  13
ENDBRANCH   1  11
BRANCH   4  18
ATOM     18  N   UNL     1       3.408   6.614  -2.685  0.00  0.00    -0.253 N 
ATOM     19  C   UNL     1       4.070   7.852  -2.388  0.00  0.00    +0.263 C 
ATOM     20  O   UNL     1       5.114   8.069  -3.071  0.00  0.00    -0.272 OA
BRANCH  19  21
ATOM     21  C   UNL     1       3.919   8.416  -1.022  0.00  0.00    +0.267 C 
ATOM     22  O   UNL     1       3.568   9.751  -1.016  0.00  0.00    -0.210 OA
ENDBRANCH  19  21
BRANCH  18  23
ATOM     23  C   UNL     1       4.222   5.440  -2.365  0.00  0.00    +0.134 C 
BRANCH  23  24
ATOM     24  C   UNL     1       3.800   4.757  -1.105  0.00  0.00    +0.204 C 
ATOM     25  O   UNL     1       4.898   4.239  -0.401  0.00  0.00    -0.218 OA
ENDBRANCH  23  24
ENDBRANCH  18  23
ENDBRANCH   4  18
BRANCH   7  26
ATOM     26  C   UNL     1      -0.871   7.078  -4.803  0.00  0.00    +0.266 C 
ATOM     27  N   UNL     1      -2.060   6.434  -4.394  0.00  0.00    -0.199 NA
ATOM     28  O   UNL     1      -0.889   8.347  -4.782  0.00  0.00    -0.268 OA
BRANCH  27  29
ATOM     29  C   UNL     1      -3.332   7.114  -4.283  0.00  0.00    +0.151 C 
BRANCH  29  30
ATOM     30  C   UNL     1      -4.018   6.236  -3.036  0.00  0.00    +0.206 C 
ATOM     31  O   UNL     1      -3.165   6.977  -1.988  0.00  0.00    -0.218 OA
BRANCH  30  32
ATOM     32  C   UNL     1      -2.862   5.036  -3.192  0.00  0.00    +0.217 C 
ATOM     33  O   UNL     1      -2.574   4.752  -1.856  0.00  0.00    -0.218 OA
ENDBRANCH  30  32
ENDBRANCH  29  30
ENDBRANCH  27  29
ENDBRANCH   7  26
TORSDOF 12
ENDMDL
MODEL 4
REMARK VINA RESULT:      -6.0      5.322     11.018
REMARK  Name = 
REMARK  12 active torsions:
REMARK  status: ('A' for Active; 'I' for Inactive)
REMARK    1  A    between atoms: C_2  and  C_9
REMARK    2  A    between atoms: N_3  and  C_4
REMARK    3  A    between atoms: C_4  and  C_5
REMARK    4  A    between atoms: C_5  and  C_7
REMARK    5  A    between atoms: C_12  and  C_13
REMARK    6  A    between atoms: N_15  and  C_16
REMARK    7  A    between atoms: C_16  and  C_17
REMARK    8  A    between atoms: C_17  and  C_19
REMARK    9  A    between atoms: C_23  and  N_24
REMARK   10  A    between atoms: N_24  and  C_25
REMARK   11  A    between atoms: C_25  and  C_26
REMARK   12  A    between atoms: C_28  and  C_30
REMARK                            x       y       z     vdW  Elec       q    Type
REMARK                         _______ _______ _______ _____ _____    ______ ____
ROOT
ATOM      1  C   UNL     1      -0.530   5.702  -2.248  0.00  0.00    +0.067 A 
ATOM      2  C   UNL     1       0.780   5.939  -1.922  0.00  0.00    +0.049 A 
ATOM      3  I   UNL     1       1.250   6.765  -0.029  0.00  0.00    -0.041 I 
ATOM      4  C   UNL     1       1.826   5.841  -2.834  0.00  0.00    +0.065 A 
ATOM      5  C   UNL     1       1.509   5.924  -4.185  0.00  0.00    +0.049 A 
ATOM      6  I   UNL     1       2.756   6.863  -5.590  0.00  0.00    -0.041 I 
ATOM      7  C   UNL     1       0.206   5.676  -4.566  0.00  0.00    +0.067 A 
ATOM      8  C   UNL     1      -0.792   5.558  -3.607  0.00  0.00    +0.040 A 
ATOM      9  I   UNL     1      -2.806   5.594  -4.248  0.00  0.00    -0.042 I 
ENDROOT
BRANCH   1  11
ATOM     10  O   UNL     1      -2.228   5.220  -0.985  0.00  0.00    -0.268 OA
ATOM     11  C   UNL     1      -1.653   6.026  -1.365  0.00  0.00    +0.266 C 
ATOM     12  N   UNL     1      -1.908   7.273  -0.788  0.00  0.00    -0.199 NA
BRANCH  12  13
ATOM     13  C   UNL     1      -2.283   7.291   0.603  0.00  0.00    +0.151 C 
BRANCH  13  14
ATOM     14  C   UNL     1      -1.811   8.795   1.157  0.00  0.00    +0.206 C 
ATOM     15  O   UNL     1      -3.157   9.038   1.866  0.00  0.00    -0.218 OA
BRANCH  14  16
ATOM     16  C   UNL     1      -1.130   8.140   2.539  0.00  0.00    +0.217 C 
ATOM     17  O   UNL     1      -1.706   6.865   2.578  0.00  0.00    -0.218 OA
ENDBRANCH  14  16
ENDBRANCH  13  14
ENDBRANCH  12  13
ENDBRANCH   1  11
BRANCH   4  18
ATOM     18  N   UNL     1       3.195   6.021  -2.450  0.00  0.00    -0.253 N 
ATOM     19  C   UNL     1       4.059   4.901  -2.206  0.00  0.00    +0.263 C 
ATOM     20  O   UNL     1       3.879   4.329  -1.091  0.00  0.00    -0.272 OA
BRANCH  19  21
ATOM     21  C   UNL     1       5.390   4.888  -2.866  0.00  0.00    +0.267 C 
ATOM     22  O   UNL     1       5.322   4.698  -4.233  0.00  0.00    -0.210 OA
ENDBRANCH  19  21
BRANCH  18  23
ATOM     23  C   UNL     1       3.411   7.124  -1.511  0.00  0.00    +0.134 C 
BRANCH  23  24
ATOM     24  C   UNL     1       3.997   8.338  -2.155  0.00  0.00    +0.204 C 
ATOM     25  O   UNL     1       3.709   9.503  -1.428  0.00  0.00    -0.218 OA
ENDBRANCH  23  24
ENDBRANCH  18  23
ENDBRANCH   4  18
BRANCH   7  26
ATOM     26  C   UNL     1      -0.015   5.151  -5.906  0.00  0.00    +0.266 C 
ATOM     27  N   UNL     1      -0.346   5.948  -7.024  0.00  0.00    -0.199 NA
ATOM     28  O   UNL     1       0.458   4.001  -6.163  0.00  0.00    -0.268 OA
BRANCH  27  29
ATOM     29  C   UNL     1      -0.480   5.418  -8.364  0.00  0.00    +0.151 C 
BRANCH  29  30
ATOM     30  C   UNL     1       0.848   6.131  -9.088  0.00  0.00    +0.206 C 
ATOM     31  O   UNL     1       0.041   6.434 -10.365  0.00  0.00    -0.218 OA
BRANCH  30  32
ATOM     32  C   UNL     1       1.352   4.659  -9.704  0.00  0.00    +0.217 C 
ATOM     33  O   UNL     1       2.440   4.371  -8.878  0.00  0.00    -0.218 OA
ENDBRANCH  30  32
ENDBRANCH  29  30
ENDBRANCH  27  29
ENDBRANCH   7  26
TORSDOF 12
ENDMDL
MODEL 5
REMARK VINA RESULT:      -5.7      5.429     11.367
REMARK  Name = 
REMARK  12 active torsions:
REMARK  status: ('A' for Active; 'I' for Inactive)
REMARK    1  A    between atoms: C_2  and  C_9
REMARK    2  A    between atoms: N_3  and  C_4
REMARK    3  A    between atoms: C_4  and  C_5
REMARK    4  A    between atoms: C_5  and  C_7
REMARK    5  A    between atoms: C_12  and  C_13
REMARK    6  A    between atoms: N_15  and  C_16
REMARK    7  A    between atoms: C_16  and  C_17
REMARK    8  A    between atoms: C_17  and  C_19
REMARK    9  A    between atoms: C_23  and  N_24
REMARK   10  A    between atoms: N_24  and  C_25
REMARK   11  A    between atoms: C_25  and  C_26
REMARK   12  A    between atoms: C_28  and  C_30
REMARK                            x       y       z     vdW  Elec       q    Type
REMARK                         _______ _______ _______ _____ _____    ______ ____
ROOT
ATOM      1  C   UNL     1      -0.407   6.072  -1.815  0.00  0.00    +0.067 A 
ATOM      2  C   UNL     1       0.866   6.216  -1.329  0.00  0.00    +0.049 A 
ATOM      3  I   UNL     1       1.160   7.057   0.592  0.00  0.00    -0.041 I 
ATOM      4  C   UNL     1       2.007   6.010  -2.098  0.00  0.00    +0.065 A 
ATOM      5  C   UNL     1       1.870   6.078  -3.480  0.00  0.00    +0.049 A 
ATOM      6  I   UNL     1       3.355   6.876  -4.732  0.00  0.00    -0.041 I 
ATOM      7  C   UNL     1       0.609   5.921  -4.019  0.00  0.00    +0.067 A 
ATOM      8  C   UNL     1      -0.508   5.909  -3.193  0.00  0.00    +0.040 A 
ATOM      9  I   UNL     1      -2.416   6.083  -4.086  0.00  0.00    -0.042 I 
ENDROOT
BRANCH   1  11
ATOM     10  O   UNL     1      -2.333   5.774  -0.857  0.00  0.00    -0.268 OA
ATOM     11  C   UNL     1      -1.602   6.508  -1.088  0.00  0.00    +0.266 C 
ATOM     12  N   UNL     1      -1.777   7.747  -0.467  0.00  0.00    -0.199 NA
BRANCH  12  13
ATOM     13  C   UNL     1      -2.361   7.748   0.850  0.00  0.00    +0.151 C 
BRANCH  13  14
ATOM     14  C   UNL     1      -1.915   9.213   1.518  0.00  0.00    +0.206 C 
ATOM     15  O   UNL     1      -3.312   9.444   2.127  0.00  0.00    -0.218 OA
BRANCH  14  16
ATOM     16  C   UNL     1      -1.359   8.477   2.915  0.00  0.00    +0.217 C 
ATOM     17  O   UNL     1      -2.261   7.417   3.071  0.00  0.00    -0.218 OA
ENDBRANCH  14  16
ENDBRANCH  13  14
ENDBRANCH  12  13
ENDBRANCH   1  11
BRANCH   4  18
ATOM     18  N   UNL     1       3.327   6.094  -1.547  0.00  0.00    -0.253 N 
ATOM     19  C   UNL     1       3.954   7.360  -1.291  0.00  0.00    +0.263 C 
ATOM     20  O   UNL     1       4.406   7.941  -2.321  0.00  0.00    -0.272 OA
BRANCH  19  21
ATOM     21  C   UNL     1       4.569   7.579   0.043  0.00  0.00    +0.267 C 
ATOM     22  O   UNL     1       4.584   6.446   0.832  0.00  0.00    -0.210 OA
ENDBRANCH  19  21
BRANCH  18  23
ATOM     23  C   UNL     1       4.257   5.092  -2.071  0.00  0.00    +0.134 C 
BRANCH  23  24
ATOM     24  C   UNL     1       4.451   3.932  -1.149  0.00  0.00    +0.204 C 
ATOM     25  O   UNL     1       3.261   3.585  -0.490  0.00  0.00    -0.218 OA
ENDBRANCH  23  24
ENDBRANCH  18  23
ENDBRANCH   4  18
BRANCH   7  26
ATOM     26  C   UNL     1       0.517   5.376  -5.366  0.00  0.00    +0.266 C 
ATOM     27  N   UNL     1       0.368   6.162  -6.530  0.00  0.00    -0.199 NA
ATOM     28  O   UNL     1       0.946   4.194  -5.543  0.00  0.00    -0.268 OA
BRANCH  27  29
ATOM     29  C   UNL     1       0.361   5.607  -7.867  0.00  0.00    +0.151 C 
BRANCH  29  30
ATOM     30  C   UNL     1       1.845   6.152  -8.411  0.00  0.00    +0.206 C 
ATOM     31  O   UNL     1       1.175   7.051  -9.467  0.00  0.00    -0.218 OA
BRANCH  30  32
ATOM     32  C   UNL     1       1.957   4.884  -9.497  0.00  0.00    +0.217 C 
ATOM     33  O   UNL     1       2.402   3.850  -8.672  0.00  0.00    -0.218 OA
ENDBRANCH  30  32
ENDBRANCH  29  30
ENDBRANCH  27  29
ENDBRANCH   7  26
TORSDOF 12
ENDMDL
MODEL 6
REMARK VINA RESULT:      -5.6      4.692      7.620
REMARK  Name = 
REMARK  12 active torsions:
REMARK  status: ('A' for Active; 'I' for Inactive)
REMARK    1  A    between atoms: C_2  and  C_9
REMARK    2  A    between atoms: N_3  and  C_4
REMARK    3  A    between atoms: C_4  and  C_5
REMARK    4  A    between atoms: C_5  and  C_7
REMARK    5  A    between atoms: C_12  and  C_13
REMARK    6  A    between atoms: N_15  and  C_16
REMARK    7  A    between atoms: C_16  and  C_17
REMARK    8  A    between atoms: C_17  and  C_19
REMARK    9  A    between atoms: C_23  and  N_24
REMARK   10  A    between atoms: N_24  and  C_25
REMARK   11  A    between atoms: C_25  and  C_26
REMARK   12  A    between atoms: C_28  and  C_30
REMARK                            x       y       z     vdW  Elec       q    Type
REMARK                         _______ _______ _______ _____ _____    ______ ____
ROOT
ATOM      1  C   UNL     1       1.053   6.175  -5.883  0.00  0.00    +0.067 A 
ATOM      2  C   UNL     1       2.221   6.194  -5.168  0.00  0.00    +0.049 A 
ATOM      3  I   UNL     1       4.013   5.529  -6.081  0.00  0.00    -0.041 I 
ATOM      4  C   UNL     1       2.279   6.454  -3.803  0.00  0.00    +0.065 A 
ATOM      5  C   UNL     1       1.116   6.271  -3.065  0.00  0.00    +0.049 A 
ATOM      6  I   UNL     1       1.119   5.534  -1.098  0.00  0.00    -0.041 I 
ATOM      7  C   UNL     1      -0.089   6.264  -3.738  0.00  0.00    +0.067 A 
ATOM      8  C   UNL     1      -0.114   6.225  -5.127  0.00  0.00    +0.040 A 
ATOM      9  I   UNL     1      -1.950   5.800  -6.084  0.00  0.00    -0.042 I 
ENDROOT
BRANCH   1  11
ATOM     10  O   UNL     1       0.617   4.682  -7.398  0.00  0.00    -0.268 OA
ATOM     11  C   UNL     1       0.955   5.678  -7.258  0.00  0.00    +0.266 C 
ATOM     12  N   UNL     1       1.043   6.452  -8.417  0.00  0.00    -0.199 NA
BRANCH  12  13
ATOM     13  C   UNL     1       0.083   6.192  -9.459  0.00  0.00    +0.151 C 
BRANCH  13  14
ATOM     14  C   UNL     1       0.911   6.462 -10.886  0.00  0.00    +0.206 C 
ATOM     15  O   UNL     1       2.085   5.559 -10.461  0.00  0.00    -0.218 OA
BRANCH  14  16
ATOM     16  C   UNL     1       0.130   5.194 -11.650  0.00  0.00    +0.217 C 
ATOM     17  O   UNL     1       0.329   4.138 -10.753  0.00  0.00    -0.218 OA
ENDBRANCH  14  16
ENDBRANCH  13  14
ENDBRANCH  12  13
ENDBRANCH   1  11
BRANCH   4  18
ATOM     18  N   UNL     1       3.521   6.541  -3.093  0.00  0.00    -0.253 N 
ATOM     19  C   UNL     1       4.196   7.795  -2.912  0.00  0.00    +0.263 C 
ATOM     20  O   UNL     1       4.814   8.213  -3.935  0.00  0.00    -0.272 OA
BRANCH  19  21
ATOM     21  C   UNL     1       4.649   8.155  -1.544  0.00  0.00    +0.267 C 
ATOM     22  O   UNL     1       3.631   8.615  -0.733  0.00  0.00    -0.210 OA
ENDBRANCH  19  21
BRANCH  18  23
ATOM     23  C   UNL     1       4.440   5.432  -3.360  0.00  0.00    +0.134 C 
BRANCH  23  24
ATOM     24  C   UNL     1       4.326   4.323  -2.365  0.00  0.00    +0.204 C 
ATOM     25  O   UNL     1       4.607   4.762  -1.062  0.00  0.00    -0.218 OA
ENDBRANCH  23  24
ENDBRANCH  18  23
ENDBRANCH   4  18
BRANCH   7  26
ATOM     26  C   UNL     1      -1.272   6.697  -3.006  0.00  0.00    +0.266 C 
ATOM     27  N   UNL     1      -1.552   6.336  -1.669  0.00  0.00    -0.199 NA
ATOM     28  O   UNL     1      -1.885   7.717  -3.448  0.00  0.00    -0.268 OA
BRANCH  27  29
ATOM     29  C   UNL     1      -2.690   6.843  -0.934  0.00  0.00    +0.151 C 
BRANCH  29  30
ATOM     30  C   UNL     1      -2.026   6.926   0.599  0.00  0.00    +0.206 C 
ATOM     31  O   UNL     1      -3.227   7.736   1.122  0.00  0.00    -0.218 OA
BRANCH  30  32
ATOM     32  C   UNL     1      -1.197   8.325   0.207  0.00  0.00    +0.217 C 
ATOM     33  O   UNL     1      -1.757   9.239   1.101  0.00  0.00    -0.218 OA
ENDBRANCH  30  32
ENDBRANCH  29  30
ENDBRANCH  27  29
ENDBRANCH   7  26
TORSDOF 12
ENDMDL
MODEL 7
REMARK VINA RESULT:      -5.5      2.809      6.832
REMARK  Name = 
REMARK  12 active torsions:
REMARK  status: ('A' for Active; 'I' for Inactive)
REMARK    1  A    between atoms: C_2  and  C_9
REMARK    2  A    between atoms: N_3  and  C_4
REMARK    3  A    between atoms: C_4  and  C_5
REMARK    4  A    between atoms: C_5  and  C_7
REMARK    5  A    between atoms: C_12  and  C_13
REMARK    6  A    between atoms: N_15  and  C_16
REMARK    7  A    between atoms: C_16  and  C_17
REMARK    8  A    between atoms: C_17  and  C_19
REMARK    9  A    between atoms: C_23  and  N_24
REMARK   10  A    between atoms: N_24  and  C_25
REMARK   11  A    between atoms: C_25  and  C_26
REMARK   12  A    between atoms: C_28  and  C_30
REMARK                            x       y       z     vdW  Elec       q    Type
REMARK                         _______ _______ _______ _____ _____    ______ ____
ROOT
ATOM      1  C   UNL     1       1.376   6.825 -13.845  0.00  0.00    +0.067 A 
ATOM      2  C   UNL     1       1.216   6.588 -12.506  0.00  0.00    +0.049 A 
ATOM      3  I   UNL     1      -0.513   7.307 -11.518  0.00  0.00    -0.041 I 
ATOM      4  C   UNL     1       2.215   6.053 -11.698  0.00  0.00    +0.065 A 
ATOM      5  C   UNL     1       3.527   6.156 -12.147  0.00  0.00    +0.049 A 
ATOM      6  I   UNL     1       5.150   6.478 -10.854  0.00  0.00    -0.041 I 
ATOM      7  C   UNL     1       3.740   6.377 -13.493  0.00  0.00    +0.067 A 
ATOM      8  C   UNL     1       2.675   6.697 -14.326  0.00  0.00    +0.040 A 
ATOM      9  I   UNL     1       3.104   7.425 -16.264  0.00  0.00    -0.042 I 
ENDROOT
BRANCH   1  11
ATOM     10  O   UNL     1       0.411   8.649 -14.521  0.00  0.00    -0.268 OA
ATOM     11  C   UNL     1       0.422   7.595 -14.648  0.00  0.00    +0.266 C 
ATOM     12  N   UNL     1      -0.317   7.111 -15.730  0.00  0.00    -0.199 NA
BRANCH  12  13
ATOM     13  C   UNL     1      -0.392   7.944 -16.903  0.00  0.00    +0.151 C 
BRANCH  13  14
ATOM     14  C   UNL     1      -0.962   6.938 -18.110  0.00  0.00    +0.206 C 
ATOM     15  O   UNL     1      -1.461   5.887 -17.100  0.00  0.00    -0.218 OA
BRANCH  14  16
ATOM     16  C   UNL     1      -2.448   7.709 -18.136  0.00  0.00    +0.217 C 
ATOM     17  O   UNL     1      -3.342   6.631 -18.125  0.00  0.00    -0.218 OA
ENDBRANCH  14  16
ENDBRANCH  13  14
ENDBRANCH  12  13
ENDBRANCH   1  11
BRANCH   4  18
ATOM     18  N   UNL     1       1.998   5.744 -10.315  0.00  0.00    -0.253 N 
ATOM     19  C   UNL     1       1.541   4.450  -9.898  0.00  0.00    +0.263 C 
ATOM     20  O   UNL     1       0.305   4.243 -10.081  0.00  0.00    -0.272 OA
BRANCH  19  21
ATOM     21  C   UNL     1       2.276   3.768  -8.802  0.00  0.00    +0.267 C 
ATOM     22  O   UNL     1       3.649   3.858  -8.925  0.00  0.00    -0.210 OA
ENDBRANCH  19  21
BRANCH  18  23
ATOM     23  C   UNL     1       1.396   6.837  -9.548  0.00  0.00    +0.134 C 
BRANCH  23  24
ATOM     24  C   UNL     1       2.103   7.110  -8.261  0.00  0.00    +0.204 C 
ATOM     25  O   UNL     1       2.117   8.480  -7.955  0.00  0.00    -0.218 OA
ENDBRANCH  23  24
ENDBRANCH  18  23
ENDBRANCH   4  18
BRANCH   7  26
ATOM     26  C   UNL     1       4.983   5.881 -14.067  0.00  0.00    +0.266 C 
ATOM     27  N   UNL     1       5.992   6.710 -14.606  0.00  0.00    -0.199 NA
ATOM     28  O   UNL     1       5.338   4.705 -13.750  0.00  0.00    -0.268 OA
BRANCH  27  29
ATOM     29  C   UNL     1       7.256   6.203 -15.097  0.00  0.00    +0.151 C 
BRANCH  29  30
ATOM     30  C   UNL     1       7.612   7.377 -16.234  0.00  0.00    +0.206 C 
ATOM     31  O   UNL     1       6.441   8.256 -15.755  0.00  0.00    -0.218 OA
BRANCH  30  32
ATOM     32  C   UNL     1       6.638   6.626 -17.370  0.00  0.00    +0.217 C 
ATOM     33  O   UNL     1       7.502   5.654 -17.876  0.00  0.00    -0.218 OA
ENDBRANCH  30  32
ENDBRANCH  29  30
ENDBRANCH  27  29
ENDBRANCH   7  26
TORSDOF 12
ENDMDL
MODEL 8
REMARK VINA RESULT:      -5.4      5.012      9.758
REMARK  Name = 
REMARK  12 active torsions:
REMARK  status: ('A' for Active; 'I' for Inactive)
REMARK    1  A    between atoms: C_2  and  C_9
REMARK    2  A    between atoms: N_3  and  C_4
REMARK    3  A    between atoms: C_4  and  C_5
REMARK    4  A    between atoms: C_5  and  C_7
REMARK    5  A    between atoms: C_12  and  C_13
REMARK    6  A    between atoms: N_15  and  C_16
REMARK    7  A    between atoms: C_16  and  C_17
REMARK    8  A    between atoms: C_17  and  C_19
REMARK    9  A    between atoms: C_23  and  N_24
REMARK   10  A    between atoms: N_24  and  C_25
REMARK   11  A    between atoms: C_25  and  C_26
REMARK   12  A    between atoms: C_28  and  C_30
REMARK                            x       y       z     vdW  Elec       q    Type
REMARK                         _______ _______ _______ _____ _____    ______ ____
ROOT
ATOM      1  C   UNL     1       1.849   5.019  -4.501  0.00  0.00    +0.067 A 
ATOM      2  C   UNL     1       0.608   5.497  -4.172  0.00  0.00    +0.049 A 
ATOM      3  I   UNL     1      -0.823   5.821  -5.699  0.00  0.00    -0.041 I 
ATOM      4  C   UNL     1       0.278   5.962  -2.903  0.00  0.00    +0.065 A 
ATOM      5  C   UNL     1       1.321   6.351  -2.071  0.00  0.00    +0.049 A 
ATOM      6  I   UNL     1       1.171   7.967  -0.738  0.00  0.00    -0.041 I 
ATOM      7  C   UNL     1       2.588   5.880  -2.350  0.00  0.00    +0.067 A 
ATOM      8  C   UNL     1       2.840   5.217  -3.545  0.00  0.00    +0.040 A 
ATOM      9  I   UNL     1       4.852   4.889  -4.103  0.00  0.00    -0.042 I 
ENDROOT
BRANCH   1  11
ATOM     10  O   UNL     1       2.160   3.757  -6.240  0.00  0.00    -0.268 OA
ATOM     11  C   UNL     1       2.271   4.748  -5.877  0.00  0.00    +0.266 C 
ATOM     12  N   UNL     1       2.594   5.708  -6.839  0.00  0.00    -0.199 NA
BRANCH  12  13
ATOM     13  C   UNL     1       2.066   5.516  -8.166  0.00  0.00    +0.151 C 
BRANCH  13  14
ATOM     14  C   UNL     1       2.143   7.023  -8.883  0.00  0.00    +0.206 C 
ATOM     15  O   UNL     1       3.169   6.553  -9.933  0.00  0.00    -0.218 OA
BRANCH  14  16
ATOM     16  C   UNL     1       0.855   6.676  -9.894  0.00  0.00    +0.217 C 
ATOM     17  O   UNL     1       0.456   5.411  -9.444  0.00  0.00    -0.218 OA
ENDBRANCH  14  16
ENDBRANCH  13  14
ENDBRANCH  12  13
ENDBRANCH   1  11
BRANCH   4  18
ATOM     18  N   UNL     1      -1.049   6.387  -2.565  0.00  0.00    -0.253 N 
ATOM     19  C   UNL     1      -1.904   5.586  -1.737  0.00  0.00    +0.263 C 
ATOM     20  O   UNL     1      -2.431   4.596  -2.324  0.00  0.00    -0.272 OA
BRANCH  19  21
ATOM     21  C   UNL     1      -2.582   6.244  -0.590  0.00  0.00    +0.267 C 
ATOM     22  O   UNL     1      -1.873   6.151   0.592  0.00  0.00    -0.210 OA
ENDBRANCH  19  21
BRANCH  18  23
ATOM     23  C   UNL     1      -1.764   7.038  -3.664  0.00  0.00    +0.134 C 
BRANCH  23  24
ATOM     24  C   UNL     1      -2.109   8.464  -3.377  0.00  0.00    +0.204 C 
ATOM     25  O   UNL     1      -1.826   9.298  -4.470  0.00  0.00    -0.218 OA
ENDBRANCH  23  24
ENDBRANCH  18  23
ENDBRANCH   4  18
BRANCH   7  26
ATOM     26  C   UNL     1       3.513   5.736  -1.235  0.00  0.00    +0.266 C 
ATOM     27  N   UNL     1       4.289   6.792  -0.707  0.00  0.00    -0.199 NA
ATOM     28  O   UNL     1       3.354   4.730  -0.477  0.00  0.00    -0.268 OA
BRANCH  27  29
ATOM     29  C   UNL     1       5.141   6.647   0.454  0.00  0.00    +0.151 C 
BRANCH  29  30
ATOM     30  C   UNL     1       4.974   8.171   1.122  0.00  0.00    +0.206 C 
ATOM     31  O   UNL     1       6.142   7.918   2.095  0.00  0.00    -0.218 OA
BRANCH  30  32
ATOM     32  C   UNL     1       3.865   7.602   2.239  0.00  0.00    +0.217 C 
ATOM     33  O   UNL     1       4.677   6.822   3.064  0.00  0.00    -0.218 OA
ENDBRANCH  30  32
ENDBRANCH  29  30
ENDBRANCH  27  29
ENDBRANCH   7  26
TORSDOF 12
ENDMDL
MODEL 9
REMARK VINA RESULT:      -5.3      2.432      8.090
REMARK  Name = 
REMARK  12 active torsions:
REMARK  status: ('A' for Active; 'I' for Inactive)
REMARK    1  A    between atoms: C_2  and  C_9
REMARK    2  A    between atoms: N_3  and  C_4
REMARK    3  A    between atoms: C_4  and  C_5
REMARK    4  A    between atoms: C_5  and  C_7
REMARK    5  A    between atoms: C_12  and  C_13
REMARK    6  A    between atoms: N_15  and  C_16
REMARK    7  A    between atoms: C_16  and  C_17
REMARK    8  A    between atoms: C_17  and  C_19
REMARK    9  A    between atoms: C_23  and  N_24
REMARK   10  A    between atoms: N_24  and  C_25
REMARK   11  A    between atoms: C_25  and  C_26
REMARK   12  A    between atoms: C_28  and  C_30
REMARK                            x       y       z     vdW  Elec       q    Type
REMARK                         _______ _______ _______ _____ _____    ______ ____
ROOT
ATOM      1  C   UNL     1       3.748   6.001  -8.011  0.00  0.00    +0.067 A 
ATOM      2  C   UNL     1       3.175   6.206  -6.784  0.00  0.00    +0.049 A 
ATOM      3  I   UNL     1       4.331   5.918  -5.033  0.00  0.00    -0.041 I 
ATOM      4  C   UNL     1       1.812   6.418  -6.601  0.00  0.00    +0.065 A 
ATOM      5  C   UNL     1       0.956   5.995  -7.611  0.00  0.00    +0.049 A 
ATOM      6  I   UNL     1      -0.947   5.194  -7.228  0.00  0.00    -0.041 I 
ATOM      7  C   UNL     1       1.483   5.793  -8.871  0.00  0.00    +0.067 A 
ATOM      8  C   UNL     1       2.858   5.806  -9.063  0.00  0.00    +0.040 A 
ATOM      9  I   UNL     1       3.619   5.089 -10.900  0.00  0.00    -0.042 I 
ENDROOT
BRANCH   1  11
ATOM     10  O   UNL     1       5.337   4.522  -8.029  0.00  0.00    -0.268 OA
ATOM     11  C   UNL     1       5.130   5.550  -8.192  0.00  0.00    +0.266 C 
ATOM     12  N   UNL     1       6.162   6.286  -8.780  0.00  0.00    -0.199 NA
BRANCH  12  13
ATOM     13  C   UNL     1       7.012   5.598  -9.717  0.00  0.00    +0.151 C 
BRANCH  13  14
ATOM     14  C   UNL     1       6.984   6.541 -11.097  0.00  0.00    +0.206 C 
ATOM     15  O   UNL     1       7.821   7.656 -10.441  0.00  0.00    -0.218 OA
BRANCH  14  16
ATOM     16  C   UNL     1       8.349   5.791 -11.711  0.00  0.00    +0.217 C 
ATOM     17  O   UNL     1       7.805   4.692 -12.387  0.00  0.00    -0.218 OA
ENDBRANCH  14  16
ENDBRANCH  13  14
ENDBRANCH  12  13
ENDBRANCH   1  11
BRANCH   4  18
ATOM     18  N   UNL     1       1.248   6.704  -5.314  0.00  0.00    -0.253 N 
ATOM     19  C   UNL     1       1.293   5.746  -4.247  0.00  0.00    +0.263 C 
ATOM     20  O   UNL     1       0.451   4.805  -4.346  0.00  0.00    -0.272 OA
BRANCH  19  21
ATOM     21  C   UNL     1       1.777   6.202  -2.918  0.00  0.00    +0.267 C 
ATOM     22  O   UNL     1       1.597   5.266  -1.919  0.00  0.00    -0.210 OA
ENDBRANCH  19  21
BRANCH  18  23
ATOM     23  C   UNL     1      -0.016   7.440  -5.368  0.00  0.00    +0.134 C 
BRANCH  23  24
ATOM     24  C   UNL     1      -0.766   7.415  -4.076  0.00  0.00    +0.204 C 
ATOM     25  O   UNL     1      -2.155   7.405  -4.281  0.00  0.00    -0.218 OA
ENDBRANCH  23  24
ENDBRANCH  18  23
ENDBRANCH   4  18
BRANCH   7  26
ATOM     26  C   UNL     1       0.592   5.972 -10.009  0.00  0.00    +0.266 C 
ATOM     27  N   UNL     1       0.668   7.056 -10.911  0.00  0.00    -0.199 NA
ATOM     28  O   UNL     1      -0.034   4.947 -10.421  0.00  0.00    -0.268 OA
BRANCH  27  29
ATOM     29  C   UNL     1      -0.174   7.172 -12.083  0.00  0.00    +0.151 C 
BRANCH  29  30
ATOM     30  C   UNL     1       1.001   7.285 -13.268  0.00  0.00    +0.206 C 
ATOM     31  O   UNL     1      -0.039   7.723 -14.317  0.00  0.00    -0.218 OA
BRANCH  30  32
ATOM     32  C   UNL     1       0.799   5.675 -13.677  0.00  0.00    +0.217 C 
ATOM     33  O   UNL     1       1.894   5.462 -14.516  0.00  0.00    -0.218 OA
ENDBRANCH  30  32
ENDBRANCH  29  30
ENDBRANCH  27  29
ENDBRANCH   7  26
TORSDOF 12
ENDMDL
