MODEL 1
REMARK VINA RESULT:      -9.7      0.000      0.000
REMARK  Name = 
REMARK  7 active torsions:
REMARK  status: ('A' for Active; 'I' for Inactive)
REMARK    1  A    between atoms: C_10  and  C_11
REMARK    2  A    between atoms: C_11  and  C_12
REMARK    3  A    between atoms: C_12  and  N_13
REMARK    4  A    between atoms: N_13  and  C_14
REMARK    5  A    between atoms: C_14  and  C_15
REMARK    6  A    between atoms: C_18  and  C_19
REMARK    7  A    between atoms: C_20  and  C_21
REMARK                            x       y       z     vdW  Elec       q    Type
REMARK                         _______ _______ _______ _____ _____    ______ ____
ROOT
ATOM      1  N   UNL     1       0.396   6.533  -9.103  0.00  0.00    -0.213 NA
ENDROOT
BRANCH   1   2
ATOM      2  C   UNL     1       1.658   6.458  -9.831  0.00  0.00    +0.094 C 
BRANCH   2   3
ATOM      3  C   UNL     1       2.705   7.121  -8.946  0.00  0.00    +0.046 C 
BRANCH   3   6
ATOM      4  C   UNL     1       3.547   4.940  -6.841  0.00  0.00    +0.052 C 
ATOM      5  C   UNL     1       4.408   5.565  -7.871  0.00  0.00    +0.055 A 
ATOM      6  C   UNL     1       3.909   6.233  -8.971  0.00  0.00    -0.006 A 
ATOM      7  C   UNL     1       4.979   6.455  -9.801  0.00  0.00    +0.015 A 
ATOM      8  C   UNL     1       6.042   5.690  -9.359  0.00  0.00    +0.081 A 
ATOM      9  C   UNL     1       7.331   5.982  -9.787  0.00  0.00    +0.019 A 
ATOM     10  C   UNL     1       7.568   7.063 -10.592  0.00  0.00    +0.002 A 
ATOM     11  C   UNL     1       6.505   7.584 -11.316  0.00  0.00    +0.000 A 
ATOM     12  C   UNL     1       5.224   7.316 -10.853  0.00  0.00    +0.001 A 
ATOM     13  N   UNL     1       5.581   5.035  -8.280  0.00  0.00    -0.250 NA
ENDBRANCH   3   6
ENDBRANCH   2   3
ENDBRANCH   1   2
BRANCH   1  14
ATOM     14  C   UNL     1       0.258   5.306  -8.332  0.00  0.00    +0.115 C 
BRANCH  14  15
ATOM     15  C   UNL     1      -0.309   5.575  -6.983  0.00  0.00    -0.005 A 
ATOM     16  C   UNL     1      -1.662   5.435  -6.740  0.00  0.00    -0.003 A 
ATOM     17  C   UNL     1      -2.338   6.210  -5.809  0.00  0.00    -0.000 A 
ATOM     18  C   UNL     1      -1.632   7.017  -4.958  0.00  0.00    +0.000 A 
ATOM     19  C   UNL     1      -0.270   7.174  -5.180  0.00  0.00    -0.000 A 
ATOM     20  C   UNL     1       0.363   6.496  -6.195  0.00  0.00    -0.003 A 
BRANCH  18  21
ATOM     21  C   UNL     1      -2.173   7.638  -3.767  0.00  0.00    +0.002 C 
ATOM     22  C   UNL     1      -2.609   6.901  -2.773  0.00  0.00    +0.025 C 
BRANCH  22  23
ATOM     23  C   UNL     1      -1.929   5.631  -2.495  0.00  0.00    +0.110 C 
ATOM     24  N   UNL     1      -0.863   5.555  -1.539  0.00  0.00    -0.198 NA
ATOM     25  O   UNL     1      -0.043   4.473  -1.628  0.00  0.00    -0.402 OA
ATOM     26  O   UNL     1      -2.671   4.603  -2.548  0.00  0.00    -0.536 OA
ENDBRANCH  22  23
ENDBRANCH  18  21
ENDBRANCH  14  15
ENDBRANCH   1  14
TORSDOF 7
ENDMDL
MODEL 2
REMARK VINA RESULT:      -9.2      1.220      1.979
REMARK  Name = 
REMARK  7 active torsions:
REMARK  status: ('A' for Active; 'I' for Inactive)
REMARK    1  A    between atoms: C_10  and  C_11
REMARK    2  A    between atoms: C_11  and  C_12
REMARK    3  A    between atoms: C_12  and  N_13
REMARK    4  A    between atoms: N_13  and  C_14
REMARK    5  A    between atoms: C_14  and  C_15
REMARK    6  A    between atoms: C_18  and  C_19
REMARK    7  A    between atoms: C_20  and  C_21
REMARK                            x       y       z     vdW  Elec       q    Type
REMARK                         _______ _______ _______ _____ _____    ______ ____
ROOT
ATOM      1  N   UNL     1       2.183   5.899  -7.933  0.00  0.00    -0.213 NA
ENDROOT
BRANCH   1   2
ATOM      2  C   UNL     1       3.088   4.767  -7.755  0.00  0.00    +0.094 C 
BRANCH   2   3
ATOM      3  C   UNL     1       3.431   4.268  -9.152  0.00  0.00    +0.046 C 
BRANCH   3   6
ATOM      4  C   UNL     1       2.004   5.745 -11.533  0.00  0.00    +0.052 C 
ATOM      5  C   UNL     1       3.434   5.832 -11.159  0.00  0.00    +0.055 A 
ATOM      6  C   UNL     1       3.916   5.455  -9.922  0.00  0.00    -0.006 A 
ATOM      7  C   UNL     1       5.215   5.896  -9.869  0.00  0.00    +0.015 A 
ATOM      8  C   UNL     1       5.425   6.769 -10.919  0.00  0.00    +0.081 A 
ATOM      9  C   UNL     1       6.720   7.084 -11.311  0.00  0.00    +0.019 A 
ATOM     10  C   UNL     1       7.793   6.485 -10.707  0.00  0.00    +0.002 A 
ATOM     11  C   UNL     1       7.607   5.923  -9.452  0.00  0.00    +0.000 A 
ATOM     12  C   UNL     1       6.312   5.578  -9.091  0.00  0.00    +0.001 A 
ATOM     13  N   UNL     1       4.251   6.825 -11.572  0.00  0.00    -0.250 NA
ENDBRANCH   3   6
ENDBRANCH   2   3
ENDBRANCH   1   2
BRANCH   1  14
ATOM     14  C   UNL     1       0.832   5.368  -8.043  0.00  0.00    +0.115 C 
BRANCH  14  15
ATOM     15  C   UNL     1       0.049   5.618  -6.802  0.00  0.00    -0.005 A 
ATOM     16  C   UNL     1      -1.319   5.430  -6.776  0.00  0.00    -0.003 A 
ATOM     17  C   UNL     1      -2.162   6.181  -5.969  0.00  0.00    -0.000 A 
ATOM     18  C   UNL     1      -1.629   7.015  -5.022  0.00  0.00    +0.000 A 
ATOM     19  C   UNL     1      -0.255   7.220  -5.027  0.00  0.00    -0.000 A 
ATOM     20  C   UNL     1       0.554   6.564  -5.924  0.00  0.00    -0.003 A 
BRANCH  18  21
ATOM     21  C   UNL     1      -2.373   7.617  -3.936  0.00  0.00    +0.002 C 
ATOM     22  C   UNL     1      -2.856   6.873  -2.969  0.00  0.00    +0.025 C 
BRANCH  22  23
ATOM     23  C   UNL     1      -2.095   5.690  -2.552  0.00  0.00    +0.110 C 
ATOM     24  N   UNL     1      -1.086   5.779  -1.538  0.00  0.00    -0.198 NA
ATOM     25  O   UNL     1      -0.179   4.767  -1.493  0.00  0.00    -0.402 OA
ATOM     26  O   UNL     1      -2.750   4.604  -2.558  0.00  0.00    -0.536 OA
ENDBRANCH  22  23
ENDBRANCH  18  21
ENDBRANCH  14  15
ENDBRANCH   1  14
TORSDOF 7
ENDMDL
MODEL 3
REMARK VINA RESULT:      -9.0      4.065      9.132
REMARK  Name = 
REMARK  7 active torsions:
REMARK  status: ('A' for Active; 'I' for Inactive)
REMARK    1  A    between atoms: C_10  and  C_11
REMARK    2  A    between atoms: C_11  and  C_12
REMARK    3  A    between atoms: C_12  and  N_13
REMARK    4  A    between atoms: N_13  and  C_14
REMARK    5  A    between atoms: C_14  and  C_15
REMARK    6  A    between atoms: C_18  and  C_19
REMARK    7  A    between atoms: C_20  and  C_21
REMARK                            x       y       z     vdW  Elec       q    Type
REMARK                         _______ _______ _______ _____ _____    ______ ____
ROOT
ATOM      1  N   UNL     1       4.331   6.378  -6.431  0.00  0.00    -0.213 NA
ENDROOT
BRANCH   1   2
ATOM      2  C   UNL     1       3.021   6.452  -5.792  0.00  0.00    +0.094 C 
BRANCH   2   3
ATOM      3  C   UNL     1       2.078   7.071  -6.814  0.00  0.00    +0.046 C 
BRANCH   3   6
ATOM      4  C   UNL     1       1.091   5.023  -8.988  0.00  0.00    +0.052 C 
ATOM      5  C   UNL     1       0.280   5.646  -7.917  0.00  0.00    +0.055 A 
ATOM      6  C   UNL     1       0.832   6.244  -6.801  0.00  0.00    -0.006 A 
ATOM      7  C   UNL     1      -0.211   6.484  -5.942  0.00  0.00    +0.015 A 
ATOM      8  C   UNL     1      -1.319   5.791  -6.393  0.00  0.00    +0.081 A 
ATOM      9  C   UNL     1      -2.584   6.128  -5.929  0.00  0.00    +0.019 A 
ATOM     10  C   UNL     1      -2.752   7.187  -5.077  0.00  0.00    +0.002 A 
ATOM     11  C   UNL     1      -1.652   7.624  -4.354  0.00  0.00    +0.000 A 
ATOM     12  C   UNL     1      -0.394   7.313  -4.852  0.00  0.00    +0.001 A 
ATOM     13  N   UNL     1      -0.910   5.159  -7.507  0.00  0.00    -0.250 NA
ENDBRANCH   3   6
ENDBRANCH   2   3
ENDBRANCH   1   2
BRANCH   1  14
ATOM     14  C   UNL     1       4.346   5.185  -7.267  0.00  0.00    +0.115 C 
BRANCH  14  15
ATOM     15  C   UNL     1       4.960   5.462  -8.594  0.00  0.00    -0.005 A 
ATOM     16  C   UNL     1       6.322   5.332  -8.787  0.00  0.00    -0.003 A 
ATOM     17  C   UNL     1       7.026   6.115  -9.691  0.00  0.00    -0.000 A 
ATOM     18  C   UNL     1       6.345   6.919 -10.566  0.00  0.00    +0.000 A 
ATOM     19  C   UNL     1       4.974   7.064 -10.394  0.00  0.00    -0.000 A 
ATOM     20  C   UNL     1       4.311   6.380  -9.404  0.00  0.00    -0.003 A 
BRANCH  18  21
ATOM     21  C   UNL     1       6.924   7.546 -11.735  0.00  0.00    +0.002 C 
ATOM     22  C   UNL     1       7.392   6.815 -12.719  0.00  0.00    +0.025 C 
BRANCH  22  23
ATOM     23  C   UNL     1       6.721   5.547 -13.026  0.00  0.00    +0.110 C 
ATOM     24  N   UNL     1       5.475   5.521 -13.736  0.00  0.00    -0.198 NA
ATOM     25  O   UNL     1       4.740   4.382 -13.632  0.00  0.00    -0.402 OA
ATOM     26  O   UNL     1       7.498   4.577 -13.280  0.00  0.00    -0.536 OA
ENDBRANCH  22  23
ENDBRANCH  18  21
ENDBRANCH  14  15
ENDBRANCH   1  14
TORSDOF 7
ENDMDL
MODEL 4
REMARK VINA RESULT:      -8.8      4.532      8.505
REMARK  Name = 
REMARK  7 active torsions:
REMARK  status: ('A' for Active; 'I' for Inactive)
REMARK    1  A    between atoms: C_10  and  C_11
REMARK    2  A    between atoms: C_11  and  C_12
REMARK    3  A    between atoms: C_12  and  N_13
REMARK    4  A    between atoms: N_13  and  C_14
REMARK    5  A    between atoms: C_14  and  C_15
REMARK    6  A    between atoms: C_18  and  C_19
REMARK    7  A    between atoms: C_20  and  C_21
REMARK                            x       y       z     vdW  Elec       q    Type
REMARK                         _______ _______ _______ _____ _____    ______ ____
ROOT
ATOM      1  N   UNL     1       1.486   5.415  -8.589  0.00  0.00    -0.213 NA
ENDROOT
BRANCH   1   2
ATOM      2  C   UNL     1       0.756   5.382  -7.326  0.00  0.00    +0.094 C 
BRANCH   2   3
ATOM      3  C   UNL     1       1.018   6.718  -6.643  0.00  0.00    +0.046 C 
BRANCH   3   6
ATOM      4  C   UNL     1      -0.821   6.059  -4.178  0.00  0.00    +0.052 C 
ATOM      5  C   UNL     1       0.599   6.476  -4.145  0.00  0.00    +0.055 A 
ATOM      6  C   UNL     1       1.435   6.404  -5.241  0.00  0.00    -0.006 A 
ATOM      7  C   UNL     1       2.702   6.643  -4.771  0.00  0.00    +0.015 A 
ATOM      8  C   UNL     1       2.678   6.572  -3.391  0.00  0.00    +0.081 A 
ATOM      9  C   UNL     1       3.722   7.113  -2.651  0.00  0.00    +0.019 A 
ATOM     10  C   UNL     1       4.745   7.777  -3.274  0.00  0.00    +0.002 A 
ATOM     11  C   UNL     1       4.959   7.529  -4.623  0.00  0.00    +0.000 A 
ATOM     12  C   UNL     1       3.894   7.025  -5.357  0.00  0.00    +0.001 A 
ATOM     13  N   UNL     1       1.402   6.296  -3.074  0.00  0.00    -0.250 NA
ENDBRANCH   3   6
ENDBRANCH   2   3
ENDBRANCH   1   2
BRANCH   1  14
ATOM     14  C   UNL     1       2.741   4.703  -8.391  0.00  0.00    +0.115 C 
BRANCH  14  15
ATOM     15  C   UNL     1       3.910   5.572  -8.696  0.00  0.00    -0.005 A 
ATOM     16  C   UNL     1       3.844   6.525  -9.694  0.00  0.00    -0.003 A 
ATOM     17  C   UNL     1       4.951   6.901 -10.442  0.00  0.00    -0.000 A 
ATOM     18  C   UNL     1       6.197   6.465 -10.076  0.00  0.00    +0.000 A 
ATOM     19  C   UNL     1       6.289   5.508  -9.074  0.00  0.00    -0.000 A 
ATOM     20  C   UNL     1       5.165   5.047  -8.431  0.00  0.00    -0.003 A 
BRANCH  18  21
ATOM     21  C   UNL     1       7.443   7.009 -10.574  0.00  0.00    +0.002 C 
ATOM     22  C   UNL     1       8.072   6.426 -11.567  0.00  0.00    +0.025 C 
BRANCH  22  23
ATOM     23  C   UNL     1       7.275   5.777 -12.614  0.00  0.00    +0.110 C 
ATOM     24  N   UNL     1       6.605   6.548 -13.619  0.00  0.00    -0.198 NA
ATOM     25  O   UNL     1       5.595   5.928 -14.287  0.00  0.00    -0.402 OA
ATOM     26  O   UNL     1       7.722   4.658 -13.010  0.00  0.00    -0.536 OA
ENDBRANCH  22  23
ENDBRANCH  18  21
ENDBRANCH  14  15
ENDBRANCH   1  14
TORSDOF 7
ENDMDL
MODEL 5
REMARK VINA RESULT:      -8.8      4.168      9.067
REMARK  Name = 
REMARK  7 active torsions:
REMARK  status: ('A' for Active; 'I' for Inactive)
REMARK    1  A    between atoms: C_10  and  C_11
REMARK    2  A    between atoms: C_11  and  C_12
REMARK    3  A    between atoms: C_12  and  N_13
REMARK    4  A    between atoms: N_13  and  C_14
REMARK    5  A    between atoms: C_14  and  C_15
REMARK    6  A    between atoms: C_18  and  C_19
REMARK    7  A    between atoms: C_20  and  C_21
REMARK                            x       y       z     vdW  Elec       q    Type
REMARK                         _______ _______ _______ _____ _____    ______ ____
ROOT
ATOM      1  N   UNL     1       3.893   6.220  -6.419  0.00  0.00    -0.213 NA
ENDROOT
BRANCH   1   2
ATOM      2  C   UNL     1       3.806   5.656  -5.076  0.00  0.00    +0.094 C 
BRANCH   2   3
ATOM      3  C   UNL     1       2.632   4.686  -5.092  0.00  0.00    +0.046 C 
BRANCH   3   6
ATOM      4  C   UNL     1       1.932   5.512  -2.139  0.00  0.00    +0.052 C 
ATOM      5  C   UNL     1       1.009   5.474  -3.297  0.00  0.00    +0.055 A 
ATOM      6  C   UNL     1       1.441   5.451  -4.607  0.00  0.00    -0.006 A 
ATOM      7  C   UNL     1       0.325   5.658  -5.380  0.00  0.00    +0.015 A 
ATOM      8  C   UNL     1      -0.702   6.085  -4.561  0.00  0.00    +0.081 A 
ATOM      9  C   UNL     1      -2.016   6.028  -5.009  0.00  0.00    +0.019 A 
ATOM     10  C   UNL     1      -2.310   5.490  -6.233  0.00  0.00    +0.002 A 
ATOM     11  C   UNL     1      -1.293   5.415  -7.175  0.00  0.00    +0.000 A 
ATOM     12  C   UNL     1       0.015   5.434  -6.707  0.00  0.00    +0.001 A 
ATOM     13  N   UNL     1      -0.176   6.120  -3.324  0.00  0.00    -0.250 NA
ENDBRANCH   3   6
ENDBRANCH   2   3
ENDBRANCH   1   2
BRANCH   1  14
ATOM     14  C   UNL     1       3.795   5.118  -7.366  0.00  0.00    +0.115 C 
BRANCH  14  15
ATOM     15  C   UNL     1       4.560   5.403  -8.610  0.00  0.00    -0.005 A 
ATOM     16  C   UNL     1       5.926   5.205  -8.664  0.00  0.00    -0.003 A 
ATOM     17  C   UNL     1       6.762   5.977  -9.458  0.00  0.00    -0.000 A 
ATOM     18  C   UNL     1       6.222   6.845 -10.369  0.00  0.00    +0.000 A 
ATOM     19  C   UNL     1       4.850   7.061 -10.336  0.00  0.00    -0.000 A 
ATOM     20  C   UNL     1       4.050   6.382  -9.448  0.00  0.00    -0.003 A 
BRANCH  18  21
ATOM     21  C   UNL     1       6.954   7.477 -11.445  0.00  0.00    +0.002 C 
ATOM     22  C   UNL     1       7.509   6.752 -12.388  0.00  0.00    +0.025 C 
BRANCH  22  23
ATOM     23  C   UNL     1       6.835   5.517 -12.804  0.00  0.00    +0.110 C 
ATOM     24  N   UNL     1       5.644   5.555 -13.601  0.00  0.00    -0.198 NA
ATOM     25  O   UNL     1       4.880   4.430 -13.606  0.00  0.00    -0.402 OA
ATOM     26  O   UNL     1       7.609   4.542 -13.051  0.00  0.00    -0.536 OA
ENDBRANCH  22  23
ENDBRANCH  18  21
ENDBRANCH  14  15
ENDBRANCH   1  14
TORSDOF 7
ENDMDL
MODEL 6
REMARK VINA RESULT:      -8.5      4.241      9.221
REMARK  Name = 
REMARK  7 active torsions:
REMARK  status: ('A' for Active; 'I' for Inactive)
REMARK    1  A    between atoms: C_10  and  C_11
REMARK    2  A    between atoms: C_11  and  C_12
REMARK    3  A    between atoms: C_12  and  N_13
REMARK    4  A    between atoms: N_13  and  C_14
REMARK    5  A    between atoms: C_14  and  C_15
REMARK    6  A    between atoms: C_18  and  C_19
REMARK    7  A    between atoms: C_20  and  C_21
REMARK                            x       y       z     vdW  Elec       q    Type
REMARK                         _______ _______ _______ _____ _____    ______ ____
ROOT
ATOM      1  N   UNL     1       1.322   5.497  -8.712  0.00  0.00    -0.213 NA
ENDROOT
BRANCH   1   2
ATOM      2  C   UNL     1       0.748   5.370  -7.376  0.00  0.00    +0.094 C 
BRANCH   2   3
ATOM      3  C   UNL     1       1.095   6.655  -6.636  0.00  0.00    +0.046 C 
BRANCH   3   6
ATOM      4  C   UNL     1       3.072   5.158  -4.702  0.00  0.00    +0.052 C 
ATOM      5  C   UNL     1       1.632   5.418  -4.478  0.00  0.00    +0.055 A 
ATOM      6  C   UNL     1       0.917   6.368  -5.179  0.00  0.00    -0.006 A 
ATOM      7  C   UNL     1      -0.293   6.482  -4.540  0.00  0.00    +0.015 A 
ATOM      8  C   UNL     1      -0.207   5.839  -3.320  0.00  0.00    +0.081 A 
ATOM      9  C   UNL     1      -1.366   5.495  -2.635  0.00  0.00    +0.019 A 
ATOM     10  C   UNL     1      -2.596   5.729  -3.189  0.00  0.00    +0.002 A 
ATOM     11  C   UNL     1      -2.689   6.679  -4.196  0.00  0.00    +0.000 A 
ATOM     12  C   UNL     1      -1.530   6.982  -4.898  0.00  0.00    +0.001 A 
ATOM     13  N   UNL     1       1.046   5.357  -3.263  0.00  0.00    -0.250 NA
ENDBRANCH   3   6
ENDBRANCH   2   3
ENDBRANCH   1   2
BRANCH   1  14
ATOM     14  C   UNL     1       2.541   4.700  -8.745  0.00  0.00    +0.115 C 
BRANCH  14  15
ATOM     15  C   UNL     1       3.744   5.558  -8.924  0.00  0.00    -0.005 A 
ATOM     16  C   UNL     1       3.788   6.520  -9.915  0.00  0.00    -0.003 A 
ATOM     17  C   UNL     1       4.967   6.889 -10.546  0.00  0.00    -0.000 A 
ATOM     18  C   UNL     1       6.166   6.436 -10.062  0.00  0.00    +0.000 A 
ATOM     19  C   UNL     1       6.148   5.469  -9.065  0.00  0.00    -0.000 A 
ATOM     20  C   UNL     1       4.961   5.017  -8.541  0.00  0.00    -0.003 A 
BRANCH  18  21
ATOM     21  C   UNL     1       7.461   6.969 -10.429  0.00  0.00    +0.002 C 
ATOM     22  C   UNL     1       8.182   6.383 -11.356  0.00  0.00    +0.025 C 
BRANCH  22  23
ATOM     23  C   UNL     1       7.489   5.746 -12.481  0.00  0.00    +0.110 C 
ATOM     24  N   UNL     1       7.107   6.500 -13.639  0.00  0.00    -0.198 NA
ATOM     25  O   UNL     1       6.148   5.952 -14.432  0.00  0.00    -0.402 OA
ATOM     26  O   UNL     1       7.837   4.549 -12.716  0.00  0.00    -0.536 OA
ENDBRANCH  22  23
ENDBRANCH  18  21
ENDBRANCH  14  15
ENDBRANCH   1  14
TORSDOF 7
ENDMDL
MODEL 7
REMARK VINA RESULT:      -8.5      1.755      3.913
REMARK  Name = 
REMARK  7 active torsions:
REMARK  status: ('A' for Active; 'I' for Inactive)
REMARK    1  A    between atoms: C_10  and  C_11
REMARK    2  A    between atoms: C_11  and  C_12
REMARK    3  A    between atoms: C_12  and  N_13
REMARK    4  A    between atoms: N_13  and  C_14
REMARK    5  A    between atoms: C_14  and  C_15
REMARK    6  A    between atoms: C_18  and  C_19
REMARK    7  A    between atoms: C_20  and  C_21
REMARK                            x       y       z     vdW  Elec       q    Type
REMARK                         _______ _______ _______ _____ _____    ______ ____
ROOT
ATOM      1  N   UNL     1       4.522   5.228  -6.249  0.00  0.00    -0.213 NA
ENDROOT
BRANCH   1   2
ATOM      2  C   UNL     1       4.510   5.818  -7.584  0.00  0.00    +0.094 C 
BRANCH   2   3
ATOM      3  C   UNL     1       4.498   4.655  -8.567  0.00  0.00    +0.046 C 
BRANCH   3   6
ATOM      4  C   UNL     1       5.922   6.282 -10.851  0.00  0.00    +0.052 C 
ATOM      5  C   UNL     1       4.465   6.167 -10.613  0.00  0.00    +0.055 A 
ATOM      6  C   UNL     1       3.901   5.176  -9.836  0.00  0.00    -0.006 A 
ATOM      7  C   UNL     1       2.547   5.252 -10.044  0.00  0.00    +0.015 A 
ATOM      8  C   UNL     1       2.316   6.069 -11.135  0.00  0.00    +0.081 A 
ATOM      9  C   UNL     1       1.050   6.599 -11.349  0.00  0.00    +0.019 A 
ATOM     10  C   UNL     1       0.042   6.375 -10.451  0.00  0.00    +0.002 A 
ATOM     11  C   UNL     1       0.161   5.290  -9.593  0.00  0.00    +0.000 A 
ATOM     12  C   UNL     1       1.437   4.796  -9.359  0.00  0.00    +0.001 A 
ATOM     13  N   UNL     1       3.535   6.459 -11.547  0.00  0.00    -0.250 NA
ENDBRANCH   3   6
ENDBRANCH   2   3
ENDBRANCH   1   2
BRANCH   1  14
ATOM     14  C   UNL     1       3.586   5.982  -5.426  0.00  0.00    +0.115 C 
BRANCH  14  15
ATOM     15  C   UNL     1       2.206   5.918  -5.978  0.00  0.00    -0.005 A 
ATOM     16  C   UNL     1       1.428   7.055  -6.076  0.00  0.00    -0.003 A 
ATOM     17  C   UNL     1       0.045   7.026  -5.963  0.00  0.00    -0.000 A 
ATOM     18  C   UNL     1      -0.609   5.823  -5.941  0.00  0.00    +0.000 A 
ATOM     19  C   UNL     1       0.152   4.664  -5.845  0.00  0.00    -0.000 A 
ATOM     20  C   UNL     1       1.525   4.721  -5.824  0.00  0.00    -0.003 A 
BRANCH  18  21
ATOM     21  C   UNL     1      -2.034   5.652  -6.126  0.00  0.00    +0.002 C 
ATOM     22  C   UNL     1      -2.789   5.247  -5.132  0.00  0.00    +0.025 C 
BRANCH  22  23
ATOM     23  C   UNL     1      -2.437   5.669  -3.771  0.00  0.00    +0.110 C 
ATOM     24  N   UNL     1      -2.672   7.011  -3.328  0.00  0.00    -0.198 NA
ATOM     25  O   UNL     1      -1.976   7.420  -2.234  0.00  0.00    -0.402 OA
ATOM     26  O   UNL     1      -2.588   4.779  -2.880  0.00  0.00    -0.536 OA
ENDBRANCH  22  23
ENDBRANCH  18  21
ENDBRANCH  14  15
ENDBRANCH   1  14
TORSDOF 7
ENDMDL
MODEL 8
REMARK VINA RESULT:      -8.4      1.988      3.491
REMARK  Name = 
REMARK  7 active torsions:
REMARK  status: ('A' for Active; 'I' for Inactive)
REMARK    1  A    between atoms: C_10  and  C_11
REMARK    2  A    between atoms: C_11  and  C_12
REMARK    3  A    between atoms: C_12  and  N_13
REMARK    4  A    between atoms: N_13  and  C_14
REMARK    5  A    between atoms: C_14  and  C_15
REMARK    6  A    between atoms: C_18  and  C_19
REMARK    7  A    between atoms: C_20  and  C_21
REMARK                            x       y       z     vdW  Elec       q    Type
REMARK                         _______ _______ _______ _____ _____    ______ ____
ROOT
ATOM      1  N   UNL     1       1.989   4.314  -7.669  0.00  0.00    -0.213 NA
ENDROOT
BRANCH   1   2
ATOM      2  C   UNL     1       2.988   4.434  -8.726  0.00  0.00    +0.094 C 
BRANCH   2   3
ATOM      3  C   UNL     1       2.912   5.869  -9.230  0.00  0.00    +0.046 C 
BRANCH   3   6
ATOM      4  C   UNL     1       5.168   5.284 -11.342  0.00  0.00    +0.052 C 
ATOM      5  C   UNL     1       3.840   5.887 -11.599  0.00  0.00    +0.055 A 
ATOM      6  C   UNL     1       2.782   5.791 -10.718  0.00  0.00    -0.006 A 
ATOM      7  C   UNL     1       1.681   6.253 -11.394  0.00  0.00    +0.015 A 
ATOM      8  C   UNL     1       1.999   6.352 -12.736  0.00  0.00    +0.081 A 
ATOM      9  C   UNL     1       1.204   7.115 -13.582  0.00  0.00    +0.019 A 
ATOM     10  C   UNL     1       0.144   7.826 -13.087  0.00  0.00    +0.002 A 
ATOM     11  C   UNL     1      -0.385   7.443 -11.862  0.00  0.00    +0.000 A 
ATOM     12  C   UNL     1       0.436   6.714 -11.011  0.00  0.00    +0.001 A 
ATOM     13  N   UNL     1       3.278   5.950 -12.825  0.00  0.00    -0.250 NA
ENDBRANCH   3   6
ENDBRANCH   2   3
ENDBRANCH   1   2
BRANCH   1  14
ATOM     14  C   UNL     1       0.942   5.289  -7.941  0.00  0.00    +0.115 C 
BRANCH  14  15
ATOM     15  C   UNL     1       0.125   5.559  -6.727  0.00  0.00    -0.005 A 
ATOM     16  C   UNL     1      -1.243   5.368  -6.736  0.00  0.00    -0.003 A 
ATOM     17  C   UNL     1      -2.109   6.131  -5.966  0.00  0.00    -0.000 A 
ATOM     18  C   UNL     1      -1.605   6.982  -5.019  0.00  0.00    +0.000 A 
ATOM     19  C   UNL     1      -0.231   7.190  -4.989  0.00  0.00    -0.000 A 
ATOM     20  C   UNL     1       0.603   6.521  -5.852  0.00  0.00    -0.003 A 
BRANCH  18  21
ATOM     21  C   UNL     1      -2.380   7.601  -3.965  0.00  0.00    +0.002 C 
ATOM     22  C   UNL     1      -2.876   6.876  -2.991  0.00  0.00    +0.025 C 
BRANCH  22  23
ATOM     23  C   UNL     1      -2.111   5.713  -2.528  0.00  0.00    +0.110 C 
ATOM     24  N   UNL     1      -1.169   5.826  -1.453  0.00  0.00    -0.198 NA
ATOM     25  O   UNL     1      -0.240   4.838  -1.352  0.00  0.00    -0.402 OA
ATOM     26  O   UNL     1      -2.733   4.609  -2.576  0.00  0.00    -0.536 OA
ENDBRANCH  22  23
ENDBRANCH  18  21
ENDBRANCH  14  15
ENDBRANCH   1  14
TORSDOF 7
ENDMDL
MODEL 9
REMARK VINA RESULT:      -8.4      4.124      9.491
REMARK  Name = 
REMARK  7 active torsions:
REMARK  status: ('A' for Active; 'I' for Inactive)
REMARK    1  A    between atoms: C_10  and  C_11
REMARK    2  A    between atoms: C_11  and  C_12
REMARK    3  A    between atoms: C_12  and  N_13
REMARK    4  A    between atoms: N_13  and  C_14
REMARK    5  A    between atoms: C_14  and  C_15
REMARK    6  A    between atoms: C_18  and  C_19
REMARK    7  A    between atoms: C_20  and  C_21
REMARK                            x       y       z     vdW  Elec       q    Type
REMARK                         _______ _______ _______ _____ _____    ______ ____
ROOT
ATOM      1  N   UNL     1       2.468   5.184  -6.776  0.00  0.00    -0.213 NA
ENDROOT
BRANCH   1   2
ATOM      2  C   UNL     1       1.334   4.754  -5.964  0.00  0.00    +0.094 C 
BRANCH   2   3
ATOM      3  C   UNL     1       0.605   6.022  -5.539  0.00  0.00    +0.046 C 
BRANCH   3   6
ATOM      4  C   UNL     1      -2.374   5.794  -6.520  0.00  0.00    +0.052 C 
ATOM      5  C   UNL     1      -1.898   5.838  -5.119  0.00  0.00    +0.055 A 
ATOM      6  C   UNL     1      -0.591   5.582  -4.756  0.00  0.00    -0.006 A 
ATOM      7  C   UNL     1      -0.589   5.483  -3.387  0.00  0.00    +0.015 A 
ATOM      8  C   UNL     1      -1.897   5.389  -2.952  0.00  0.00    +0.081 A 
ATOM      9  C   UNL     1      -2.203   5.633  -1.618  0.00  0.00    +0.019 A 
ATOM     10  C   UNL     1      -1.229   6.030  -0.743  0.00  0.00    +0.002 A 
ATOM     11  C   UNL     1       0.093   5.767  -1.073  0.00  0.00    +0.000 A 
ATOM     12  C   UNL     1       0.389   5.564  -2.415  0.00  0.00    +0.001 A 
ATOM     13  N   UNL     1      -2.644   5.437  -4.067  0.00  0.00    -0.250 NA
ENDBRANCH   3   6
ENDBRANCH   2   3
ENDBRANCH   1   2
BRANCH   1  14
ATOM     14  C   UNL     1       2.496   4.349  -7.969  0.00  0.00    +0.115 C 
BRANCH  14  15
ATOM     15  C   UNL     1       3.557   4.791  -8.914  0.00  0.00    -0.005 A 
ATOM     16  C   UNL     1       4.895   4.648  -8.597  0.00  0.00    -0.003 A 
ATOM     17  C   UNL     1       5.868   5.528  -9.048  0.00  0.00    -0.000 A 
ATOM     18  C   UNL     1       5.548   6.469  -9.990  0.00  0.00    +0.000 A 
ATOM     19  C   UNL     1       4.210   6.632 -10.327  0.00  0.00    -0.000 A 
ATOM     20  C   UNL     1       3.239   5.835  -9.769  0.00  0.00    -0.003 A 
BRANCH  18  21
ATOM     21  C   UNL     1       6.509   7.236 -10.753  0.00  0.00    +0.002 C 
ATOM     22  C   UNL     1       7.299   6.643 -11.616  0.00  0.00    +0.025 C 
BRANCH  22  23
ATOM     23  C   UNL     1       6.782   5.485 -12.353  0.00  0.00    +0.110 C 
ATOM     24  N   UNL     1       5.723   5.628 -13.309  0.00  0.00    -0.198 NA
ATOM     25  O   UNL     1       5.048   4.495 -13.642  0.00  0.00    -0.402 OA
ATOM     26  O   UNL     1       7.648   4.606 -12.646  0.00  0.00    -0.536 OA
ENDBRANCH  22  23
ENDBRANCH  18  21
ENDBRANCH  14  15
ENDBRANCH   1  14
TORSDOF 7
ENDMDL
