MODEL 1
REMARK VINA RESULT:      -7.7      0.000      0.000
REMARK  Name = 
REMARK  8 active torsions:
REMARK  status: ('A' for Active; 'I' for Inactive)
REMARK    1  A    between atoms: O_2  and  C_3
REMARK    2  A    between atoms: C_6  and  C_7
REMARK    3  A    between atoms: C_7  and  C_8
REMARK    4  A    between atoms: C_8  and  N_10
REMARK    5  A    between atoms: N_10  and  C_11
REMARK    6  A    between atoms: C_11  and  C_12
REMARK    7  A    between atoms: C_12  and  C_14
REMARK    8  A    between atoms: C_19  and  N_20
REMARK                            x       y       z     vdW  Elec       q    Type
REMARK                         _______ _______ _______ _____ _____    ______ ____
ROOT
ATOM      1  C   UNL     1       3.129   4.511  -8.587  0.00  0.00    +0.126 C 
ENDROOT
BRANCH   1   2
ATOM      2  C   UNL     1       4.604   4.987  -7.908  0.00  0.00    +0.192 C 
ATOM      3  O   UNL     1       3.953   6.245  -7.262  0.00  0.00    -0.217 OA
BRANCH   2   4
ATOM      4  C   UNL     1       5.063   5.873  -9.220  0.00  0.00    +0.011 A 
ATOM      5  C   UNL     1       6.400   5.713  -9.526  0.00  0.00    +0.018 A 
ATOM      6  C   UNL     1       6.875   6.488 -10.577  0.00  0.00    +0.112 A 
ATOM      7  C   UNL     1       5.991   7.287 -11.293  0.00  0.00    +0.211 A 
ATOM      8  O   UNL     1       6.449   8.418 -11.966  0.00  0.00    -0.285 OA
ATOM      9  C   UNL     1       4.646   6.956 -11.194  0.00  0.00    +0.043 A 
ATOM     10  C   UNL     1       4.201   6.052 -10.228  0.00  0.00    +0.002 A 
BRANCH   6  11
ATOM     11  N   UNL     1       8.197   6.379 -11.073  0.00  0.00    -0.168 NA
ATOM     12  C   UNL     1       8.384   5.645 -12.289  0.00  0.00    +0.325 C 
ATOM     13  O   UNL     1       7.770   4.567 -12.454  0.00  0.00    -0.263 OA
ENDBRANCH   6  11
ENDBRANCH   2   4
ENDBRANCH   1   2
BRANCH   1  14
ATOM     14  N   UNL     1       2.240   5.179  -7.675  0.00  0.00    -0.216 NA
BRANCH  14  15
ATOM     15  C   UNL     1       0.777   5.012  -8.298  0.00  0.00    +0.077 C 
ATOM     16  C   UNL     1       0.042   5.688  -6.955  0.00  0.00    +0.019 C 
BRANCH  15  17
ATOM     17  C   UNL     1       0.889   6.455  -9.111  0.00  0.00    +0.044 C 
BRANCH  17  21
ATOM     18  C   UNL     1       0.791   6.046 -13.146  0.00  0.00    +0.139 A 
ATOM     19  C   UNL     1       0.661   4.935 -12.332  0.00  0.00    +0.037 A 
ATOM     20  C   UNL     1       0.404   5.088 -10.971  0.00  0.00    -0.001 A 
ATOM     21  C   UNL     1       0.246   6.345 -10.389  0.00  0.00    -0.021 A 
ATOM     22  C   UNL     1      -0.114   7.270 -11.327  0.00  0.00    -0.001 A 
ATOM     23  C   UNL     1       0.380   7.262 -12.625  0.00  0.00    +0.037 A 
BRANCH  18  25
ATOM     24  C   UNL     1       2.857   5.208 -14.065  0.00  0.00    +0.252 C 
ATOM     25  O   UNL     1       1.802   6.108 -14.109  0.00  0.00    -0.471 OA
ENDBRANCH  18  25
ENDBRANCH  17  21
ENDBRANCH  15  17
ENDBRANCH  14  15
ENDBRANCH   1  14
TORSDOF 8
ENDMDL
MODEL 2
REMARK VINA RESULT:      -7.5      2.014      5.290
REMARK  Name = 
REMARK  8 active torsions:
REMARK  status: ('A' for Active; 'I' for Inactive)
REMARK    1  A    between atoms: O_2  and  C_3
REMARK    2  A    between atoms: C_6  and  C_7
REMARK    3  A    between atoms: C_7  and  C_8
REMARK    4  A    between atoms: C_8  and  N_10
REMARK    5  A    between atoms: N_10  and  C_11
REMARK    6  A    between atoms: C_11  and  C_12
REMARK    7  A    between atoms: C_12  and  C_14
REMARK    8  A    between atoms: C_19  and  N_20
REMARK                            x       y       z     vdW  Elec       q    Type
REMARK                         _______ _______ _______ _____ _____    ______ ____
ROOT
ATOM      1  C   UNL     1       2.156   4.628  -9.331  0.00  0.00    +0.126 C 
ENDROOT
BRANCH   1   2
ATOM      2  C   UNL     1       1.435   6.105  -8.928  0.00  0.00    +0.192 C 
ATOM      3  O   UNL     1       0.048   5.427  -8.728  0.00  0.00    -0.217 OA
BRANCH   2   4
ATOM      4  C   UNL     1       1.049   6.482 -10.486  0.00  0.00    +0.011 A 
ATOM      5  C   UNL     1       1.531   5.557 -11.390  0.00  0.00    +0.018 A 
ATOM      6  C   UNL     1       1.307   5.851 -12.730  0.00  0.00    +0.112 A 
ATOM      7  C   UNL     1       0.560   6.973 -13.070  0.00  0.00    +0.211 A 
ATOM      8  O   UNL     1       0.733   7.586 -14.310  0.00  0.00    -0.285 OA
ATOM      9  C   UNL     1      -0.256   7.492 -12.073  0.00  0.00    +0.043 A 
ATOM     10  C   UNL     1      -0.123   7.071 -10.749  0.00  0.00    +0.002 A 
BRANCH   6  11
ATOM     11  N   UNL     1       1.660   4.965 -13.778  0.00  0.00    -0.168 NA
ATOM     12  C   UNL     1       3.044   4.900 -14.144  0.00  0.00    +0.325 C 
ATOM     13  O   UNL     1       3.704   5.959 -14.232  0.00  0.00    -0.263 OA
ENDBRANCH   6  11
ENDBRANCH   2   4
ENDBRANCH   1   2
BRANCH   1  14
ATOM     14  N   UNL     1       2.991   4.466  -8.170  0.00  0.00    -0.216 NA
BRANCH  14  15
ATOM     15  C   UNL     1       3.854   5.808  -8.069  0.00  0.00    +0.077 C 
ATOM     16  C   UNL     1       3.968   5.702  -6.403  0.00  0.00    +0.019 C 
BRANCH  15  17
ATOM     17  C   UNL     1       5.273   4.992  -8.338  0.00  0.00    +0.044 C 
BRANCH  17  21
ATOM     18  C   UNL     1       7.158   5.747 -11.851  0.00  0.00    +0.139 A 
ATOM     19  C   UNL     1       5.924   6.315 -11.588  0.00  0.00    +0.037 A 
ATOM     20  C   UNL     1       5.406   6.302 -10.294  0.00  0.00    -0.001 A 
ATOM     21  C   UNL     1       6.110   5.748  -9.226  0.00  0.00    -0.021 A 
ATOM     22  C   UNL     1       7.448   5.708  -9.497  0.00  0.00    -0.001 A 
ATOM     23  C   UNL     1       7.955   5.437 -10.762  0.00  0.00    +0.037 A 
BRANCH  18  25
ATOM     24  C   UNL     1       7.113   5.489 -14.248  0.00  0.00    +0.252 C 
ATOM     25  O   UNL     1       7.349   4.958 -12.989  0.00  0.00    -0.471 OA
ENDBRANCH  18  25
ENDBRANCH  17  21
ENDBRANCH  15  17
ENDBRANCH  14  15
ENDBRANCH   1  14
TORSDOF 8
ENDMDL
MODEL 3
REMARK VINA RESULT:      -7.5      2.450      5.285
REMARK  Name = 
REMARK  8 active torsions:
REMARK  status: ('A' for Active; 'I' for Inactive)
REMARK    1  A    between atoms: O_2  and  C_3
REMARK    2  A    between atoms: C_6  and  C_7
REMARK    3  A    between atoms: C_7  and  C_8
REMARK    4  A    between atoms: C_8  and  N_10
REMARK    5  A    between atoms: N_10  and  C_11
REMARK    6  A    between atoms: C_11  and  C_12
REMARK    7  A    between atoms: C_12  and  C_14
REMARK    8  A    between atoms: C_19  and  N_20
REMARK                            x       y       z     vdW  Elec       q    Type
REMARK                         _______ _______ _______ _____ _____    ______ ____
ROOT
ATOM      1  C   UNL     1       2.409   4.733  -9.089  0.00  0.00    +0.126 C 
ENDROOT
BRANCH   1   2
ATOM      2  C   UNL     1       3.976   4.516  -8.488  0.00  0.00    +0.192 C 
ATOM      3  O   UNL     1       3.776   5.640  -7.429  0.00  0.00    -0.217 OA
BRANCH   2   4
ATOM      4  C   UNL     1       4.658   5.593  -9.533  0.00  0.00    +0.011 A 
ATOM      5  C   UNL     1       6.016   5.398  -9.684  0.00  0.00    +0.018 A 
ATOM      6  C   UNL     1       6.672   6.318 -10.494  0.00  0.00    +0.112 A 
ATOM      7  C   UNL     1       5.936   7.296 -11.153  0.00  0.00    +0.211 A 
ATOM      8  O   UNL     1       6.536   8.496 -11.530  0.00  0.00    -0.285 OA
ATOM      9  C   UNL     1       4.578   7.048 -11.299  0.00  0.00    +0.043 A 
ATOM     10  C   UNL     1       3.959   6.015 -10.593  0.00  0.00    +0.002 A 
BRANCH   6  11
ATOM     11  N   UNL     1       8.046   6.209 -10.821  0.00  0.00    -0.168 NA
ATOM     12  C   UNL     1       8.375   5.614 -12.082  0.00  0.00    +0.325 C 
ATOM     13  O   UNL     1       7.759   4.591 -12.456  0.00  0.00    -0.263 OA
ENDBRANCH   6  11
ENDBRANCH   2   4
ENDBRANCH   1   2
BRANCH   1  14
ATOM     14  N   UNL     1       1.713   4.884  -7.838  0.00  0.00    -0.216 NA
BRANCH  14  15
ATOM     15  C   UNL     1       0.596   5.998  -8.098  0.00  0.00    +0.077 C 
ATOM     16  C   UNL     1       0.266   5.422  -9.633  0.00  0.00    +0.019 C 
BRANCH  15  17
ATOM     17  C   UNL     1      -0.580   5.081  -7.371  0.00  0.00    +0.044 C 
BRANCH  17  21
ATOM     18  C   UNL     1      -1.654   5.902  -3.545  0.00  0.00    +0.139 A 
ATOM     19  C   UNL     1      -0.533   6.498  -4.096  0.00  0.00    +0.037 A 
ATOM     20  C   UNL     1      -0.319   6.455  -5.472  0.00  0.00    -0.001 A 
ATOM     21  C   UNL     1      -1.224   5.842  -6.338  0.00  0.00    -0.021 A 
ATOM     22  C   UNL     1      -2.464   5.771  -5.770  0.00  0.00    -0.001 A 
ATOM     23  C   UNL     1      -2.663   5.529  -4.417  0.00  0.00    +0.037 A 
BRANCH  18  25
ATOM     24  C   UNL     1      -1.891   5.716  -1.152  0.00  0.00    +0.252 C 
ATOM     25  O   UNL     1      -1.554   5.148  -2.372  0.00  0.00    -0.471 OA
ENDBRANCH  18  25
ENDBRANCH  17  21
ENDBRANCH  15  17
ENDBRANCH  14  15
ENDBRANCH   1  14
TORSDOF 8
ENDMDL
MODEL 4
REMARK VINA RESULT:      -7.4      4.665      9.405
REMARK  Name = 
REMARK  8 active torsions:
REMARK  status: ('A' for Active; 'I' for Inactive)
REMARK    1  A    between atoms: O_2  and  C_3
REMARK    2  A    between atoms: C_6  and  C_7
REMARK    3  A    between atoms: C_7  and  C_8
REMARK    4  A    between atoms: C_8  and  N_10
REMARK    5  A    between atoms: N_10  and  C_11
REMARK    6  A    between atoms: C_11  and  C_12
REMARK    7  A    between atoms: C_12  and  C_14
REMARK    8  A    between atoms: C_19  and  N_20
REMARK                            x       y       z     vdW  Elec       q    Type
REMARK                         _______ _______ _______ _____ _____    ______ ____
ROOT
ATOM      1  C   UNL     1       1.393   6.620  -6.933  0.00  0.00    +0.126 C 
ENDROOT
BRANCH   1   2
ATOM      2  C   UNL     1       0.764   5.076  -7.220  0.00  0.00    +0.192 C 
ATOM      3  O   UNL     1      -0.155   5.610  -8.357  0.00  0.00    -0.217 OA
BRANCH   2   4
ATOM      4  C   UNL     1      -0.459   5.237  -6.127  0.00  0.00    +0.011 A 
ATOM      5  C   UNL     1      -0.030   5.763  -4.925  0.00  0.00    +0.018 A 
ATOM      6  C   UNL     1      -0.995   5.858  -3.930  0.00  0.00    +0.112 A 
ATOM      7  C   UNL     1      -2.311   5.511  -4.216  0.00  0.00    +0.211 A 
ATOM      8  O   UNL     1      -3.169   5.098  -3.198  0.00  0.00    -0.285 OA
ATOM      9  C   UNL     1      -2.662   5.493  -5.559  0.00  0.00    +0.043 A 
ATOM     10  C   UNL     1      -1.686   5.556  -6.555  0.00  0.00    +0.002 A 
BRANCH   6  11
ATOM     11  N   UNL     1      -0.741   6.455  -2.670  0.00  0.00    -0.168 NA
ATOM     12  C   UNL     1       0.103   5.737  -1.762  0.00  0.00    +0.325 C 
ATOM     13  O   UNL     1      -0.048   4.502  -1.632  0.00  0.00    -0.263 OA
ENDBRANCH   6  11
ENDBRANCH   2   4
ENDBRANCH   1   2
BRANCH   1  14
ATOM     14  N   UNL     1       2.672   6.460  -7.575  0.00  0.00    -0.216 NA
BRANCH  14  15
ATOM     15  C   UNL     1       3.560   5.601  -6.561  0.00  0.00    +0.077 C 
ATOM     16  C   UNL     1       4.832   5.495  -7.642  0.00  0.00    +0.019 C 
BRANCH  15  17
ATOM     17  C   UNL     1       4.147   6.965  -5.820  0.00  0.00    +0.044 C 
BRANCH  17  21
ATOM     18  C   UNL     1       4.201   6.196  -1.836  0.00  0.00    +0.139 A 
ATOM     19  C   UNL     1       4.088   5.157  -2.744  0.00  0.00    +0.037 A 
ATOM     20  C   UNL     1       4.357   5.372  -4.094  0.00  0.00    -0.001 A 
ATOM     21  C   UNL     1       4.767   6.615  -4.573  0.00  0.00    -0.021 A 
ATOM     22  C   UNL     1       5.321   7.360  -3.572  0.00  0.00    -0.001 A 
ATOM     23  C   UNL     1       4.850   7.342  -2.266  0.00  0.00    +0.037 A 
BRANCH  18  25
ATOM     24  C   UNL     1       3.119   7.610  -0.209  0.00  0.00    +0.252 C 
ATOM     25  O   UNL     1       3.235   6.381  -0.843  0.00  0.00    -0.471 OA
ENDBRANCH  18  25
ENDBRANCH  17  21
ENDBRANCH  15  17
ENDBRANCH  14  15
ENDBRANCH   1  14
TORSDOF 8
ENDMDL
MODEL 5
REMARK VINA RESULT:      -7.4      4.336      7.885
REMARK  Name = 
REMARK  8 active torsions:
REMARK  status: ('A' for Active; 'I' for Inactive)
REMARK    1  A    between atoms: O_2  and  C_3
REMARK    2  A    between atoms: C_6  and  C_7
REMARK    3  A    between atoms: C_7  and  C_8
REMARK    4  A    between atoms: C_8  and  N_10
REMARK    5  A    between atoms: N_10  and  C_11
REMARK    6  A    between atoms: C_11  and  C_12
REMARK    7  A    between atoms: C_12  and  C_14
REMARK    8  A    between atoms: C_19  and  N_20
REMARK                            x       y       z     vdW  Elec       q    Type
REMARK                         _______ _______ _______ _____ _____    ______ ____
ROOT
ATOM      1  C   UNL     1       2.438   4.976  -6.301  0.00  0.00    +0.126 C 
ENDROOT
BRANCH   1   2
ATOM      2  C   UNL     1       3.333   6.299  -6.859  0.00  0.00    +0.192 C 
ATOM      3  O   UNL     1       4.660   5.488  -6.797  0.00  0.00    -0.217 OA
BRANCH   2   4
ATOM      4  C   UNL     1       3.608   6.906  -5.351  0.00  0.00    +0.011 A 
ATOM      5  C   UNL     1       2.747   6.386  -4.405  0.00  0.00    +0.018 A 
ATOM      6  C   UNL     1       2.873   6.908  -3.123  0.00  0.00    +0.112 A 
ATOM      7  C   UNL     1       3.881   7.828  -2.855  0.00  0.00    +0.211 A 
ATOM      8  O   UNL     1       3.746   8.734  -1.805  0.00  0.00    -0.285 OA
ATOM      9  C   UNL     1       4.942   7.855  -3.750  0.00  0.00    +0.043 A 
ATOM     10  C   UNL     1       4.860   7.192  -4.976  0.00  0.00    +0.002 A 
BRANCH   6  11
ATOM     11  N   UNL     1       2.127   6.423  -2.021  0.00  0.00    -0.168 NA
ATOM     12  C   UNL     1       2.790   5.522  -1.126  0.00  0.00    +0.325 C 
ATOM     13  O   UNL     1       3.511   4.613  -1.595  0.00  0.00    -0.263 OA
ENDBRANCH   6  11
ENDBRANCH   2   4
ENDBRANCH   1   2
BRANCH   1  14
ATOM     14  N   UNL     1       1.631   4.747  -7.470  0.00  0.00    -0.216 NA
BRANCH  14  15
ATOM     15  C   UNL     1       0.602   5.968  -7.531  0.00  0.00    +0.077 C 
ATOM     16  C   UNL     1       0.319   5.752  -9.166  0.00  0.00    +0.019 C 
BRANCH  15  17
ATOM     17  C   UNL     1      -0.667   5.005  -7.063  0.00  0.00    +0.044 C 
BRANCH  17  21
ATOM     18  C   UNL     1      -2.173   5.788  -3.378  0.00  0.00    +0.139 A 
ATOM     19  C   UNL     1      -1.089   6.505  -3.853  0.00  0.00    +0.037 A 
ATOM     20  C   UNL     1      -0.749   6.453  -5.203  0.00  0.00    -0.001 A 
ATOM     21  C   UNL     1      -1.489   5.707  -6.119  0.00  0.00    -0.021 A 
ATOM     22  C   UNL     1      -2.757   5.496  -5.657  0.00  0.00    -0.001 A 
ATOM     23  C   UNL     1      -3.046   5.268  -4.318  0.00  0.00    +0.037 A 
BRANCH  18  25
ATOM     24  C   UNL     1      -1.517   5.684  -1.059  0.00  0.00    +0.252 C 
ATOM     25  O   UNL     1      -2.087   5.085  -2.173  0.00  0.00    -0.471 OA
ENDBRANCH  18  25
ENDBRANCH  17  21
ENDBRANCH  15  17
ENDBRANCH  14  15
ENDBRANCH   1  14
TORSDOF 8
ENDMDL
MODEL 6
REMARK VINA RESULT:      -7.3      2.116      4.636
REMARK  Name = 
REMARK  8 active torsions:
REMARK  status: ('A' for Active; 'I' for Inactive)
REMARK    1  A    between atoms: O_2  and  C_3
REMARK    2  A    between atoms: C_6  and  C_7
REMARK    3  A    between atoms: C_7  and  C_8
REMARK    4  A    between atoms: C_8  and  N_10
REMARK    5  A    between atoms: N_10  and  C_11
REMARK    6  A    between atoms: C_11  and  C_12
REMARK    7  A    between atoms: C_12  and  C_14
REMARK    8  A    between atoms: C_19  and  N_20
REMARK                            x       y       z     vdW  Elec       q    Type
REMARK                         _______ _______ _______ _____ _____    ______ ____
ROOT
ATOM      1  C   UNL     1       3.118   6.178 -10.391  0.00  0.00    +0.126 C 
ENDROOT
BRANCH   1   2
ATOM      2  C   UNL     1       3.847   4.987  -9.436  0.00  0.00    +0.192 C 
ATOM      3  O   UNL     1       4.015   5.977  -8.246  0.00  0.00    -0.217 OA
BRANCH   2   4
ATOM      4  C   UNL     1       5.373   5.327  -9.960  0.00  0.00    +0.011 A 
ATOM      5  C   UNL     1       5.384   5.936 -11.199  0.00  0.00    +0.018 A 
ATOM      6  C   UNL     1       6.641   6.184 -11.737  0.00  0.00    +0.112 A 
ATOM      7  C   UNL     1       7.776   5.895 -10.988  0.00  0.00    +0.211 A 
ATOM      8  O   UNL     1       8.990   5.635 -11.620  0.00  0.00    -0.285 OA
ATOM      9  C   UNL     1       7.592   5.773  -9.617  0.00  0.00    +0.043 A 
ATOM     10  C   UNL     1       6.310   5.681  -9.073  0.00  0.00    +0.002 A 
BRANCH   6  11
ATOM     11  N   UNL     1       6.828   6.880 -12.957  0.00  0.00    -0.168 NA
ATOM     12  C   UNL     1       6.672   6.132 -14.170  0.00  0.00    +0.325 C 
ATOM     13  O   UNL     1       7.161   4.983 -14.248  0.00  0.00    -0.263 OA
ENDBRANCH   6  11
ENDBRANCH   2   4
ENDBRANCH   1   2
BRANCH   1  14
ATOM     14  N   UNL     1       1.791   5.624 -10.460  0.00  0.00    -0.216 NA
BRANCH  14  15
ATOM     15  C   UNL     1       0.842   6.683  -9.730  0.00  0.00    +0.077 C 
ATOM     16  C   UNL     1      -0.062   6.945 -11.113  0.00  0.00    +0.019 C 
BRANCH  15  17
ATOM     17  C   UNL     1      -0.159   5.489  -9.158  0.00  0.00    +0.044 C 
BRANCH  17  21
ATOM     18  C   UNL     1      -0.573   6.790  -5.338  0.00  0.00    +0.139 A 
ATOM     19  C   UNL     1      -1.531   5.964  -5.899  0.00  0.00    +0.037 A 
ATOM     20  C   UNL     1      -1.264   5.284  -7.085  0.00  0.00    -0.001 A 
ATOM     21  C   UNL     1      -0.034   5.389  -7.732  0.00  0.00    -0.021 A 
ATOM     22  C   UNL     1       0.940   5.779  -6.858  0.00  0.00    -0.001 A 
ATOM     23  C   UNL     1       0.716   6.689  -5.833  0.00  0.00    +0.037 A 
BRANCH  18  25
ATOM     24  C   UNL     1      -2.225   8.263  -4.379  0.00  0.00    +0.252 C 
ATOM     25  O   UNL     1      -0.928   8.038  -4.817  0.00  0.00    -0.471 OA
ENDBRANCH  18  25
ENDBRANCH  17  21
ENDBRANCH  15  17
ENDBRANCH  14  15
ENDBRANCH   1  14
TORSDOF 8
ENDMDL
MODEL 7
REMARK VINA RESULT:      -7.2      3.208      6.724
REMARK  Name = 
REMARK  8 active torsions:
REMARK  status: ('A' for Active; 'I' for Inactive)
REMARK    1  A    between atoms: O_2  and  C_3
REMARK    2  A    between atoms: C_6  and  C_7
REMARK    3  A    between atoms: C_7  and  C_8
REMARK    4  A    between atoms: C_8  and  N_10
REMARK    5  A    between atoms: N_10  and  C_11
REMARK    6  A    between atoms: C_11  and  C_12
REMARK    7  A    between atoms: C_12  and  C_14
REMARK    8  A    between atoms: C_19  and  N_20
REMARK                            x       y       z     vdW  Elec       q    Type
REMARK                         _______ _______ _______ _____ _____    ______ ____
ROOT
ATOM      1  C   UNL     1       1.460   5.995  -7.396  0.00  0.00    +0.126 C 
ENDROOT
BRANCH   1   2
ATOM      2  C   UNL     1       2.673   4.923  -6.905  0.00  0.00    +0.192 C 
ATOM      3  O   UNL     1       1.682   4.146  -5.990  0.00  0.00    -0.217 OA
BRANCH   2   4
ATOM      4  C   UNL     1       3.151   5.854  -5.631  0.00  0.00    +0.011 A 
ATOM      5  C   UNL     1       2.507   5.518  -4.457  0.00  0.00    +0.018 A 
ATOM      6  C   UNL     1       2.806   6.311  -3.356  0.00  0.00    +0.112 A 
ATOM      7  C   UNL     1       3.767   7.308  -3.472  0.00  0.00    +0.211 A 
ATOM      8  O   UNL     1       3.741   8.415  -2.625  0.00  0.00    -0.285 OA
ATOM      9  C   UNL     1       4.656   7.184  -4.532  0.00  0.00    +0.043 A 
ATOM     10  C   UNL     1       4.421   6.268  -5.558  0.00  0.00    +0.002 A 
BRANCH   6  11
ATOM     11  N   UNL     1       2.298   6.046  -2.060  0.00  0.00    -0.168 NA
ATOM     12  C   UNL     1       3.180   5.409  -1.128  0.00  0.00    +0.325 C 
ATOM     13  O   UNL     1       3.897   4.459  -1.514  0.00  0.00    -0.263 OA
ENDBRANCH   6  11
ENDBRANCH   2   4
ENDBRANCH   1   2
BRANCH   1  14
ATOM     14  N   UNL     1       2.021   6.399  -8.658  0.00  0.00    -0.216 NA
BRANCH  14  15
ATOM     15  C   UNL     1       2.574   5.060  -9.334  0.00  0.00    +0.077 C 
ATOM     16  C   UNL     1       1.201   4.872 -10.271  0.00  0.00    +0.019 C 
BRANCH  15  17
ATOM     17  C   UNL     1       3.397   5.911 -10.498  0.00  0.00    +0.044 C 
BRANCH  17  21
ATOM     18  C   UNL     1       7.431   6.338 -10.464  0.00  0.00    +0.139 A 
ATOM     19  C   UNL     1       6.632   7.324 -11.016  0.00  0.00    +0.037 A 
ATOM     20  C   UNL     1       5.259   7.330 -10.780  0.00  0.00    -0.001 A 
ATOM     21  C   UNL     1       4.649   6.374  -9.970  0.00  0.00    -0.021 A 
ATOM     22  C   UNL     1       5.554   5.818  -9.111  0.00  0.00    -0.001 A 
ATOM     23  C   UNL     1       6.871   5.558  -9.466  0.00  0.00    +0.037 A 
BRANCH  18  25
ATOM     24  C   UNL     1       8.503   5.953 -12.589  0.00  0.00    +0.252 C 
ATOM     25  O   UNL     1       8.434   5.728 -11.222  0.00  0.00    -0.471 OA
ENDBRANCH  18  25
ENDBRANCH  17  21
ENDBRANCH  15  17
ENDBRANCH  14  15
ENDBRANCH   1  14
TORSDOF 8
ENDMDL
MODEL 8
REMARK VINA RESULT:      -7.1      2.904      5.460
REMARK  Name = 
REMARK  8 active torsions:
REMARK  status: ('A' for Active; 'I' for Inactive)
REMARK    1  A    between atoms: O_2  and  C_3
REMARK    2  A    between atoms: C_6  and  C_7
REMARK    3  A    between atoms: C_7  and  C_8
REMARK    4  A    between atoms: C_8  and  N_10
REMARK    5  A    between atoms: N_10  and  C_11
REMARK    6  A    between atoms: C_11  and  C_12
REMARK    7  A    between atoms: C_12  and  C_14
REMARK    8  A    between atoms: C_19  and  N_20
REMARK                            x       y       z     vdW  Elec       q    Type
REMARK                         _______ _______ _______ _____ _____    ______ ____
ROOT
ATOM      1  C   UNL     1       4.076   5.490  -7.382  0.00  0.00    +0.126 C 
ENDROOT
BRANCH   1   2
ATOM      2  C   UNL     1       3.562   5.396  -8.991  0.00  0.00    +0.192 C 
ATOM      3  O   UNL     1       3.691   3.845  -8.990  0.00  0.00    -0.217 OA
BRANCH   2   4
ATOM      4  C   UNL     1       5.081   5.543  -9.614  0.00  0.00    +0.011 A 
ATOM      5  C   UNL     1       5.096   6.213 -10.821  0.00  0.00    +0.018 A 
ATOM      6  C   UNL     1       6.336   6.309 -11.442  0.00  0.00    +0.112 A 
ATOM      7  C   UNL     1       7.465   5.819 -10.796  0.00  0.00    +0.211 A 
ATOM      8  O   UNL     1       8.582   5.423 -11.530  0.00  0.00    -0.285 OA
ATOM      9  C   UNL     1       7.360   5.646  -9.422  0.00  0.00    +0.043 A 
ATOM     10  C   UNL     1       6.119   5.708  -8.786  0.00  0.00    +0.002 A 
BRANCH   6  11
ATOM     11  N   UNL     1       6.539   7.039 -12.639  0.00  0.00    -0.168 NA
ATOM     12  C   UNL     1       6.132   6.418 -13.864  0.00  0.00    +0.325 C 
ATOM     13  O   UNL     1       6.383   5.206 -14.048  0.00  0.00    -0.263 OA
ENDBRANCH   6  11
ENDBRANCH   2   4
ENDBRANCH   1   2
BRANCH   1  14
ATOM     14  N   UNL     1       3.096   6.424  -6.892  0.00  0.00    -0.216 NA
BRANCH  14  15
ATOM     15  C   UNL     1       1.739   5.591  -6.751  0.00  0.00    +0.077 C 
ATOM     16  C   UNL     1       2.389   4.576  -5.591  0.00  0.00    +0.019 C 
BRANCH  15  17
ATOM     17  C   UNL     1       1.122   6.660  -5.642  0.00  0.00    +0.044 C 
BRANCH  17  21
ATOM     18  C   UNL     1      -2.707   6.174  -4.392  0.00  0.00    +0.139 A 
ATOM     19  C   UNL     1      -2.075   7.395  -4.239  0.00  0.00    +0.037 A 
ATOM     20  C   UNL     1      -0.885   7.660  -4.913  0.00  0.00    -0.001 A 
ATOM     21  C   UNL     1      -0.305   6.730  -5.774  0.00  0.00    -0.021 A 
ATOM     22  C   UNL     1      -1.239   5.841  -6.225  0.00  0.00    -0.001 A 
ATOM     23  C   UNL     1      -2.276   5.366  -5.431  0.00  0.00    +0.037 A 
BRANCH  18  25
ATOM     24  C   UNL     1      -2.601   5.571  -2.059  0.00  0.00    +0.252 C 
ATOM     25  O   UNL     1      -3.244   5.506  -3.287  0.00  0.00    -0.471 OA
ENDBRANCH  18  25
ENDBRANCH  17  21
ENDBRANCH  15  17
ENDBRANCH  14  15
ENDBRANCH   1  14
TORSDOF 8
ENDMDL
MODEL 9
REMARK VINA RESULT:      -7.0      3.359      6.846
REMARK  Name = 
REMARK  8 active torsions:
REMARK  status: ('A' for Active; 'I' for Inactive)
REMARK    1  A    between atoms: O_2  and  C_3
REMARK    2  A    between atoms: C_6  and  C_7
REMARK    3  A    between atoms: C_7  and  C_8
REMARK    4  A    between atoms: C_8  and  N_10
REMARK    5  A    between atoms: N_10  and  C_11
REMARK    6  A    between atoms: C_11  and  C_12
REMARK    7  A    between atoms: C_12  and  C_14
REMARK    8  A    between atoms: C_19  and  N_20
REMARK                            x       y       z     vdW  Elec       q    Type
REMARK                         _______ _______ _______ _____ _____    ______ ____
ROOT
ATOM      1  C   UNL     1       3.124   5.288  -7.975  0.00  0.00    +0.126 C 
ENDROOT
BRANCH   1   2
ATOM      2  C   UNL     1       2.732   4.271  -6.681  0.00  0.00    +0.192 C 
ATOM      3  O   UNL     1       1.290   4.852  -6.600  0.00  0.00    -0.217 OA
BRANCH   2   4
ATOM      4  C   UNL     1       3.246   5.333  -5.530  0.00  0.00    +0.011 A 
ATOM      5  C   UNL     1       3.604   4.707  -4.353  0.00  0.00    +0.018 A 
ATOM      6  C   UNL     1       3.978   5.548  -3.312  0.00  0.00    +0.112 A 
ATOM      7  C   UNL     1       4.052   6.918  -3.531  0.00  0.00    +0.211 A 
ATOM      8  O   UNL     1       3.910   7.811  -2.471  0.00  0.00    -0.285 OA
ATOM      9  C   UNL     1       4.156   7.323  -4.855  0.00  0.00    +0.043 A 
ATOM     10  C   UNL     1       3.929   6.423  -5.898  0.00  0.00    +0.002 A 
BRANCH   6  11
ATOM     11  N   UNL     1       4.456   5.063  -2.069  0.00  0.00    -0.168 NA
ATOM     12  C   UNL     1       3.489   4.524  -1.159  0.00  0.00    +0.325 C 
ATOM     13  O   UNL     1       2.399   5.118  -1.002  0.00  0.00    -0.263 OA
ENDBRANCH   6  11
ENDBRANCH   2   4
ENDBRANCH   1   2
BRANCH   1  14
ATOM     14  N   UNL     1       3.912   4.366  -8.750  0.00  0.00    -0.216 NA
BRANCH  14  15
ATOM     15  C   UNL     1       4.431   5.197 -10.013  0.00  0.00    +0.077 C 
ATOM     16  C   UNL     1       3.433   6.495  -9.668  0.00  0.00    +0.019 C 
BRANCH  15  17
ATOM     17  C   UNL     1       5.719   5.808  -9.163  0.00  0.00    +0.044 C 
BRANCH  17  21
ATOM     18  C   UNL     1       7.479   6.131 -12.804  0.00  0.00    +0.139 A 
ATOM     19  C   UNL     1       6.835   7.220 -12.244  0.00  0.00    +0.037 A 
ATOM     20  C   UNL     1       6.485   7.212 -10.896  0.00  0.00    -0.001 A 
ATOM     21  C   UNL     1       6.787   6.135 -10.064  0.00  0.00    -0.021 A 
ATOM     22  C   UNL     1       7.826   5.409 -10.572  0.00  0.00    -0.001 A 
ATOM     23  C   UNL     1       8.002   5.190 -11.933  0.00  0.00    +0.037 A 
BRANCH  18  25
ATOM     24  C   UNL     1       6.883   6.538 -15.105  0.00  0.00    +0.252 C 
ATOM     25  O   UNL     1       7.102   5.651 -14.062  0.00  0.00    -0.471 OA
ENDBRANCH  18  25
ENDBRANCH  17  21
ENDBRANCH  15  17
ENDBRANCH  14  15
ENDBRANCH   1  14
TORSDOF 8
ENDMDL
