MODEL 1
REMARK VINA RESULT:      -4.3      0.000      0.000
REMARK  Name = 
REMARK  3 active torsions:
REMARK  status: ('A' for Active; 'I' for Inactive)
REMARK    1  A    between atoms: CA_2  and  CB_3
REMARK    2  A    between atoms: CA_2  and  C_7
REMARK    3  A    between atoms: CB_3  and  CG_4
REMARK                            x       y       z     vdW  Elec       q    Type
REMARK                         _______ _______ _______ _____ _____    ______ ____
ROOT
ATOM      1  N   ASP A   1       7.773   5.247  -9.480  0.00  0.00    -0.120 NA
ATOM      2  CA  ASP A   1       6.928   5.671 -10.744  0.00  0.00    +0.206 C 
ENDROOT
BRANCH   2   3
ATOM      3  C   ASP A   1       8.034   5.154 -11.796  0.00  0.00    +0.382 C 
ATOM      4  OXT ASP A   1       9.160   5.891 -11.999  0.00  0.00    -0.244 OA
ATOM      5  O   ASP A   1       7.547   4.688 -12.874  0.00  0.00    -0.244 OA
ENDBRANCH   2   3
BRANCH   2   6
ATOM      6  CB  ASP A   1       7.559   7.194 -10.715  0.00  0.00    +0.145 C 
BRANCH   6   7
ATOM      7  CG  ASP A   1       6.384   7.910 -11.315  0.00  0.00    +0.367 C 
ATOM      8  OD2 ASP A   1       5.120   7.675 -10.779  0.00  0.00    -0.246 OA
ATOM      9  OD1 ASP A   1       6.430   8.162 -12.535  0.00  0.00    -0.246 OA
ENDBRANCH   6   7
ENDBRANCH   2   6
TORSDOF 3
ENDMDL
MODEL 2
REMARK VINA RESULT:      -4.1      2.113      3.350
REMARK  Name = 
REMARK  3 active torsions:
REMARK  status: ('A' for Active; 'I' for Inactive)
REMARK    1  A    between atoms: CA_2  and  CB_3
REMARK    2  A    between atoms: CA_2  and  C_7
REMARK    3  A    between atoms: CB_3  and  CG_4
REMARK                            x       y       z     vdW  Elec       q    Type
REMARK                         _______ _______ _______ _____ _____    ______ ____
ROOT
ATOM      1  N   ASP A   1       6.245   8.194 -11.281  0.00  0.00    -0.120 NA
ATOM      2  CA  ASP A   1       6.329   6.711 -11.817  0.00  0.00    +0.206 C 
ENDROOT
BRANCH   2   3
ATOM      3  C   ASP A   1       5.530   6.093 -10.561  0.00  0.00    +0.382 C 
ATOM      4  OXT ASP A   1       6.214   5.763  -9.431  0.00  0.00    -0.244 OA
ATOM      5  O   ASP A   1       4.653   5.231 -10.878  0.00  0.00    -0.244 OA
ENDBRANCH   2   3
BRANCH   2   6
ATOM      6  CB  ASP A   1       7.793   6.482 -11.095  0.00  0.00    +0.145 C 
BRANCH   6   7
ATOM      7  CG  ASP A   1       8.470   5.775 -12.231  0.00  0.00    +0.367 C 
ATOM      8  OD2 ASP A   1       7.893   4.606 -12.723  0.00  0.00    -0.246 OA
ATOM      9  OD1 ASP A   1       9.714   5.845 -12.290  0.00  0.00    -0.246 OA
ENDBRANCH   6   7
ENDBRANCH   2   6
TORSDOF 3
ENDMDL
MODEL 3
REMARK VINA RESULT:      -4.0     10.393     11.522
REMARK  Name = 
REMARK  3 active torsions:
REMARK  status: ('A' for Active; 'I' for Inactive)
REMARK    1  A    between atoms: CA_2  and  CB_3
REMARK    2  A    between atoms: CA_2  and  C_7
REMARK    3  A    between atoms: CB_3  and  CG_4
REMARK                            x       y       z     vdW  Elec       q    Type
REMARK                         _______ _______ _______ _____ _____    ______ ____
ROOT
ATOM      1  N   ASP A   1      -0.911   7.316  -4.572  0.00  0.00    -0.120 NA
ATOM      2  CA  ASP A   1      -0.979   5.761  -4.309  0.00  0.00    +0.206 C 
ENDROOT
BRANCH   2   3
ATOM      3  C   ASP A   1      -0.515   5.374  -5.803  0.00  0.00    +0.382 C 
ATOM      4  OXT ASP A   1      -1.456   5.078  -6.740  0.00  0.00    -0.244 OA
ATOM      5  O   ASP A   1       0.491   4.600  -5.850  0.00  0.00    -0.244 OA
ENDBRANCH   2   3
BRANCH   2   6
ATOM      6  CB  ASP A   1      -2.577   5.714  -4.713  0.00  0.00    +0.145 C 
BRANCH   6   7
ATOM      7  CG  ASP A   1      -3.125   5.459  -3.340  0.00  0.00    +0.367 C 
ATOM      8  OD2 ASP A   1      -3.849   6.473  -2.716  0.00  0.00    -0.246 OA
ATOM      9  OD1 ASP A   1      -2.469   4.707  -2.592  0.00  0.00    -0.246 OA
ENDBRANCH   6   7
ENDBRANCH   2   6
TORSDOF 3
ENDMDL
MODEL 4
REMARK VINA RESULT:      -3.9      2.340      3.083
REMARK  Name = 
REMARK  3 active torsions:
REMARK  status: ('A' for Active; 'I' for Inactive)
REMARK    1  A    between atoms: CA_2  and  CB_3
REMARK    2  A    between atoms: CA_2  and  C_7
REMARK    3  A    between atoms: CB_3  and  CG_4
REMARK                            x       y       z     vdW  Elec       q    Type
REMARK                         _______ _______ _______ _____ _____    ______ ____
ROOT
ATOM      1  N   ASP A   1       6.554   7.538 -11.798  0.00  0.00    -0.120 NA
ATOM      2  CA  ASP A   1       6.688   6.104 -11.151  0.00  0.00    +0.206 C 
ENDROOT
BRANCH   2   3
ATOM      3  C   ASP A   1       6.837   5.354 -12.570  0.00  0.00    +0.382 C 
ATOM      4  OXT ASP A   1       5.727   4.868 -13.188  0.00  0.00    -0.244 OA
ATOM      5  O   ASP A   1       7.828   4.562 -12.636  0.00  0.00    -0.244 OA
ENDBRANCH   2   3
BRANCH   2   6
ATOM      6  CB  ASP A   1       5.052   5.907 -11.133  0.00  0.00    +0.145 C 
BRANCH   6   7
ATOM      7  CG  ASP A   1       4.925   5.403  -9.725  0.00  0.00    +0.367 C 
ATOM      8  OD2 ASP A   1       6.058   5.411  -8.914  0.00  0.00    -0.246 OA
ATOM      9  OD1 ASP A   1       4.100   4.492  -9.515  0.00  0.00    -0.246 OA
ENDBRANCH   6   7
ENDBRANCH   2   6
TORSDOF 3
ENDMDL
MODEL 5
REMARK VINA RESULT:      -3.9     10.285     11.547
REMARK  Name = 
REMARK  3 active torsions:
REMARK  status: ('A' for Active; 'I' for Inactive)
REMARK    1  A    between atoms: CA_2  and  CB_3
REMARK    2  A    between atoms: CA_2  and  C_7
REMARK    3  A    between atoms: CB_3  and  CG_4
REMARK                            x       y       z     vdW  Elec       q    Type
REMARK                         _______ _______ _______ _____ _____    ______ ____
ROOT
ATOM      1  N   ASP A   1      -1.725   7.623  -3.946  0.00  0.00    -0.120 NA
ATOM      2  CA  ASP A   1      -2.339   6.231  -4.369  0.00  0.00    +0.206 C 
ENDROOT
BRANCH   2   3
ATOM      3  C   ASP A   1      -1.951   5.511  -2.980  0.00  0.00    +0.382 C 
ATOM      4  OXT ASP A   1      -0.679   5.064  -2.791  0.00  0.00    -0.244 OA
ATOM      5  O   ASP A   1      -2.829   4.698  -2.554  0.00  0.00    -0.244 OA
ENDBRANCH   2   3
BRANCH   2   6
ATOM      6  CB  ASP A   1      -0.928   5.773  -5.087  0.00  0.00    +0.145 C 
BRANCH   6   7
ATOM      7  CG  ASP A   1      -1.497   5.382  -6.419  0.00  0.00    +0.367 C 
ATOM      8  OD2 ASP A   1      -0.681   5.480  -7.544  0.00  0.00    -0.246 OA
ATOM      9  OD1 ASP A   1      -2.715   5.577  -6.601  0.00  0.00    -0.246 OA
ENDBRANCH   6   7
ENDBRANCH   2   6
TORSDOF 3
ENDMDL
MODEL 6
REMARK VINA RESULT:      -3.7      2.424      2.731
REMARK  Name = 
REMARK  3 active torsions:
REMARK  status: ('A' for Active; 'I' for Inactive)
REMARK    1  A    between atoms: CA_2  and  CB_3
REMARK    2  A    between atoms: CA_2  and  C_7
REMARK    3  A    between atoms: CB_3  and  CG_4
REMARK                            x       y       z     vdW  Elec       q    Type
REMARK                         _______ _______ _______ _____ _____    ______ ____
ROOT
ATOM      1  N   ASP A   1       4.747   4.668 -13.348  0.00  0.00    -0.120 NA
ATOM      2  CA  ASP A   1       5.445   6.078 -13.213  0.00  0.00    +0.206 C 
ENDROOT
BRANCH   2   3
ATOM      3  C   ASP A   1       6.800   5.603 -13.945  0.00  0.00    +0.382 C 
ATOM      4  OXT ASP A   1       7.642   4.748 -13.303  0.00  0.00    -0.244 OA
ATOM      5  O   ASP A   1       7.412   6.532 -14.558  0.00  0.00    -0.244 OA
ENDBRANCH   2   3
BRANCH   2   6
ATOM      6  CB  ASP A   1       6.030   5.699 -11.719  0.00  0.00    +0.145 C 
BRANCH   6   7
ATOM      7  CG  ASP A   1       6.214   7.100 -11.214  0.00  0.00    +0.367 C 
ATOM      8  OD2 ASP A   1       7.411   7.423 -10.578  0.00  0.00    -0.246 OA
ATOM      9  OD1 ASP A   1       5.198   7.705 -10.820  0.00  0.00    -0.246 OA
ENDBRANCH   6   7
ENDBRANCH   2   6
TORSDOF 3
ENDMDL
MODEL 7
REMARK VINA RESULT:      -3.7     12.937     13.502
REMARK  Name = 
REMARK  3 active torsions:
REMARK  status: ('A' for Active; 'I' for Inactive)
REMARK    1  A    between atoms: CA_2  and  CB_3
REMARK    2  A    between atoms: CA_2  and  C_7
REMARK    3  A    between atoms: CB_3  and  CG_4
REMARK                            x       y       z     vdW  Elec       q    Type
REMARK                         _______ _______ _______ _____ _____    ______ ____
ROOT
ATOM      1  N   ASP A   1      -1.237   8.103  -0.347  0.00  0.00    -0.120 NA
ATOM      2  CA  ASP A   1      -1.627   6.588  -0.556  0.00  0.00    +0.206 C 
ENDROOT
BRANCH   2   3
ATOM      3  C   ASP A   1      -0.100   6.104  -0.739  0.00  0.00    +0.382 C 
ATOM      4  OXT ASP A   1       0.153   4.894  -1.309  0.00  0.00    -0.244 OA
ATOM      5  O   ASP A   1       0.644   6.345   0.261  0.00  0.00    -0.244 OA
ENDBRANCH   2   3
BRANCH   2   6
ATOM      6  CB  ASP A   1      -1.829   6.813  -2.176  0.00  0.00    +0.145 C 
BRANCH   6   7
ATOM      7  CG  ASP A   1      -3.037   5.940  -2.352  0.00  0.00    +0.367 C 
ATOM      8  OD2 ASP A   1      -2.855   4.647  -2.837  0.00  0.00    -0.246 OA
ATOM      9  OD1 ASP A   1      -4.109   6.499  -2.656  0.00  0.00    -0.246 OA
ENDBRANCH   6   7
ENDBRANCH   2   6
TORSDOF 3
ENDMDL
MODEL 8
REMARK VINA RESULT:      -3.6      6.985      8.406
REMARK  Name = 
REMARK  3 active torsions:
REMARK  status: ('A' for Active; 'I' for Inactive)
REMARK    1  A    between atoms: CA_2  and  CB_3
REMARK    2  A    between atoms: CA_2  and  C_7
REMARK    3  A    between atoms: CB_3  and  CG_4
REMARK                            x       y       z     vdW  Elec       q    Type
REMARK                         _______ _______ _______ _____ _____    ______ ____
ROOT
ATOM      1  N   ASP A   1       0.947   4.399  -6.012  0.00  0.00    -0.120 NA
ATOM      2  CA  ASP A   1       1.355   5.906  -5.780  0.00  0.00    +0.206 C 
ENDROOT
BRANCH   2   3
ATOM      3  C   ASP A   1      -0.168   6.433  -5.763  0.00  0.00    +0.382 C 
ATOM      4  OXT ASP A   1      -0.508   7.468  -4.947  0.00  0.00    -0.244 OA
ATOM      5  O   ASP A   1      -1.037   5.507  -5.776  0.00  0.00    -0.244 OA
ENDBRANCH   2   3
BRANCH   2   6
ATOM      6  CB  ASP A   1       1.506   6.165  -7.402  0.00  0.00    +0.145 C 
BRANCH   6   7
ATOM      7  CG  ASP A   1       2.451   7.328  -7.334  0.00  0.00    +0.367 C 
ATOM      8  OD2 ASP A   1       3.262   7.458  -6.209  0.00  0.00    -0.246 OA
ATOM      9  OD1 ASP A   1       2.094   8.389  -7.884  0.00  0.00    -0.246 OA
ENDBRANCH   6   7
ENDBRANCH   2   6
TORSDOF 3
ENDMDL
MODEL 9
REMARK VINA RESULT:      -3.6      1.987      2.490
REMARK  Name = 
REMARK  3 active torsions:
REMARK  status: ('A' for Active; 'I' for Inactive)
REMARK    1  A    between atoms: CA_2  and  CB_3
REMARK    2  A    between atoms: CA_2  and  C_7
REMARK    3  A    between atoms: CB_3  and  CG_4
REMARK                            x       y       z     vdW  Elec       q    Type
REMARK                         _______ _______ _______ _____ _____    ______ ____
ROOT
ATOM      1  N   ASP A   1       5.441   5.010 -12.895  0.00  0.00    -0.120 NA
ATOM      2  CA  ASP A   1       6.072   6.350 -12.350  0.00  0.00    +0.206 C 
ENDROOT
BRANCH   2   3
ATOM      3  C   ASP A   1       7.572   5.954 -12.787  0.00  0.00    +0.382 C 
ATOM      4  OXT ASP A   1       7.808   4.728 -13.329  0.00  0.00    -0.244 OA
ATOM      5  O   ASP A   1       8.465   6.308 -11.956  0.00  0.00    -0.244 OA
ENDBRANCH   2   3
BRANCH   2   6
ATOM      6  CB  ASP A   1       6.260   5.706 -10.844  0.00  0.00    +0.145 C 
BRANCH   6   7
ATOM      7  CG  ASP A   1       5.042   6.313 -10.212  0.00  0.00    +0.367 C 
ATOM      8  OD2 ASP A   1       4.006   5.467  -9.823  0.00  0.00    -0.246 OA
ATOM      9  OD1 ASP A   1       4.713   7.456 -10.584  0.00  0.00    -0.246 OA
ENDBRANCH   6   7
ENDBRANCH   2   6
TORSDOF 3
ENDMDL
