MODEL 1
REMARK VINA RESULT:      -7.7      0.000      0.000
REMARK  Name = 
REMARK  4 active torsions:
REMARK  status: ('A' for Active; 'I' for Inactive)
REMARK    1  A    between atoms: N_2  and  C_3
REMARK    2  A    between atoms: C_3  and  C_4
REMARK    3  A    between atoms: C_4  and  C_5
REMARK    4  A    between atoms: C_5  and  C_6
REMARK                            x       y       z     vdW  Elec       q    Type
REMARK                         _______ _______ _______ _____ _____    ______ ____
ROOT
ATOM      1  C   UNL     1       3.216   5.658  -6.905  0.00  0.00    +0.037 C 
ATOM      2  C   UNL     1       3.968   5.246  -8.134  0.00  0.00    -0.023 A 
ATOM      3  C   UNL     1       3.268   5.479  -9.314  0.00  0.00    -0.022 A 
ATOM      4  C   UNL     1       3.998   5.586 -10.490  0.00  0.00    -0.004 A 
ATOM      5  C   UNL     1       5.383   5.644 -10.456  0.00  0.00    -0.000 A 
ATOM      6  C   UNL     1       6.069   5.560  -9.252  0.00  0.00    -0.000 A 
ATOM      7  C   UNL     1       1.978   6.217  -9.114  0.00  0.00    +0.044 C 
ATOM      8  C   UNL     1       1.162   5.396  -8.163  0.00  0.00    -0.022 A 
ATOM      9  C   UNL     1      -0.225   5.498  -8.136  0.00  0.00    -0.004 A 
ATOM     10  C   UNL     1      -0.921   5.456  -6.933  0.00  0.00    -0.000 A 
ATOM     11  C   UNL     1      -0.254   4.888  -5.856  0.00  0.00    -0.000 A 
ATOM     12  C   UNL     1       1.125   4.744  -5.834  0.00  0.00    -0.004 A 
ATOM     13  C   UNL     1       2.363   7.473  -8.348  0.00  0.00    +0.009 C 
ATOM     14  C   UNL     1       5.357   5.296  -8.088  0.00  0.00    -0.004 A 
ATOM     15  C   UNL     1       1.828   5.097  -6.978  0.00  0.00    -0.023 A 
ATOM     16  C   UNL     1       3.041   7.167  -7.038  0.00  0.00    +0.009 C 
ENDROOT
BRANCH   1  17
ATOM     17  C   UNL     1       3.898   5.257  -5.644  0.00  0.00    +0.010 C 
BRANCH  17  18
ATOM     18  C   UNL     1       4.329   6.472  -4.842  0.00  0.00    +0.019 C 
BRANCH  18  19
ATOM     19  C   UNL     1       3.682   6.340  -3.476  0.00  0.00    +0.089 C 
BRANCH  19  21
ATOM     20  C   UNL     1       3.912   4.807  -1.639  0.00  0.00    +0.107 C 
ATOM     21  N   UNL     1       3.823   4.962  -3.076  0.00  0.00    -0.217 NA
ENDBRANCH  19  21
ENDBRANCH  18  19
ENDBRANCH  17  18
ENDBRANCH   1  17
TORSDOF 4
ENDMDL
MODEL 2
REMARK VINA RESULT:      -7.7      2.807      6.084
REMARK  Name = 
REMARK  4 active torsions:
REMARK  status: ('A' for Active; 'I' for Inactive)
REMARK    1  A    between atoms: N_2  and  C_3
REMARK    2  A    between atoms: C_3  and  C_4
REMARK    3  A    between atoms: C_4  and  C_5
REMARK    4  A    between atoms: C_5  and  C_6
REMARK                            x       y       z     vdW  Elec       q    Type
REMARK                         _______ _______ _______ _____ _____    ______ ____
ROOT
ATOM      1  C   UNL     1       1.068   5.456  -8.402  0.00  0.00    +0.037 C 
ATOM      2  C   UNL     1       0.236   5.356  -7.159  0.00  0.00    -0.023 A 
ATOM      3  C   UNL     1       0.859   5.886  -6.034  0.00  0.00    -0.022 A 
ATOM      4  C   UNL     1       0.055   6.275  -4.971  0.00  0.00    -0.004 A 
ATOM      5  C   UNL     1      -1.324   6.307  -5.106  0.00  0.00    -0.000 A 
ATOM      6  C   UNL     1      -1.931   5.916  -6.292  0.00  0.00    -0.000 A 
ATOM      7  C   UNL     1       2.163   6.566  -6.329  0.00  0.00    +0.044 C 
ATOM      8  C   UNL     1       3.036   5.542  -6.990  0.00  0.00    -0.022 A 
ATOM      9  C   UNL     1       4.421   5.651  -6.953  0.00  0.00    -0.004 A 
ATOM     10  C   UNL     1       5.194   5.317  -8.060  0.00  0.00    -0.000 A 
ATOM     11  C   UNL     1       4.595   4.489  -9.000  0.00  0.00    -0.000 A 
ATOM     12  C   UNL     1       3.220   4.327  -9.074  0.00  0.00    -0.004 A 
ATOM     13  C   UNL     1       1.835   7.585  -7.409  0.00  0.00    +0.009 C 
ATOM     14  C   UNL     1      -1.147   5.376  -7.305  0.00  0.00    -0.004 A 
ATOM     15  C   UNL     1       2.446   4.947  -8.102  0.00  0.00    -0.023 A 
ATOM     16  C   UNL     1       1.241   6.952  -8.640  0.00  0.00    +0.009 C 
ENDROOT
BRANCH   1  17
ATOM     17  C   UNL     1       0.467   4.743  -9.562  0.00  0.00    +0.010 C 
BRANCH  17  18
ATOM     18  C   UNL     1       0.086   5.714 -10.666  0.00  0.00    +0.019 C 
BRANCH  18  19
ATOM     19  C   UNL     1       0.705   5.181 -11.943  0.00  0.00    +0.089 C 
BRANCH  19  21
ATOM     20  C   UNL     1       2.911   6.115 -12.148  0.00  0.00    +0.107 C 
ATOM     21  N   UNL     1       1.511   6.243 -12.495  0.00  0.00    -0.217 NA
ENDBRANCH  19  21
ENDBRANCH  18  19
ENDBRANCH  17  18
ENDBRANCH   1  17
TORSDOF 4
ENDMDL
MODEL 3
REMARK VINA RESULT:      -7.3      2.097      4.213
REMARK  Name = 
REMARK  4 active torsions:
REMARK  status: ('A' for Active; 'I' for Inactive)
REMARK    1  A    between atoms: N_2  and  C_3
REMARK    2  A    between atoms: C_3  and  C_4
REMARK    3  A    between atoms: C_4  and  C_5
REMARK    4  A    between atoms: C_5  and  C_6
REMARK                            x       y       z     vdW  Elec       q    Type
REMARK                         _______ _______ _______ _____ _____    ______ ____
ROOT
ATOM      1  C   UNL     1       1.008   5.654  -7.194  0.00  0.00    +0.037 C 
ATOM      2  C   UNL     1       2.254   5.136  -6.542  0.00  0.00    -0.023 A 
ATOM      3  C   UNL     1       3.423   5.576  -7.156  0.00  0.00    -0.022 A 
ATOM      4  C   UNL     1       4.592   5.565  -6.408  0.00  0.00    -0.004 A 
ATOM      5  C   UNL     1       4.554   5.302  -5.047  0.00  0.00    -0.000 A 
ATOM      6  C   UNL     1       3.355   5.009  -4.413  0.00  0.00    -0.000 A 
ATOM      7  C   UNL     1       3.191   6.581  -8.244  0.00  0.00    +0.044 C 
ATOM      8  C   UNL     1       2.279   5.928  -9.239  0.00  0.00    -0.022 A 
ATOM      9  C   UNL     1       2.249   6.345 -10.565  0.00  0.00    -0.004 A 
ATOM     10  C   UNL     1       1.049   6.410 -11.266  0.00  0.00    -0.000 A 
ATOM     11  C   UNL     1      -0.000   5.656 -10.759  0.00  0.00    -0.000 A 
ATOM     12  C   UNL     1      -0.018   5.198  -9.451  0.00  0.00    -0.004 A 
ATOM     13  C   UNL     1       2.366   7.680  -7.591  0.00  0.00    +0.009 C 
ATOM     14  C   UNL     1       2.205   4.863  -5.179  0.00  0.00    -0.004 A 
ATOM     15  C   UNL     1       1.108   5.431  -8.673  0.00  0.00    -0.023 A 
ATOM     16  C   UNL     1       1.072   7.167  -7.016  0.00  0.00    +0.009 C 
ENDROOT
BRANCH   1  17
ATOM     17  C   UNL     1      -0.233   5.050  -6.636  0.00  0.00    +0.010 C 
BRANCH  17  18
ATOM     18  C   UNL     1      -1.168   6.118  -6.095  0.00  0.00    +0.019 C 
BRANCH  18  19
ATOM     19  C   UNL     1      -1.465   5.743  -4.656  0.00  0.00    +0.089 C 
BRANCH  19  21
ATOM     20  C   UNL     1      -1.840   8.115  -4.542  0.00  0.00    +0.107 C 
ATOM     21  N   UNL     1      -2.270   6.804  -4.103  0.00  0.00    -0.217 NA
ENDBRANCH  19  21
ENDBRANCH  18  19
ENDBRANCH  17  18
ENDBRANCH   1  17
TORSDOF 4
ENDMDL
MODEL 4
REMARK VINA RESULT:      -7.1      2.737      5.114
REMARK  Name = 
REMARK  4 active torsions:
REMARK  status: ('A' for Active; 'I' for Inactive)
REMARK    1  A    between atoms: N_2  and  C_3
REMARK    2  A    between atoms: C_3  and  C_4
REMARK    3  A    between atoms: C_4  and  C_5
REMARK    4  A    between atoms: C_5  and  C_6
REMARK                            x       y       z     vdW  Elec       q    Type
REMARK                         _______ _______ _______ _____ _____    ______ ____
ROOT
ATOM      1  C   UNL     1       2.638   6.154  -9.147  0.00  0.00    +0.037 C 
ATOM      2  C   UNL     1       3.785   6.390 -10.082  0.00  0.00    -0.023 A 
ATOM      3  C   UNL     1       4.998   5.907  -9.600  0.00  0.00    -0.022 A 
ATOM      4  C   UNL     1       6.002   5.641 -10.522  0.00  0.00    -0.004 A 
ATOM      5  C   UNL     1       5.737   5.680 -11.882  0.00  0.00    -0.000 A 
ATOM      6  C   UNL     1       4.475   6.020 -12.351  0.00  0.00    -0.000 A 
ATOM      7  C   UNL     1       4.875   5.133  -8.321  0.00  0.00    +0.044 C 
ATOM      8  C   UNL     1       4.235   6.055  -7.328  0.00  0.00    -0.022 A 
ATOM      9  C   UNL     1       4.412   5.870  -5.961  0.00  0.00    -0.004 A 
ATOM     10  C   UNL     1       3.364   6.079  -5.070  0.00  0.00    -0.000 A 
ATOM     11  C   UNL     1       2.319   6.870  -5.526  0.00  0.00    -0.000 A 
ATOM     12  C   UNL     1       2.103   7.106  -6.875  0.00  0.00    -0.004 A 
ATOM     13  C   UNL     1       3.837   4.061  -8.614  0.00  0.00    +0.009 C 
ATOM     14  C   UNL     1       3.509   6.440 -11.444  0.00  0.00    -0.004 A 
ATOM     15  C   UNL     1       3.035   6.602  -7.773  0.00  0.00    -0.023 A 
ATOM     16  C   UNL     1       2.516   4.638  -9.050  0.00  0.00    +0.009 C 
ENDROOT
BRANCH   1  17
ATOM     17  C   UNL     1       1.381   6.816  -9.592  0.00  0.00    +0.010 C 
BRANCH  17  18
ATOM     18  C   UNL     1       0.269   5.802  -9.796  0.00  0.00    +0.019 C 
BRANCH  18  19
ATOM     19  C   UNL     1      -0.166   5.922 -11.244  0.00  0.00    +0.089 C 
BRANCH  19  21
ATOM     20  C   UNL     1       0.271   7.509 -12.996  0.00  0.00    +0.107 C 
ATOM     21  N   UNL     1      -0.063   7.315 -11.600  0.00  0.00    -0.217 NA
ENDBRANCH  19  21
ENDBRANCH  18  19
ENDBRANCH  17  18
ENDBRANCH   1  17
TORSDOF 4
ENDMDL
MODEL 5
REMARK VINA RESULT:      -7.1      2.096      4.866
REMARK  Name = 
REMARK  4 active torsions:
REMARK  status: ('A' for Active; 'I' for Inactive)
REMARK    1  A    between atoms: N_2  and  C_3
REMARK    2  A    between atoms: C_3  and  C_4
REMARK    3  A    between atoms: C_4  and  C_5
REMARK    4  A    between atoms: C_5  and  C_6
REMARK                            x       y       z     vdW  Elec       q    Type
REMARK                         _______ _______ _______ _____ _____    ______ ____
ROOT
ATOM      1  C   UNL     1       2.931   6.119  -6.419  0.00  0.00    +0.037 C 
ATOM      2  C   UNL     1       3.347   7.056  -5.326  0.00  0.00    -0.023 A 
ATOM      3  C   UNL     1       2.517   7.007  -4.211  0.00  0.00    -0.022 A 
ATOM      4  C   UNL     1       3.033   7.445  -2.999  0.00  0.00    -0.004 A 
ATOM      5  C   UNL     1       4.381   7.743  -2.874  0.00  0.00    -0.000 A 
ATOM      6  C   UNL     1       5.234   7.644  -3.964  0.00  0.00    -0.000 A 
ATOM      7  C   UNL     1       1.472   5.933  -4.283  0.00  0.00    +0.044 C 
ATOM      8  C   UNL     1       0.679   6.195  -5.527  0.00  0.00    -0.022 A 
ATOM      9  C   UNL     1      -0.625   5.732  -5.657  0.00  0.00    -0.004 A 
ATOM     10  C   UNL     1      -1.090   5.235  -6.870  0.00  0.00    -0.000 A 
ATOM     11  C   UNL     1      -0.381   5.614  -8.001  0.00  0.00    -0.000 A 
ATOM     12  C   UNL     1       0.915   6.099  -7.933  0.00  0.00    -0.004 A 
ATOM     13  C   UNL     1       2.248   4.653  -4.552  0.00  0.00    +0.009 C 
ATOM     14  C   UNL     1       4.700   7.359  -5.215  0.00  0.00    -0.004 A 
ATOM     15  C   UNL     1       1.464   6.295  -6.673  0.00  0.00    -0.023 A 
ATOM     16  C   UNL     1       3.065   4.726  -5.815  0.00  0.00    +0.009 C 
ENDROOT
BRANCH   1  17
ATOM     17  C   UNL     1       3.723   6.295  -7.668  0.00  0.00    +0.010 C 
BRANCH  17  18
ATOM     18  C   UNL     1       4.494   5.033  -8.011  0.00  0.00    +0.019 C 
BRANCH  18  19
ATOM     19  C   UNL     1       3.996   4.579  -9.370  0.00  0.00    +0.089 C 
BRANCH  19  21
ATOM     20  C   UNL     1       3.946   5.842 -11.415  0.00  0.00    +0.107 C 
ATOM     21  N   UNL     1       4.769   5.288 -10.360  0.00  0.00    -0.217 NA
ENDBRANCH  19  21
ENDBRANCH  18  19
ENDBRANCH  17  18
ENDBRANCH   1  17
TORSDOF 4
ENDMDL
MODEL 6
REMARK VINA RESULT:      -7.1      1.901      4.388
REMARK  Name = 
REMARK  4 active torsions:
REMARK  status: ('A' for Active; 'I' for Inactive)
REMARK    1  A    between atoms: N_2  and  C_3
REMARK    2  A    between atoms: C_3  and  C_4
REMARK    3  A    between atoms: C_4  and  C_5
REMARK    4  A    between atoms: C_5  and  C_6
REMARK                            x       y       z     vdW  Elec       q    Type
REMARK                         _______ _______ _______ _____ _____    ______ ____
ROOT
ATOM      1  C   UNL     1       2.030   6.422  -5.066  0.00  0.00    +0.037 C 
ATOM      2  C   UNL     1       2.050   6.756  -6.527  0.00  0.00    -0.023 A 
ATOM      3  C   UNL     1       3.321   6.690  -7.091  0.00  0.00    -0.022 A 
ATOM      4  C   UNL     1       3.412   6.513  -8.465  0.00  0.00    -0.004 A 
ATOM      5  C   UNL     1       2.281   6.227  -9.214  0.00  0.00    -0.000 A 
ATOM      6  C   UNL     1       1.032   6.147  -8.614  0.00  0.00    -0.000 A 
ATOM      7  C   UNL     1       4.370   6.166  -6.155  0.00  0.00    +0.044 C 
ATOM      8  C   UNL     1       4.362   7.070  -4.960  0.00  0.00    -0.022 A 
ATOM      9  C   UNL     1       5.486   7.196  -4.150  0.00  0.00    -0.004 A 
ATOM     10  C   UNL     1       5.362   7.302  -2.769  0.00  0.00    -0.000 A 
ATOM     11  C   UNL     1       4.123   7.708  -2.292  0.00  0.00    -0.000 A 
ATOM     12  C   UNL     1       2.971   7.623  -3.059  0.00  0.00    -0.004 A 
ATOM     13  C   UNL     1       3.824   4.833  -5.666  0.00  0.00    +0.009 C 
ATOM     14  C   UNL     1       0.908   6.477  -7.270  0.00  0.00    -0.004 A 
ATOM     15  C   UNL     1       3.105   7.207  -4.377  0.00  0.00    -0.023 A 
ATOM     16  C   UNL     1       2.486   4.970  -4.988  0.00  0.00    +0.009 C 
ENDROOT
BRANCH   1  17
ATOM     17  C   UNL     1       0.701   6.654  -4.437  0.00  0.00    +0.010 C 
BRANCH  17  18
ATOM     18  C   UNL     1       0.132   5.367  -3.865  0.00  0.00    +0.019 C 
BRANCH  18  19
ATOM     19  C   UNL     1      -0.292   5.676  -2.442  0.00  0.00    +0.089 C 
BRANCH  19  21
ATOM     20  C   UNL     1       1.513   4.892  -1.060  0.00  0.00    +0.107 C 
ATOM     21  N   UNL     1       0.205   4.606  -1.613  0.00  0.00    -0.217 NA
ENDBRANCH  19  21
ENDBRANCH  18  19
ENDBRANCH  17  18
ENDBRANCH   1  17
TORSDOF 4
ENDMDL
MODEL 7
REMARK VINA RESULT:      -6.9      2.095      5.278
REMARK  Name = 
REMARK  4 active torsions:
REMARK  status: ('A' for Active; 'I' for Inactive)
REMARK    1  A    between atoms: N_2  and  C_3
REMARK    2  A    between atoms: C_3  and  C_4
REMARK    3  A    between atoms: C_4  and  C_5
REMARK    4  A    between atoms: C_5  and  C_6
REMARK                            x       y       z     vdW  Elec       q    Type
REMARK                         _______ _______ _______ _____ _____    ______ ____
ROOT
ATOM      1  C   UNL     1       2.128   5.332  -5.852  0.00  0.00    +0.037 C 
ATOM      2  C   UNL     1       2.746   5.124  -4.502  0.00  0.00    -0.023 A 
ATOM      3  C   UNL     1       4.080   5.513  -4.440  0.00  0.00    -0.022 A 
ATOM      4  C   UNL     1       4.611   5.811  -3.192  0.00  0.00    -0.004 A 
ATOM      5  C   UNL     1       3.788   5.896  -2.080  0.00  0.00    -0.000 A 
ATOM      6  C   UNL     1       2.426   5.651  -2.183  0.00  0.00    -0.000 A 
ATOM      7  C   UNL     1       4.573   6.183  -5.689  0.00  0.00    +0.044 C 
ATOM      8  C   UNL     1       4.352   5.210  -6.807  0.00  0.00    -0.022 A 
ATOM      9  C   UNL     1       5.109   5.274  -7.972  0.00  0.00    -0.004 A 
ATOM     10  C   UNL     1       4.529   5.038  -9.214  0.00  0.00    -0.000 A 
ATOM     11  C   UNL     1       3.334   4.332  -9.211  0.00  0.00    -0.000 A 
ATOM     12  C   UNL     1       2.546   4.219  -8.075  0.00  0.00    -0.004 A 
ATOM     13  C   UNL     1       3.592   7.320  -5.933  0.00  0.00    +0.009 C 
ATOM     14  C   UNL     1       1.912   5.199  -3.392  0.00  0.00    -0.004 A 
ATOM     15  C   UNL     1       3.039   4.754  -6.894  0.00  0.00    -0.023 A 
ATOM     16  C   UNL     1       2.172   6.838  -6.078  0.00  0.00    +0.009 C 
ENDROOT
BRANCH   1  17
ATOM     17  C   UNL     1       0.756   4.763  -5.956  0.00  0.00    +0.010 C 
BRANCH  17  18
ATOM     18  C   UNL     1      -0.267   5.849  -6.244  0.00  0.00    +0.019 C 
BRANCH  18  19
ATOM     19  C   UNL     1      -1.493   5.150  -6.800  0.00  0.00    +0.089 C 
BRANCH  19  21
ATOM     20  C   UNL     1      -2.375   6.776  -5.263  0.00  0.00    +0.107 C 
ATOM     21  N   UNL     1      -2.637   5.942  -6.418  0.00  0.00    -0.217 NA
ENDBRANCH  19  21
ENDBRANCH  18  19
ENDBRANCH  17  18
ENDBRANCH   1  17
TORSDOF 4
ENDMDL
MODEL 8
REMARK VINA RESULT:      -6.9      3.166      5.512
REMARK  Name = 
REMARK  4 active torsions:
REMARK  status: ('A' for Active; 'I' for Inactive)
REMARK    1  A    between atoms: N_2  and  C_3
REMARK    2  A    between atoms: C_3  and  C_4
REMARK    3  A    between atoms: C_4  and  C_5
REMARK    4  A    between atoms: C_5  and  C_6
REMARK                            x       y       z     vdW  Elec       q    Type
REMARK                         _______ _______ _______ _____ _____    ______ ____
ROOT
ATOM      1  C   UNL     1       3.573   6.151 -10.018  0.00  0.00    +0.037 C 
ATOM      2  C   UNL     1       5.031   6.325 -10.317  0.00  0.00    -0.023 A 
ATOM      3  C   UNL     1       5.859   5.970  -9.257  0.00  0.00    -0.022 A 
ATOM      4  C   UNL     1       7.176   5.641  -9.545  0.00  0.00    -0.004 A 
ATOM      5  C   UNL     1       7.594   5.494 -10.859  0.00  0.00    -0.000 A 
ATOM      6  C   UNL     1       6.715   5.706 -11.912  0.00  0.00    -0.000 A 
ATOM      7  C   UNL     1       5.127   5.359  -8.098  0.00  0.00    +0.044 C 
ATOM      8  C   UNL     1       4.105   6.365  -7.664  0.00  0.00    -0.022 A 
ATOM      9  C   UNL     1       3.605   6.364  -6.366  0.00  0.00    -0.004 A 
ATOM     10  C   UNL     1       2.262   6.630  -6.118  0.00  0.00    -0.000 A 
ATOM     11  C   UNL     1       1.574   7.303  -7.118  0.00  0.00    -0.000 A 
ATOM     12  C   UNL     1       2.033   7.355  -8.426  0.00  0.00    -0.004 A 
ATOM     13  C   UNL     1       4.338   4.206  -8.700  0.00  0.00    +0.009 C 
ATOM     14  C   UNL     1       5.440   6.188 -11.639  0.00  0.00    -0.004 A 
ATOM     15  C   UNL     1       3.272   6.789  -8.695  0.00  0.00    -0.023 A 
ATOM     16  C   UNL     1       3.395   4.655  -9.786  0.00  0.00    +0.009 C 
ENDROOT
BRANCH   1  17
ATOM     17  C   UNL     1       2.692   6.686 -11.092  0.00  0.00    +0.010 C 
BRANCH  17  18
ATOM     18  C   UNL     1       1.741   5.619 -11.604  0.00  0.00    +0.019 C 
BRANCH  18  19
ATOM     19  C   UNL     1       0.761   6.318 -12.526  0.00  0.00    +0.089 C 
BRANCH  19  21
ATOM     20  C   UNL     1       0.962   4.419 -13.987  0.00  0.00    +0.107 C 
ATOM     21  N   UNL     1       1.043   5.860 -13.865  0.00  0.00    -0.217 NA
ENDBRANCH  19  21
ENDBRANCH  18  19
ENDBRANCH  17  18
ENDBRANCH   1  17
TORSDOF 4
ENDMDL
MODEL 9
REMARK VINA RESULT:      -6.9      2.820      5.561
REMARK  Name = 
REMARK  4 active torsions:
REMARK  status: ('A' for Active; 'I' for Inactive)
REMARK    1  A    between atoms: N_2  and  C_3
REMARK    2  A    between atoms: C_3  and  C_4
REMARK    3  A    between atoms: C_4  and  C_5
REMARK    4  A    between atoms: C_5  and  C_6
REMARK                            x       y       z     vdW  Elec       q    Type
REMARK                         _______ _______ _______ _____ _____    ______ ____
ROOT
ATOM      1  C   UNL     1       3.022   6.131  -9.718  0.00  0.00    +0.037 C 
ATOM      2  C   UNL     1       2.321   6.680  -8.513  0.00  0.00    -0.023 A 
ATOM      3  C   UNL     1       1.082   6.092  -8.279  0.00  0.00    -0.022 A 
ATOM      4  C   UNL     1       0.565   6.159  -6.992  0.00  0.00    -0.004 A 
ATOM      5  C   UNL     1       1.342   6.630  -5.945  0.00  0.00    -0.000 A 
ATOM      6  C   UNL     1       2.637   7.077  -6.167  0.00  0.00    -0.000 A 
ATOM      7  C   UNL     1       0.776   4.944  -9.195  0.00  0.00    +0.044 C 
ATOM      8  C   UNL     1       0.857   5.482 -10.591  0.00  0.00    -0.022 A 
ATOM      9  C   UNL     1       0.175   4.868 -11.636  0.00  0.00    -0.004 A 
ATOM     10  C   UNL     1       0.751   4.757 -12.897  0.00  0.00    -0.000 A 
ATOM     11  C   UNL     1       1.791   5.632 -13.177  0.00  0.00    -0.000 A 
ATOM     12  C   UNL     1       2.496   6.287 -12.179  0.00  0.00    -0.004 A 
ATOM     13  C   UNL     1       1.962   4.003  -9.048  0.00  0.00    +0.009 C 
ATOM     14  C   UNL     1       3.107   7.162  -7.472  0.00  0.00    -0.004 A 
ATOM     15  C   UNL     1       2.063   6.119 -10.870  0.00  0.00    -0.023 A 
ATOM     16  C   UNL     1       3.271   4.663  -9.394  0.00  0.00    +0.009 C 
ENDROOT
BRANCH   1  17
ATOM     17  C   UNL     1       4.266   6.876 -10.055  0.00  0.00    +0.010 C 
BRANCH  17  18
ATOM     18  C   UNL     1       5.481   5.966 -10.007  0.00  0.00    +0.019 C 
BRANCH  18  19
ATOM     19  C   UNL     1       6.472   6.513 -11.016  0.00  0.00    +0.089 C 
BRANCH  19  21
ATOM     20  C   UNL     1       8.429   5.820 -12.229  0.00  0.00    +0.107 C 
ATOM     21  N   UNL     1       7.272   5.400 -11.466  0.00  0.00    -0.217 NA
ENDBRANCH  19  21
ENDBRANCH  18  19
ENDBRANCH  17  18
ENDBRANCH   1  17
TORSDOF 4
ENDMDL
