MODEL 1
REMARK VINA RESULT:      -6.1      0.000      0.000
REMARK  Name = 
REMARK  3 active torsions:
REMARK  status: ('A' for Active; 'I' for Inactive)
REMARK    1  A    between atoms: CA_2  and  C_3
REMARK    2  A    between atoms: CA_2  and  C_6
REMARK    3  A    between atoms: C_6  and  C_8
REMARK                            x       y       z     vdW  Elec       q    Type
REMARK                         _______ _______ _______ _____ _____    ______ ____
ROOT
ATOM      1  C   UNL     1       5.585   5.833 -10.350  0.00  0.00    +0.013 A 
ATOM      2  C   UNL     1       5.764   5.415 -11.669  0.00  0.00    +0.044 A 
ATOM      3  C   UNL     1       7.019   5.239 -12.217  0.00  0.00    +0.234 A 
ATOM      4  O   UNL     1       7.233   4.755 -13.506  0.00  0.00    -0.283 OA
ATOM      5  C   UNL     1       8.115   5.608 -11.462  0.00  0.00    +0.234 A 
ATOM      6  O   UNL     1       9.285   6.053 -12.072  0.00  0.00    -0.283 OA
ATOM      7  C   UNL     1       7.967   5.896 -10.121  0.00  0.00    +0.045 A 
ATOM      8  C   UNL     1       6.714   5.672  -9.568  0.00  0.00    +0.002 A 
ENDROOT
BRANCH   1   9
ATOM      9  C   UNL     1       4.251   5.107  -9.798  0.00  0.00    +0.203 C 
ATOM     10  O   UNL     1       4.782   4.989  -8.389  0.00  0.00    -0.216 OA
BRANCH   9  12
ATOM     11  N   UNL     1       2.622   6.327  -8.348  0.00  0.00    -0.118 NA
ATOM     12  CA  UNL     1       3.468   6.637  -9.624  0.00  0.00    +0.229 C 
BRANCH  12  13
ATOM     13  C   UNL     1       2.296   6.205 -10.628  0.00  0.00    +0.385 C 
ATOM     14  OXT UNL     1       2.411   6.534 -11.943  0.00  0.00    -0.244 OA
ATOM     15  O   UNL     1       1.189   6.356 -10.028  0.00  0.00    -0.244 OA
ENDBRANCH  12  13
ENDBRANCH   9  12
ENDBRANCH   1   9
TORSDOF 3
ENDMDL
MODEL 2
REMARK VINA RESULT:      -6.1      2.486      4.980
REMARK  Name = 
REMARK  3 active torsions:
REMARK  status: ('A' for Active; 'I' for Inactive)
REMARK    1  A    between atoms: CA_2  and  C_3
REMARK    2  A    between atoms: CA_2  and  C_6
REMARK    3  A    between atoms: C_6  and  C_8
REMARK                            x       y       z     vdW  Elec       q    Type
REMARK                         _______ _______ _______ _____ _____    ______ ____
ROOT
ATOM      1  C   UNL     1       5.662   5.847 -10.322  0.00  0.00    +0.013 A 
ATOM      2  C   UNL     1       4.424   6.486 -10.264  0.00  0.00    +0.044 A 
ATOM      3  C   UNL     1       3.652   6.489  -9.119  0.00  0.00    +0.234 A 
ATOM      4  O   UNL     1       2.446   7.178  -9.007  0.00  0.00    -0.283 OA
ATOM      5  C   UNL     1       4.079   5.730  -8.047  0.00  0.00    +0.234 A 
ATOM      6  O   UNL     1       3.164   5.174  -7.157  0.00  0.00    -0.283 OA
ATOM      7  C   UNL     1       5.354   5.201  -8.037  0.00  0.00    +0.045 A 
ATOM      8  C   UNL     1       6.195   5.578  -9.074  0.00  0.00    +0.002 A 
ENDROOT
BRANCH   1   9
ATOM      9  C   UNL     1       6.604   6.718 -11.303  0.00  0.00    +0.203 C 
ATOM     10  O   UNL     1       7.677   6.913 -10.258  0.00  0.00    -0.216 OA
BRANCH   9  12
ATOM     11  N   UNL     1       8.510   5.873 -12.681  0.00  0.00    -0.118 NA
ATOM     12  CA  UNL     1       7.230   5.274 -12.015  0.00  0.00    +0.229 C 
BRANCH  12  13
ATOM     13  C   UNL     1       6.331   5.473 -13.326  0.00  0.00    +0.385 C 
ATOM     14  OXT UNL     1       5.227   4.695 -13.483  0.00  0.00    -0.244 OA
ATOM     15  O   UNL     1       7.108   5.683 -14.307  0.00  0.00    -0.244 OA
ENDBRANCH  12  13
ENDBRANCH   9  12
ENDBRANCH   1   9
TORSDOF 3
ENDMDL
MODEL 3
REMARK VINA RESULT:      -5.9      6.575      8.828
REMARK  Name = 
REMARK  3 active torsions:
REMARK  status: ('A' for Active; 'I' for Inactive)
REMARK    1  A    between atoms: CA_2  and  C_3
REMARK    2  A    between atoms: CA_2  and  C_6
REMARK    3  A    between atoms: C_6  and  C_8
REMARK                            x       y       z     vdW  Elec       q    Type
REMARK                         _______ _______ _______ _____ _____    ______ ____
ROOT
ATOM      1  C   UNL     1      -0.795   5.950  -5.126  0.00  0.00    +0.013 A 
ATOM      2  C   UNL     1       0.475   6.510  -5.263  0.00  0.00    +0.044 A 
ATOM      3  C   UNL     1       1.154   6.501  -6.466  0.00  0.00    +0.234 A 
ATOM      4  O   UNL     1       2.391   7.114  -6.654  0.00  0.00    -0.283 OA
ATOM      5  C   UNL     1       0.596   5.806  -7.521  0.00  0.00    +0.234 A 
ATOM      6  O   UNL     1       1.400   5.222  -8.497  0.00  0.00    -0.283 OA
ATOM      7  C   UNL     1      -0.708   5.362  -7.445  0.00  0.00    +0.045 A 
ATOM      8  C   UNL     1      -1.440   5.757  -6.334  0.00  0.00    +0.002 A 
ENDROOT
BRANCH   1   9
ATOM      9  C   UNL     1      -1.598   6.848  -4.049  0.00  0.00    +0.203 C 
ATOM     10  O   UNL     1      -2.730   7.153  -5.002  0.00  0.00    -0.216 OA
BRANCH   9  12
ATOM     11  N   UNL     1      -3.526   6.067  -2.664  0.00  0.00    -0.118 NA
ATOM     12  CA  UNL     1      -2.270   5.426  -3.336  0.00  0.00    +0.229 C 
BRANCH  12  13
ATOM     13  C   UNL     1      -1.359   5.593  -2.028  0.00  0.00    +0.385 C 
ATOM     14  OXT UNL     1      -0.277   4.782  -1.880  0.00  0.00    -0.244 OA
ATOM     15  O   UNL     1      -2.125   5.820  -1.043  0.00  0.00    -0.244 OA
ENDBRANCH  12  13
ENDBRANCH   9  12
ENDBRANCH   1   9
TORSDOF 3
ENDMDL
MODEL 4
REMARK VINA RESULT:      -5.9      1.911      2.255
REMARK  Name = 
REMARK  3 active torsions:
REMARK  status: ('A' for Active; 'I' for Inactive)
REMARK    1  A    between atoms: CA_2  and  C_3
REMARK    2  A    between atoms: CA_2  and  C_6
REMARK    3  A    between atoms: C_6  and  C_8
REMARK                            x       y       z     vdW  Elec       q    Type
REMARK                         _______ _______ _______ _____ _____    ______ ____
ROOT
ATOM      1  C   UNL     1       4.543   6.086  -9.293  0.00  0.00    +0.013 A 
ATOM      2  C   UNL     1       4.593   6.456 -10.636  0.00  0.00    +0.044 A 
ATOM      3  C   UNL     1       5.768   6.427 -11.362  0.00  0.00    +0.234 A 
ATOM      4  O   UNL     1       5.838   6.722 -12.722  0.00  0.00    -0.283 OA
ATOM      5  C   UNL     1       6.938   6.138 -10.689  0.00  0.00    +0.234 A 
ATOM      6  O   UNL     1       8.156   6.663 -11.115  0.00  0.00    -0.283 OA
ATOM      7  C   UNL     1       6.893   5.644  -9.401  0.00  0.00    +0.045 A 
ATOM      8  C   UNL     1       5.638   5.344  -8.890  0.00  0.00    +0.002 A 
ENDROOT
BRANCH   1   9
ATOM      9  C   UNL     1       3.106   5.390  -9.043  0.00  0.00    +0.203 C 
ATOM     10  O   UNL     1       3.705   4.031  -8.766  0.00  0.00    -0.216 OA
BRANCH   9  12
ATOM     11  N   UNL     1       2.136   4.900  -6.793  0.00  0.00    -0.118 NA
ATOM     12  CA  UNL     1       3.085   5.972  -7.417  0.00  0.00    +0.229 C 
BRANCH  12  13
ATOM     13  C   UNL     1       1.889   6.987  -7.745  0.00  0.00    +0.385 C 
ATOM     14  OXT UNL     1       2.173   8.313  -7.861  0.00  0.00    -0.244 OA
ATOM     15  O   UNL     1       0.865   6.608  -7.100  0.00  0.00    -0.244 OA
ENDBRANCH  12  13
ENDBRANCH   9  12
ENDBRANCH   1   9
TORSDOF 3
ENDMDL
MODEL 5
REMARK VINA RESULT:      -5.8      6.005      8.984
REMARK  Name = 
REMARK  3 active torsions:
REMARK  status: ('A' for Active; 'I' for Inactive)
REMARK    1  A    between atoms: CA_2  and  C_3
REMARK    2  A    between atoms: CA_2  and  C_6
REMARK    3  A    between atoms: C_6  and  C_8
REMARK                            x       y       z     vdW  Elec       q    Type
REMARK                         _______ _______ _______ _____ _____    ______ ____
ROOT
ATOM      1  C   UNL     1       0.943   5.517  -4.322  0.00  0.00    +0.013 A 
ATOM      2  C   UNL     1      -0.249   5.640  -5.035  0.00  0.00    +0.044 A 
ATOM      3  C   UNL     1      -1.481   5.644  -4.409  0.00  0.00    +0.234 A 
ATOM      4  O   UNL     1      -2.685   5.837  -5.084  0.00  0.00    -0.283 OA
ATOM      5  C   UNL     1      -1.520   5.395  -3.051  0.00  0.00    +0.234 A 
ATOM      6  O   UNL     1      -2.626   4.782  -2.468  0.00  0.00    -0.283 OA
ATOM      7  C   UNL     1      -0.354   5.402  -2.312  0.00  0.00    +0.045 A 
ATOM      8  C   UNL     1       0.803   5.791  -2.973  0.00  0.00    +0.002 A 
ENDROOT
BRANCH   1   9
ATOM      9  C   UNL     1       2.054   6.399  -5.095  0.00  0.00    +0.203 C 
ATOM     10  O   UNL     1       2.556   7.053  -3.829  0.00  0.00    -0.216 OA
BRANCH   9  12
ATOM     11  N   UNL     1       4.482   5.835  -5.267  0.00  0.00    -0.118 NA
ATOM     12  CA  UNL     1       3.138   5.055  -5.109  0.00  0.00    +0.229 C 
BRANCH  12  13
ATOM     13  C   UNL     1       2.950   4.857  -6.688  0.00  0.00    +0.385 C 
ATOM     14  OXT UNL     1       2.251   3.777  -7.130  0.00  0.00    -0.244 OA
ATOM     15  O   UNL     1       4.033   5.194  -7.257  0.00  0.00    -0.244 OA
ENDBRANCH  12  13
ENDBRANCH   9  12
ENDBRANCH   1   9
TORSDOF 3
ENDMDL
MODEL 6
REMARK VINA RESULT:      -5.8      6.254      9.433
REMARK  Name = 
REMARK  3 active torsions:
REMARK  status: ('A' for Active; 'I' for Inactive)
REMARK    1  A    between atoms: CA_2  and  C_3
REMARK    2  A    between atoms: CA_2  and  C_6
REMARK    3  A    between atoms: C_6  and  C_8
REMARK                            x       y       z     vdW  Elec       q    Type
REMARK                         _______ _______ _______ _____ _____    ______ ____
ROOT
ATOM      1  C   UNL     1      -0.436   6.029  -5.120  0.00  0.00    +0.013 A 
ATOM      2  C   UNL     1      -0.362   5.366  -3.895  0.00  0.00    +0.044 A 
ATOM      3  C   UNL     1      -1.072   5.790  -2.788  0.00  0.00    +0.234 A 
ATOM      4  O   UNL     1      -1.075   5.110  -1.572  0.00  0.00    -0.283 OA
ATOM      5  C   UNL     1      -1.774   6.975  -2.883  0.00  0.00    +0.234 A 
ATOM      6  O   UNL     1      -1.979   7.775  -1.762  0.00  0.00    -0.283 OA
ATOM      7  C   UNL     1      -1.966   7.570  -4.113  0.00  0.00    +0.045 A 
ATOM      8  C   UNL     1      -1.536   6.860  -5.225  0.00  0.00    +0.002 A 
ENDROOT
BRANCH   1   9
ATOM      9  C   UNL     1      -0.303   4.908  -6.276  0.00  0.00    +0.203 C 
ATOM     10  O   UNL     1      -1.267   5.611  -7.203  0.00  0.00    -0.216 OA
BRANCH   9  12
ATOM     11  N   UNL     1       1.027   5.271  -8.360  0.00  0.00    -0.118 NA
ATOM     12  CA  UNL     1       1.151   5.645  -6.849  0.00  0.00    +0.229 C 
BRANCH  12  13
ATOM     13  C   UNL     1       2.010   4.340  -6.492  0.00  0.00    +0.385 C 
ATOM     14  OXT UNL     1       2.826   4.375  -5.404  0.00  0.00    -0.244 OA
ATOM     15  O   UNL     1       2.417   3.829  -7.579  0.00  0.00    -0.244 OA
ENDBRANCH  12  13
ENDBRANCH   9  12
ENDBRANCH   1   9
TORSDOF 3
ENDMDL
MODEL 7
REMARK VINA RESULT:      -5.7      5.533      8.913
REMARK  Name = 
REMARK  3 active torsions:
REMARK  status: ('A' for Active; 'I' for Inactive)
REMARK    1  A    between atoms: CA_2  and  C_3
REMARK    2  A    between atoms: CA_2  and  C_6
REMARK    3  A    between atoms: C_6  and  C_8
REMARK                            x       y       z     vdW  Elec       q    Type
REMARK                         _______ _______ _______ _____ _____    ______ ____
ROOT
ATOM      1  C   UNL     1      -0.311   6.098  -5.992  0.00  0.00    +0.013 A 
ATOM      2  C   UNL     1      -0.006   5.761  -4.673  0.00  0.00    +0.044 A 
ATOM      3  C   UNL     1      -0.987   5.474  -3.745  0.00  0.00    +0.234 A 
ATOM      4  O   UNL     1      -0.714   5.065  -2.441  0.00  0.00    -0.283 OA
ATOM      5  C   UNL     1      -2.305   5.648  -4.118  0.00  0.00    +0.234 A 
ATOM      6  O   UNL     1      -3.275   5.992  -3.179  0.00  0.00    -0.283 OA
ATOM      7  C   UNL     1      -2.629   5.851  -5.445  0.00  0.00    +0.045 A 
ATOM      8  C   UNL     1      -1.594   5.741  -6.364  0.00  0.00    +0.002 A 
ENDROOT
BRANCH   1   9
ATOM      9  C   UNL     1       0.869   5.501  -6.921  0.00  0.00    +0.203 C 
ATOM     10  O   UNL     1      -0.033   5.322  -8.119  0.00  0.00    -0.216 OA
BRANCH   9  12
ATOM     11  N   UNL     1       1.757   6.900  -8.792  0.00  0.00    -0.118 NA
ATOM     12  CA  UNL     1       1.420   7.098  -7.280  0.00  0.00    +0.229 C 
BRANCH  12  13
ATOM     13  C   UNL     1       2.907   6.746  -6.797  0.00  0.00    +0.385 C 
ATOM     14  OXT UNL     1       3.421   7.415  -5.730  0.00  0.00    -0.244 OA
ATOM     15  O   UNL     1       3.618   6.549  -7.829  0.00  0.00    -0.244 OA
ENDBRANCH  12  13
ENDBRANCH   9  12
ENDBRANCH   1   9
TORSDOF 3
ENDMDL
MODEL 8
REMARK VINA RESULT:      -5.7      1.004      1.125
REMARK  Name = 
REMARK  3 active torsions:
REMARK  status: ('A' for Active; 'I' for Inactive)
REMARK    1  A    between atoms: CA_2  and  C_3
REMARK    2  A    between atoms: CA_2  and  C_6
REMARK    3  A    between atoms: C_6  and  C_8
REMARK                            x       y       z     vdW  Elec       q    Type
REMARK                         _______ _______ _______ _____ _____    ______ ____
ROOT
ATOM      1  C   UNL     1       5.158   6.025  -9.983  0.00  0.00    +0.013 A 
ATOM      2  C   UNL     1       4.948   5.536 -11.272  0.00  0.00    +0.044 A 
ATOM      3  C   UNL     1       5.990   5.310 -12.150  0.00  0.00    +0.234 A 
ATOM      4  O   UNL     1       5.821   4.756 -13.417  0.00  0.00    -0.283 OA
ATOM      5  C   UNL     1       7.258   5.701 -11.766  0.00  0.00    +0.234 A 
ATOM      6  O   UNL     1       8.201   6.095 -12.712  0.00  0.00    -0.283 OA
ATOM      7  C   UNL     1       7.505   6.062 -10.457  0.00  0.00    +0.045 A 
ATOM      8  C   UNL     1       6.466   5.887  -9.554  0.00  0.00    +0.002 A 
ENDROOT
BRANCH   1   9
ATOM      9  C   UNL     1       4.042   5.351  -9.029  0.00  0.00    +0.203 C 
ATOM     10  O   UNL     1       4.938   5.357  -7.813  0.00  0.00    -0.216 OA
BRANCH   9  12
ATOM     11  N   UNL     1       2.969   6.750  -7.259  0.00  0.00    -0.118 NA
ATOM     12  CA  UNL     1       3.299   6.889  -8.780  0.00  0.00    +0.229 C 
BRANCH  12  13
ATOM     13  C   UNL     1       1.871   6.329  -9.244  0.00  0.00    +0.385 C 
ATOM     14  OXT UNL     1       1.426   6.634 -10.493  0.00  0.00    -0.244 OA
ATOM     15  O   UNL     1       1.082   6.394  -8.252  0.00  0.00    -0.244 OA
ENDBRANCH  12  13
ENDBRANCH   9  12
ENDBRANCH   1   9
TORSDOF 3
ENDMDL
MODEL 9
REMARK VINA RESULT:      -5.7      2.214      5.320
REMARK  Name = 
REMARK  3 active torsions:
REMARK  status: ('A' for Active; 'I' for Inactive)
REMARK    1  A    between atoms: CA_2  and  C_3
REMARK    2  A    between atoms: CA_2  and  C_6
REMARK    3  A    between atoms: C_6  and  C_8
REMARK                            x       y       z     vdW  Elec       q    Type
REMARK                         _______ _______ _______ _____ _____    ______ ____
ROOT
ATOM      1  C   UNL     1       4.538   6.190 -10.171  0.00  0.00    +0.013 A 
ATOM      2  C   UNL     1       4.960   5.589  -8.986  0.00  0.00    +0.044 A 
ATOM      3  C   UNL     1       4.311   5.802  -7.785  0.00  0.00    +0.234 A 
ATOM      4  O   UNL     1       4.663   5.162  -6.598  0.00  0.00    -0.283 OA
ATOM      5  C   UNL     1       3.292   6.733  -7.754  0.00  0.00    +0.234 A 
ATOM      6  O   UNL     1       3.017   7.453  -6.594  0.00  0.00    -0.283 OA
ATOM      7  C   UNL     1       2.777   7.236  -8.932  0.00  0.00    +0.045 A 
ATOM      8  C   UNL     1       3.242   6.668 -10.110  0.00  0.00    +0.002 A 
ENDROOT
BRANCH   1   9
ATOM      9  C   UNL     1       4.833   5.143 -11.367  0.00  0.00    +0.203 C 
ATOM     10  O   UNL     1       3.609   5.549 -12.154  0.00  0.00    -0.216 OA
BRANCH   9  12
ATOM     11  N   UNL     1       5.782   5.819 -13.577  0.00  0.00    -0.118 NA
ATOM     12  CA  UNL     1       5.949   6.249 -12.084  0.00  0.00    +0.229 C 
BRANCH  12  13
ATOM     13  C   UNL     1       7.177   5.250 -11.829  0.00  0.00    +0.385 C 
ATOM     14  OXT UNL     1       8.107   5.588 -10.896  0.00  0.00    -0.244 OA
ATOM     15  O   UNL     1       7.539   4.779 -12.950  0.00  0.00    -0.244 OA
ENDBRANCH  12  13
ENDBRANCH   9  12
ENDBRANCH   1   9
TORSDOF 3
ENDMDL
