MODEL 1
REMARK VINA RESULT:      -6.6      0.000      0.000
REMARK  Name = 
REMARK  12 active torsions:
REMARK  status: ('A' for Active; 'I' for Inactive)
REMARK    1  A    between atoms: N_2  and  C_3
REMARK    2  A    between atoms: C_6  and  C_7
REMARK    3  A    between atoms: C_8  and  C_9
REMARK    4  A    between atoms: C_12  and  O_13
REMARK    5  A    between atoms: O_13  and  C_14
REMARK    6  A    between atoms: C_14  and  C_15
REMARK    7  A    between atoms: C_15  and  O_16
REMARK    8  A    between atoms: O_16  and  C_17
REMARK    9  A    between atoms: C_17  and  C_18
REMARK   10  A    between atoms: C_18  and  O_19
REMARK   11  A    between atoms: O_19  and  C_20
REMARK   12  A    between atoms: C_20  and  C_21
REMARK                            x       y       z     vdW  Elec       q    Type
REMARK                         _______ _______ _______ _____ _____    ______ ____
ROOT
ATOM      1  C   UNL     1       0.055   5.245  -6.627  0.00  0.00    +0.019 A 
ATOM      2  C   UNL     1       0.745   6.074  -7.504  0.00  0.00    +0.102 A 
ATOM      3  N   UNL     1       2.085   5.915  -7.641  0.00  0.00    -0.210 NA
ATOM      4  C   UNL     1       2.782   5.507  -6.558  0.00  0.00    +0.225 A 
ATOM      5  C   UNL     1       2.137   4.637  -5.715  0.00  0.00    +0.058 A 
ATOM      6  C   UNL     1       0.790   4.354  -5.896  0.00  0.00    +0.006 A 
ENDROOT
BRANCH   1   8
ATOM      7  C   UNL     1      -2.172   6.020  -6.498  0.00  0.00    +0.000 C 
ATOM      8  C   UNL     1      -1.367   5.051  -6.939  0.00  0.00    +0.002 C 
BRANCH   7  12
ATOM      9  C   UNL     1      -2.779   6.803  -2.430  0.00  0.00    +0.065 A 
ATOM     10  C   UNL     1      -3.254   5.644  -3.033  0.00  0.00    +0.016 A 
ATOM     11  C   UNL     1      -2.662   5.308  -4.245  0.00  0.00    +0.001 A 
ATOM     12  C   UNL     1      -2.079   6.276  -5.055  0.00  0.00    +0.000 A 
ATOM     13  C   UNL     1      -2.125   7.570  -4.549  0.00  0.00    +0.001 A 
ATOM     14  C   UNL     1      -2.000   7.684  -3.169  0.00  0.00    +0.016 A 
BRANCH   9  16
ATOM     15  C   UNL     1      -1.872   7.634  -0.275  0.00  0.00    +0.135 C 
ATOM     16  N   UNL     1      -2.908   6.975  -1.027  0.00  0.00    -0.236 NA
ENDBRANCH   9  16
ENDBRANCH   7  12
ENDBRANCH   1   8
BRANCH   4  17
ATOM     17  O   UNL     1       4.095   5.915  -6.404  0.00  0.00    -0.457 OA
BRANCH  17  18
ATOM     18  C   UNL     1       4.503   6.749  -5.349  0.00  0.00    +0.239 C 
BRANCH  18  19
ATOM     19  C   UNL     1       5.118   5.983  -4.201  0.00  0.00    +0.189 C 
BRANCH  19  20
ATOM     20  O   UNL     1       4.396   6.183  -3.037  0.00  0.00    -0.347 OA
BRANCH  20  21
ATOM     21  C   UNL     1       4.019   5.012  -2.407  0.00  0.00    +0.174 C 
BRANCH  21  22
ATOM     22  C   UNL     1       3.454   5.258  -1.029  0.00  0.00    +0.174 C 
BRANCH  22  23
ATOM     23  O   UNL     1       2.340   4.433  -0.810  0.00  0.00    -0.348 OA
BRANCH  23  24
ATOM     24  C   UNL     1       1.228   5.290  -0.872  0.00  0.00    +0.180 C 
BRANCH  24  25
ATOM     25  C   UNL     1       0.497   5.153  -2.190  0.00  0.00    +0.225 C 
ATOM     26  F   UNL     1       0.892   6.137  -3.068  0.00  0.00    -0.232 F 
ENDBRANCH  24  25
ENDBRANCH  23  24
ENDBRANCH  22  23
ENDBRANCH  21  22
ENDBRANCH  20  21
ENDBRANCH  19  20
ENDBRANCH  18  19
ENDBRANCH  17  18
ENDBRANCH   4  17
TORSDOF 12
ENDMDL
MODEL 2
REMARK VINA RESULT:      -6.4      1.794      5.634
REMARK  Name = 
REMARK  12 active torsions:
REMARK  status: ('A' for Active; 'I' for Inactive)
REMARK    1  A    between atoms: N_2  and  C_3
REMARK    2  A    between atoms: C_6  and  C_7
REMARK    3  A    between atoms: C_8  and  C_9
REMARK    4  A    between atoms: C_12  and  O_13
REMARK    5  A    between atoms: O_13  and  C_14
REMARK    6  A    between atoms: C_14  and  C_15
REMARK    7  A    between atoms: C_15  and  O_16
REMARK    8  A    between atoms: O_16  and  C_17
REMARK    9  A    between atoms: C_17  and  C_18
REMARK   10  A    between atoms: C_18  and  O_19
REMARK   11  A    between atoms: O_19  and  C_20
REMARK   12  A    between atoms: C_20  and  C_21
REMARK                            x       y       z     vdW  Elec       q    Type
REMARK                         _______ _______ _______ _____ _____    ______ ____
ROOT
ATOM      1  C   UNL     1      -2.237   6.360  -5.016  0.00  0.00    +0.019 A 
ATOM      2  C   UNL     1      -2.716   5.481  -4.051  0.00  0.00    +0.102 A 
ATOM      3  N   UNL     1      -3.087   5.971  -2.843  0.00  0.00    -0.210 NA
ATOM      4  C   UNL     1      -2.417   7.045  -2.368  0.00  0.00    +0.225 A 
ATOM      5  C   UNL     1      -1.992   7.955  -3.303  0.00  0.00    +0.058 A 
ATOM      6  C   UNL     1      -2.103   7.673  -4.658  0.00  0.00    +0.006 A 
ENDROOT
BRANCH   1   8
ATOM      7  C   UNL     1      -1.549   4.983  -6.806  0.00  0.00    +0.000 C 
ATOM      8  C   UNL     1      -2.412   5.919  -6.406  0.00  0.00    +0.002 C 
BRANCH   7  12
ATOM      9  C   UNL     1       2.613   5.420  -6.958  0.00  0.00    +0.065 A 
ATOM     10  C   UNL     1       1.805   5.706  -8.053  0.00  0.00    +0.016 A 
ATOM     11  C   UNL     1       0.459   5.911  -7.772  0.00  0.00    +0.001 A 
ATOM     12  C   UNL     1      -0.135   5.352  -6.647  0.00  0.00    +0.000 A 
ATOM     13  C   UNL     1       0.717   4.606  -5.842  0.00  0.00    +0.001 A 
ATOM     14  C   UNL     1       2.024   5.071  -5.750  0.00  0.00    +0.016 A 
BRANCH   9  16
ATOM     15  C   UNL     1       4.782   5.266  -8.155  0.00  0.00    +0.135 C 
ATOM     16  N   UNL     1       4.006   5.690  -7.018  0.00  0.00    -0.236 NA
ENDBRANCH   9  16
ENDBRANCH   7  12
ENDBRANCH   1   8
BRANCH   4  17
ATOM     17  O   UNL     1      -2.267   7.200  -1.002  0.00  0.00    -0.457 OA
BRANCH  17  18
ATOM     18  C   UNL     1      -1.528   6.298  -0.219  0.00  0.00    +0.239 C 
BRANCH  18  19
ATOM     19  C   UNL     1      -0.049   6.329  -0.527  0.00  0.00    +0.189 C 
BRANCH  19  20
ATOM     20  O   UNL     1       0.338   5.180  -1.196  0.00  0.00    -0.347 OA
BRANCH  20  21
ATOM     21  C   UNL     1       1.520   5.314  -1.897  0.00  0.00    +0.174 C 
BRANCH  21  22
ATOM     22  C   UNL     1       2.709   4.797  -1.124  0.00  0.00    +0.174 C 
BRANCH  22  23
ATOM     23  O   UNL     1       3.860   4.838  -1.925  0.00  0.00    -0.348 OA
BRANCH  23  24
ATOM     24  C   UNL     1       3.977   6.177  -2.336  0.00  0.00    +0.180 C 
BRANCH  24  25
ATOM     25  C   UNL     1       4.814   6.299  -3.592  0.00  0.00    +0.225 C 
ATOM     26  F   UNL     1       5.143   5.055  -4.078  0.00  0.00    -0.232 F 
ENDBRANCH  24  25
ENDBRANCH  23  24
ENDBRANCH  22  23
ENDBRANCH  21  22
ENDBRANCH  20  21
ENDBRANCH  19  20
ENDBRANCH  18  19
ENDBRANCH  17  18
ENDBRANCH   4  17
TORSDOF 12
ENDMDL
MODEL 3
REMARK VINA RESULT:      -6.2      4.226      6.106
REMARK  Name = 
REMARK  12 active torsions:
REMARK  status: ('A' for Active; 'I' for Inactive)
REMARK    1  A    between atoms: N_2  and  C_3
REMARK    2  A    between atoms: C_6  and  C_7
REMARK    3  A    between atoms: C_8  and  C_9
REMARK    4  A    between atoms: C_12  and  O_13
REMARK    5  A    between atoms: O_13  and  C_14
REMARK    6  A    between atoms: C_14  and  C_15
REMARK    7  A    between atoms: C_15  and  O_16
REMARK    8  A    between atoms: O_16  and  C_17
REMARK    9  A    between atoms: C_17  and  C_18
REMARK   10  A    between atoms: C_18  and  O_19
REMARK   11  A    between atoms: O_19  and  C_20
REMARK   12  A    between atoms: C_20  and  C_21
REMARK                            x       y       z     vdW  Elec       q    Type
REMARK                         _______ _______ _______ _____ _____    ______ ____
ROOT
ATOM      1  C   UNL     1      -0.325   5.248  -6.798  0.00  0.00    +0.019 A 
ATOM      2  C   UNL     1       0.258   5.746  -7.958  0.00  0.00    +0.102 A 
ATOM      3  N   UNL     1       1.568   5.492  -8.196  0.00  0.00    -0.210 NA
ATOM      4  C   UNL     1       2.391   5.393  -7.129  0.00  0.00    +0.225 A 
ATOM      5  C   UNL     1       1.849   4.844  -5.994  0.00  0.00    +0.058 A 
ATOM      6  C   UNL     1       0.487   4.582  -5.924  0.00  0.00    +0.006 A 
ENDROOT
BRANCH   1   8
ATOM      7  C   UNL     1      -2.511   6.021  -6.351  0.00  0.00    +0.000 C 
ATOM      8  C   UNL     1      -1.777   5.035  -6.870  0.00  0.00    +0.002 C 
BRANCH   7  12
ATOM      9  C   UNL     1      -2.469   7.010  -2.282  0.00  0.00    +0.065 A 
ATOM     10  C   UNL     1      -3.039   5.829  -2.745  0.00  0.00    +0.016 A 
ATOM     11  C   UNL     1      -2.646   5.427  -4.016  0.00  0.00    +0.001 A 
ATOM     12  C   UNL     1      -2.192   6.347  -4.954  0.00  0.00    +0.000 A 
ATOM     13  C   UNL     1      -2.150   7.664  -4.513  0.00  0.00    +0.001 A 
ATOM     14  C   UNL     1      -1.810   7.844  -3.177  0.00  0.00    +0.016 A 
BRANCH   9  16
ATOM     15  C   UNL     1      -1.597   6.378  -0.047  0.00  0.00    +0.135 C 
ATOM     16  N   UNL     1      -2.376   7.251  -0.887  0.00  0.00    -0.236 NA
ENDBRANCH   9  16
ENDBRANCH   7  12
ENDBRANCH   1   8
BRANCH   4  17
ATOM     17  O   UNL     1       3.717   5.768  -7.259  0.00  0.00    -0.457 OA
BRANCH  17  18
ATOM     18  C   UNL     1       4.368   5.808  -8.502  0.00  0.00    +0.239 C 
BRANCH  18  19
ATOM     19  C   UNL     1       5.674   5.048  -8.506  0.00  0.00    +0.189 C 
BRANCH  19  20
ATOM     20  O   UNL     1       6.603   5.673  -9.320  0.00  0.00    -0.347 OA
BRANCH  20  21
ATOM     21  C   UNL     1       6.042   6.384 -10.363  0.00  0.00    +0.174 C 
BRANCH  21  22
ATOM     22  C   UNL     1       6.228   5.694 -11.693  0.00  0.00    +0.174 C 
BRANCH  22  23
ATOM     23  O   UNL     1       7.488   5.079 -11.745  0.00  0.00    -0.348 OA
BRANCH  23  24
ATOM     24  C   UNL     1       8.196   5.771 -12.742  0.00  0.00    +0.180 C 
BRANCH  24  25
ATOM     25  C   UNL     1       7.263   6.335 -13.793  0.00  0.00    +0.225 C 
ATOM     26  F   UNL     1       7.172   5.480 -14.868  0.00  0.00    -0.232 F 
ENDBRANCH  24  25
ENDBRANCH  23  24
ENDBRANCH  22  23
ENDBRANCH  21  22
ENDBRANCH  20  21
ENDBRANCH  19  20
ENDBRANCH  18  19
ENDBRANCH  17  18
ENDBRANCH   4  17
TORSDOF 12
ENDMDL
MODEL 4
REMARK VINA RESULT:      -6.1      2.432      6.566
REMARK  Name = 
REMARK  12 active torsions:
REMARK  status: ('A' for Active; 'I' for Inactive)
REMARK    1  A    between atoms: N_2  and  C_3
REMARK    2  A    between atoms: C_6  and  C_7
REMARK    3  A    between atoms: C_8  and  C_9
REMARK    4  A    between atoms: C_12  and  O_13
REMARK    5  A    between atoms: O_13  and  C_14
REMARK    6  A    between atoms: C_14  and  C_15
REMARK    7  A    between atoms: C_15  and  O_16
REMARK    8  A    between atoms: O_16  and  C_17
REMARK    9  A    between atoms: C_17  and  C_18
REMARK   10  A    between atoms: C_18  and  O_19
REMARK   11  A    between atoms: O_19  and  C_20
REMARK   12  A    between atoms: C_20  and  C_21
REMARK                            x       y       z     vdW  Elec       q    Type
REMARK                         _______ _______ _______ _____ _____    ______ ____
ROOT
ATOM      1  C   UNL     1       4.142   6.480  -2.890  0.00  0.00    +0.019 A 
ATOM      2  C   UNL     1       3.395   7.483  -2.280  0.00  0.00    +0.102 A 
ATOM      3  N   UNL     1       2.779   7.218  -1.102  0.00  0.00    -0.210 NA
ATOM      4  C   UNL     1       2.337   5.958  -0.895  0.00  0.00    +0.225 A 
ATOM      5  C   UNL     1       3.098   4.953  -1.436  0.00  0.00    +0.058 A 
ATOM      6  C   UNL     1       4.151   5.252  -2.290  0.00  0.00    +0.006 A 
ENDROOT
BRANCH   1   8
ATOM      7  C   UNL     1       4.792   7.481  -4.927  0.00  0.00    +0.000 C 
ATOM      8  C   UNL     1       5.214   6.951  -3.777  0.00  0.00    +0.002 C 
BRANCH   7  12
ATOM      9  C   UNL     1       2.730   5.344  -7.879  0.00  0.00    +0.065 A 
ATOM     10  C   UNL     1       4.104   5.223  -7.711  0.00  0.00    +0.016 A 
ATOM     11  C   UNL     1       4.602   5.647  -6.484  0.00  0.00    +0.001 A 
ATOM     12  C   UNL     1       3.930   6.598  -5.724  0.00  0.00    +0.000 A 
ATOM     13  C   UNL     1       2.742   7.058  -6.277  0.00  0.00    +0.001 A 
ATOM     14  C   UNL     1       2.001   6.120  -6.987  0.00  0.00    +0.016 A 
BRANCH   9  16
ATOM     15  C   UNL     1       0.998   5.054  -9.632  0.00  0.00    +0.135 C 
ATOM     16  N   UNL     1       2.056   4.517  -8.815  0.00  0.00    -0.236 NA
ENDBRANCH   9  16
ENDBRANCH   7  12
ENDBRANCH   1   8
BRANCH   4  17
ATOM     17  O   UNL     1       1.218   5.753  -0.107  0.00  0.00    -0.457 OA
BRANCH  17  18
ATOM     18  C   UNL     1       0.198   6.712   0.014  0.00  0.00    +0.239 C 
BRANCH  18  19
ATOM     19  C   UNL     1      -1.116   6.247  -0.568  0.00  0.00    +0.189 C 
BRANCH  19  20
ATOM     20  O   UNL     1      -0.922   5.182  -1.430  0.00  0.00    -0.347 OA
BRANCH  20  21
ATOM     21  C   UNL     1      -1.319   5.436  -2.729  0.00  0.00    +0.174 C 
BRANCH  21  22
ATOM     22  C   UNL     1      -0.164   5.834  -3.615  0.00  0.00    +0.174 C 
BRANCH  22  23
ATOM     23  O   UNL     1      -0.642   6.342  -4.833  0.00  0.00    -0.348 OA
BRANCH  23  24
ATOM     24  C   UNL     1      -1.906   5.753  -5.007  0.00  0.00    +0.180 C 
BRANCH  24  25
ATOM     25  C   UNL     1      -2.288   5.687  -6.471  0.00  0.00    +0.225 C 
ATOM     26  F   UNL     1      -1.382   4.927  -7.174  0.00  0.00    -0.232 F 
ENDBRANCH  24  25
ENDBRANCH  23  24
ENDBRANCH  22  23
ENDBRANCH  21  22
ENDBRANCH  20  21
ENDBRANCH  19  20
ENDBRANCH  18  19
ENDBRANCH  17  18
ENDBRANCH   4  17
TORSDOF 12
ENDMDL
MODEL 5
REMARK VINA RESULT:      -6.1      2.843      4.995
REMARK  Name = 
REMARK  12 active torsions:
REMARK  status: ('A' for Active; 'I' for Inactive)
REMARK    1  A    between atoms: N_2  and  C_3
REMARK    2  A    between atoms: C_6  and  C_7
REMARK    3  A    between atoms: C_8  and  C_9
REMARK    4  A    between atoms: C_12  and  O_13
REMARK    5  A    between atoms: O_13  and  C_14
REMARK    6  A    between atoms: C_14  and  C_15
REMARK    7  A    between atoms: C_15  and  O_16
REMARK    8  A    between atoms: O_16  and  C_17
REMARK    9  A    between atoms: C_17  and  C_18
REMARK   10  A    between atoms: C_18  and  O_19
REMARK   11  A    between atoms: O_19  and  C_20
REMARK   12  A    between atoms: C_20  and  C_21
REMARK                            x       y       z     vdW  Elec       q    Type
REMARK                         _______ _______ _______ _____ _____    ______ ____
ROOT
ATOM      1  C   UNL     1      -0.298   5.336  -6.704  0.00  0.00    +0.019 A 
ATOM      2  C   UNL     1       0.198   5.983  -7.831  0.00  0.00    +0.102 A 
ATOM      3  N   UNL     1       1.519   5.879  -8.120  0.00  0.00    -0.210 NA
ATOM      4  C   UNL     1       2.381   5.773  -7.084  0.00  0.00    +0.225 A 
ATOM      5  C   UNL     1       1.929   5.082  -5.988  0.00  0.00    +0.058 A 
ATOM      6  C   UNL     1       0.601   4.683  -5.909  0.00  0.00    +0.006 A 
ENDROOT
BRANCH   1   8
ATOM      7  C   UNL     1      -2.541   5.901  -6.229  0.00  0.00    +0.000 C 
ATOM      8  C   UNL     1      -1.724   4.989  -6.760  0.00  0.00    +0.002 C 
BRANCH   7  12
ATOM      9  C   UNL     1      -2.543   6.960  -2.177  0.00  0.00    +0.065 A 
ATOM     10  C   UNL     1      -3.112   5.773  -2.626  0.00  0.00    +0.016 A 
ATOM     11  C   UNL     1      -2.706   5.348  -3.886  0.00  0.00    +0.001 A 
ATOM     12  C   UNL     1      -2.237   6.249  -4.834  0.00  0.00    +0.000 A 
ATOM     13  C   UNL     1      -2.195   7.574  -4.415  0.00  0.00    +0.001 A 
ATOM     14  C   UNL     1      -1.870   7.775  -3.078  0.00  0.00    +0.016 A 
BRANCH   9  16
ATOM     15  C   UNL     1      -1.384   6.686  -0.000  0.00  0.00    +0.135 C 
ATOM     16  N   UNL     1      -2.465   7.225  -0.785  0.00  0.00    -0.236 NA
ENDBRANCH   9  16
ENDBRANCH   7  12
ENDBRANCH   1   8
BRANCH   4  17
ATOM     17  O   UNL     1       3.659   6.286  -7.212  0.00  0.00    -0.457 OA
BRANCH  17  18
ATOM     18  C   UNL     1       4.798   5.465  -7.248  0.00  0.00    +0.239 C 
BRANCH  18  19
ATOM     19  C   UNL     1       5.297   5.214  -8.652  0.00  0.00    +0.189 C 
BRANCH  19  20
ATOM     20  O   UNL     1       4.572   5.956  -9.569  0.00  0.00    -0.347 OA
BRANCH  20  21
ATOM     21  C   UNL     1       4.449   5.348 -10.804  0.00  0.00    +0.174 C 
BRANCH  21  22
ATOM     22  C   UNL     1       3.514   6.098 -11.722  0.00  0.00    +0.174 C 
BRANCH  22  23
ATOM     23  O   UNL     1       2.246   6.213 -11.131  0.00  0.00    -0.348 OA
BRANCH  23  24
ATOM     24  C   UNL     1       1.333   5.899 -12.152  0.00  0.00    +0.180 C 
BRANCH  24  25
ATOM     25  C   UNL     1       0.283   4.919 -11.673  0.00  0.00    +0.225 C 
ATOM     26  F   UNL     1       0.775   4.144 -10.648  0.00  0.00    -0.232 F 
ENDBRANCH  24  25
ENDBRANCH  23  24
ENDBRANCH  22  23
ENDBRANCH  21  22
ENDBRANCH  20  21
ENDBRANCH  19  20
ENDBRANCH  18  19
ENDBRANCH  17  18
ENDBRANCH   4  17
TORSDOF 12
ENDMDL
MODEL 6
REMARK VINA RESULT:      -6.0      6.195     10.691
REMARK  Name = 
REMARK  12 active torsions:
REMARK  status: ('A' for Active; 'I' for Inactive)
REMARK    1  A    between atoms: N_2  and  C_3
REMARK    2  A    between atoms: C_6  and  C_7
REMARK    3  A    between atoms: C_8  and  C_9
REMARK    4  A    between atoms: C_12  and  O_13
REMARK    5  A    between atoms: O_13  and  C_14
REMARK    6  A    between atoms: C_14  and  C_15
REMARK    7  A    between atoms: C_15  and  O_16
REMARK    8  A    between atoms: O_16  and  C_17
REMARK    9  A    between atoms: C_17  and  C_18
REMARK   10  A    between atoms: C_18  and  O_19
REMARK   11  A    between atoms: O_19  and  C_20
REMARK   12  A    between atoms: C_20  and  C_21
REMARK                            x       y       z     vdW  Elec       q    Type
REMARK                         _______ _______ _______ _____ _____    ______ ____
ROOT
ATOM      1  C   UNL     1       5.150   5.397  -8.799  0.00  0.00    +0.019 A 
ATOM      2  C   UNL     1       4.614   6.107  -7.730  0.00  0.00    +0.102 A 
ATOM      3  N   UNL     1       3.307   5.930  -7.414  0.00  0.00    -0.210 NA
ATOM      4  C   UNL     1       2.448   5.663  -8.422  0.00  0.00    +0.225 A 
ATOM      5  C   UNL     1       2.943   4.909  -9.456  0.00  0.00    +0.058 A 
ATOM      6  C   UNL     1       4.297   4.606  -9.518  0.00  0.00    +0.006 A 
ENDROOT
BRANCH   1   8
ATOM      7  C   UNL     1       7.335   6.049  -9.409  0.00  0.00    +0.000 C 
ATOM      8  C   UNL     1       6.599   5.166  -8.732  0.00  0.00    +0.002 C 
BRANCH   7  12
ATOM      9  C   UNL     1       7.192   6.530 -13.566  0.00  0.00    +0.065 A 
ATOM     10  C   UNL     1       7.873   5.473 -12.973  0.00  0.00    +0.016 A 
ATOM     11  C   UNL     1       7.522   5.192 -11.657  0.00  0.00    +0.001 A 
ATOM     12  C   UNL     1       6.985   6.171 -10.830  0.00  0.00    +0.000 A 
ATOM     13  C   UNL     1       6.817   7.416 -11.426  0.00  0.00    +0.001 A 
ATOM     14  C   UNL     1       6.458   7.399 -12.769  0.00  0.00    +0.016 A 
BRANCH   9  16
ATOM     15  C   UNL     1       6.494   7.747 -15.612  0.00  0.00    +0.135 C 
ATOM     16  N   UNL     1       7.074   6.591 -14.980  0.00  0.00    -0.236 NA
ENDBRANCH   9  16
ENDBRANCH   7  12
ENDBRANCH   1   8
BRANCH   4  17
ATOM     17  O   UNL     1       1.135   6.087  -8.324  0.00  0.00    -0.457 OA
BRANCH  17  18
ATOM     18  C   UNL     1       0.097   5.498  -9.065  0.00  0.00    +0.239 C 
BRANCH  18  19
ATOM     19  C   UNL     1      -0.058   6.103 -10.440  0.00  0.00    +0.189 C 
BRANCH  19  20
ATOM     20  O   UNL     1      -0.061   5.117 -11.412  0.00  0.00    -0.347 OA
BRANCH  20  21
ATOM     21  C   UNL     1       0.629   5.461 -12.558  0.00  0.00    +0.174 C 
BRANCH  21  22
ATOM     22  C   UNL     1       0.530   4.401 -13.628  0.00  0.00    +0.174 C 
BRANCH  22  23
ATOM     23  O   UNL     1       1.661   4.447 -14.458  0.00  0.00    -0.348 OA
BRANCH  23  24
ATOM     24  C   UNL     1       2.509   5.403 -13.874  0.00  0.00    +0.180 C 
BRANCH  24  25
ATOM     25  C   UNL     1       3.962   4.995 -13.983  0.00  0.00    +0.225 C 
ATOM     26  F   UNL     1       4.493   4.758 -12.735  0.00  0.00    -0.232 F 
ENDBRANCH  24  25
ENDBRANCH  23  24
ENDBRANCH  22  23
ENDBRANCH  21  22
ENDBRANCH  20  21
ENDBRANCH  19  20
ENDBRANCH  18  19
ENDBRANCH  17  18
ENDBRANCH   4  17
TORSDOF 12
ENDMDL
MODEL 7
REMARK VINA RESULT:      -5.9      5.034      8.888
REMARK  Name = 
REMARK  12 active torsions:
REMARK  status: ('A' for Active; 'I' for Inactive)
REMARK    1  A    between atoms: N_2  and  C_3
REMARK    2  A    between atoms: C_6  and  C_7
REMARK    3  A    between atoms: C_8  and  C_9
REMARK    4  A    between atoms: C_12  and  O_13
REMARK    5  A    between atoms: O_13  and  C_14
REMARK    6  A    between atoms: C_14  and  C_15
REMARK    7  A    between atoms: C_15  and  O_16
REMARK    8  A    between atoms: O_16  and  C_17
REMARK    9  A    between atoms: C_17  and  C_18
REMARK   10  A    between atoms: C_18  and  O_19
REMARK   11  A    between atoms: O_19  and  C_20
REMARK   12  A    between atoms: C_20  and  C_21
REMARK                            x       y       z     vdW  Elec       q    Type
REMARK                         _______ _______ _______ _____ _____    ______ ____
ROOT
ATOM      1  C   UNL     1       5.243   5.401  -8.787  0.00  0.00    +0.019 A 
ATOM      2  C   UNL     1       4.681   5.790  -7.576  0.00  0.00    +0.102 A 
ATOM      3  N   UNL     1       3.380   5.499  -7.332  0.00  0.00    -0.210 NA
ATOM      4  C   UNL     1       2.533   5.480  -8.385  0.00  0.00    +0.225 A 
ATOM      5  C   UNL     1       3.055   5.037  -9.574  0.00  0.00    +0.058 A 
ATOM      6  C   UNL     1       4.418   4.801  -9.697  0.00  0.00    +0.006 A 
ENDROOT
BRANCH   1   8
ATOM      7  C   UNL     1       7.391   6.083  -9.489  0.00  0.00    +0.000 C 
ATOM      8  C   UNL     1       6.698   5.202  -8.765  0.00  0.00    +0.002 C 
BRANCH   7  12
ATOM      9  C   UNL     1       7.084   6.499 -13.645  0.00  0.00    +0.065 A 
ATOM     10  C   UNL     1       7.857   5.501 -13.062  0.00  0.00    +0.016 A 
ATOM     11  C   UNL     1       7.569   5.213 -11.733  0.00  0.00    +0.001 A 
ATOM     12  C   UNL     1       6.988   6.161 -10.900  0.00  0.00    +0.000 A 
ATOM     13  C   UNL     1       6.712   7.383 -11.503  0.00  0.00    +0.001 A 
ATOM     14  C   UNL     1       6.314   7.323 -12.834  0.00  0.00    +0.016 A 
BRANCH   9  16
ATOM     15  C   UNL     1       6.473   7.737 -15.706  0.00  0.00    +0.135 C 
ATOM     16  N   UNL     1       6.918   6.532 -15.054  0.00  0.00    -0.236 NA
ENDBRANCH   9  16
ENDBRANCH   7  12
ENDBRANCH   1   8
BRANCH   4  17
ATOM     17  O   UNL     1       1.207   5.825  -8.195  0.00  0.00    -0.457 OA
BRANCH  17  18
ATOM     18  C   UNL     1       0.656   6.015  -6.917  0.00  0.00    +0.239 C 
BRANCH  18  19
ATOM     19  C   UNL     1       0.514   4.726  -6.142  0.00  0.00    +0.189 C 
BRANCH  19  20
ATOM     20  O   UNL     1       0.972   4.881  -4.844  0.00  0.00    -0.347 OA
BRANCH  20  21
ATOM     21  C   UNL     1       0.799   6.156  -4.341  0.00  0.00    +0.174 C 
BRANCH  21  22
ATOM     22  C   UNL     1       1.975   6.609  -3.510  0.00  0.00    +0.174 C 
BRANCH  22  23
ATOM     23  O   UNL     1       3.091   6.829  -4.332  0.00  0.00    -0.348 OA
BRANCH  23  24
ATOM     24  C   UNL     1       4.200   6.445  -3.560  0.00  0.00    +0.180 C 
BRANCH  24  25
ATOM     25  C   UNL     1       4.348   4.940  -3.514  0.00  0.00    +0.225 C 
ATOM     26  F   UNL     1       5.157   4.501  -4.537  0.00  0.00    -0.232 F 
ENDBRANCH  24  25
ENDBRANCH  23  24
ENDBRANCH  22  23
ENDBRANCH  21  22
ENDBRANCH  20  21
ENDBRANCH  19  20
ENDBRANCH  18  19
ENDBRANCH  17  18
ENDBRANCH   4  17
TORSDOF 12
ENDMDL
MODEL 8
REMARK VINA RESULT:      -5.8      3.503      7.217
REMARK  Name = 
REMARK  12 active torsions:
REMARK  status: ('A' for Active; 'I' for Inactive)
REMARK    1  A    between atoms: N_2  and  C_3
REMARK    2  A    between atoms: C_6  and  C_7
REMARK    3  A    between atoms: C_8  and  C_9
REMARK    4  A    between atoms: C_12  and  O_13
REMARK    5  A    between atoms: O_13  and  C_14
REMARK    6  A    between atoms: C_14  and  C_15
REMARK    7  A    between atoms: C_15  and  O_16
REMARK    8  A    between atoms: O_16  and  C_17
REMARK    9  A    between atoms: C_17  and  C_18
REMARK   10  A    between atoms: C_18  and  O_19
REMARK   11  A    between atoms: O_19  and  C_20
REMARK   12  A    between atoms: C_20  and  C_21
REMARK                            x       y       z     vdW  Elec       q    Type
REMARK                         _______ _______ _______ _____ _____    ______ ____
ROOT
ATOM      1  C   UNL     1       2.828   6.431  -7.234  0.00  0.00    +0.019 A 
ATOM      2  C   UNL     1       2.386   5.176  -6.832  0.00  0.00    +0.102 A 
ATOM      3  N   UNL     1       2.389   4.870  -5.512  0.00  0.00    -0.210 NA
ATOM      4  C   UNL     1       3.357   5.417  -4.744  0.00  0.00    +0.225 A 
ATOM      5  C   UNL     1       3.761   6.682  -5.088  0.00  0.00    +0.058 A 
ATOM      6  C   UNL     1       3.311   7.266  -6.265  0.00  0.00    +0.006 A 
ENDROOT
BRANCH   1   8
ATOM      7  C   UNL     1       2.803   6.343  -9.593  0.00  0.00    +0.000 C 
ATOM      8  C   UNL     1       2.275   6.911  -8.508  0.00  0.00    +0.002 C 
BRANCH   7  12
ATOM      9  C   UNL     1       6.853   6.321 -10.659  0.00  0.00    +0.065 A 
ATOM     10  C   UNL     1       5.920   7.095 -11.339  0.00  0.00    +0.016 A 
ATOM     11  C   UNL     1       4.727   7.331 -10.666  0.00  0.00    +0.001 A 
ATOM     12  C   UNL     1       4.265   6.456  -9.689  0.00  0.00    +0.000 A 
ATOM     13  C   UNL     1       5.090   5.366  -9.440  0.00  0.00    +0.001 A 
ATOM     14  C   UNL     1       6.456   5.607  -9.535  0.00  0.00    +0.016 A 
BRANCH   9  16
ATOM     15  C   UNL     1       8.748   5.833 -12.185  0.00  0.00    +0.135 C 
ATOM     16  N   UNL     1       8.231   6.430 -10.980  0.00  0.00    -0.236 NA
ENDBRANCH   9  16
ENDBRANCH   7  12
ENDBRANCH   1   8
BRANCH   4  17
ATOM     17  O   UNL     1       3.820   4.723  -3.640  0.00  0.00    -0.457 OA
BRANCH  17  18
ATOM     18  C   UNL     1       4.069   5.350  -2.408  0.00  0.00    +0.239 C 
BRANCH  18  19
ATOM     19  C   UNL     1       3.676   4.496  -1.225  0.00  0.00    +0.189 C 
BRANCH  19  20
ATOM     20  O   UNL     1       2.748   5.151  -0.434  0.00  0.00    -0.347 OA
BRANCH  20  21
ATOM     21  C   UNL     1       1.879   5.955  -1.145  0.00  0.00    +0.174 C 
BRANCH  21  22
ATOM     22  C   UNL     1       0.490   5.368  -1.227  0.00  0.00    +0.174 C 
BRANCH  22  23
ATOM     23  O   UNL     1       0.268   4.831  -2.504  0.00  0.00    -0.348 OA
BRANCH  23  24
ATOM     24  C   UNL     1      -0.921   5.428  -2.954  0.00  0.00    +0.180 C 
BRANCH  24  25
ATOM     25  C   UNL     1      -1.833   5.784  -1.800  0.00  0.00    +0.225 C 
ATOM     26  F   UNL     1      -3.149   5.560  -2.136  0.00  0.00    -0.232 F 
ENDBRANCH  24  25
ENDBRANCH  23  24
ENDBRANCH  22  23
ENDBRANCH  21  22
ENDBRANCH  20  21
ENDBRANCH  19  20
ENDBRANCH  18  19
ENDBRANCH  17  18
ENDBRANCH   4  17
TORSDOF 12
ENDMDL
MODEL 9
REMARK VINA RESULT:      -5.8      3.683      7.410
REMARK  Name = 
REMARK  12 active torsions:
REMARK  status: ('A' for Active; 'I' for Inactive)
REMARK    1  A    between atoms: N_2  and  C_3
REMARK    2  A    between atoms: C_6  and  C_7
REMARK    3  A    between atoms: C_8  and  C_9
REMARK    4  A    between atoms: C_12  and  O_13
REMARK    5  A    between atoms: O_13  and  C_14
REMARK    6  A    between atoms: C_14  and  C_15
REMARK    7  A    between atoms: C_15  and  O_16
REMARK    8  A    between atoms: O_16  and  C_17
REMARK    9  A    between atoms: C_17  and  C_18
REMARK   10  A    between atoms: C_18  and  O_19
REMARK   11  A    between atoms: O_19  and  C_20
REMARK   12  A    between atoms: C_20  and  C_21
REMARK                            x       y       z     vdW  Elec       q    Type
REMARK                         _______ _______ _______ _____ _____    ______ ____
ROOT
ATOM      1  C   UNL     1       1.403   6.409  -8.772  0.00  0.00    +0.019 A 
ATOM      2  C   UNL     1       0.544   5.585  -8.053  0.00  0.00    +0.102 A 
ATOM      3  N   UNL     1       0.194   5.942  -6.793  0.00  0.00    -0.210 NA
ATOM      4  C   UNL     1       1.105   6.615  -6.056  0.00  0.00    +0.225 A 
ATOM      5  C   UNL     1       1.919   7.480  -6.742  0.00  0.00    +0.058 A 
ATOM      6  C   UNL     1       1.903   7.507  -8.130  0.00  0.00    +0.006 A 
ENDROOT
BRANCH   1   8
ATOM      7  C   UNL     1       2.161   5.502 -10.816  0.00  0.00    +0.000 C 
ATOM      8  C   UNL     1       1.280   6.317 -10.233  0.00  0.00    +0.002 C 
BRANCH   7  12
ATOM      9  C   UNL     1       6.332   5.800 -10.596  0.00  0.00    +0.065 A 
ATOM     10  C   UNL     1       5.630   6.159 -11.741  0.00  0.00    +0.016 A 
ATOM     11  C   UNL     1       4.272   6.399 -11.566  0.00  0.00    +0.001 A 
ATOM     12  C   UNL     1       3.566   5.814 -10.521  0.00  0.00    +0.000 A 
ATOM     13  C   UNL     1       4.322   5.006  -9.681  0.00  0.00    +0.001 A 
ATOM     14  C   UNL     1       5.630   5.422  -9.459  0.00  0.00    +0.016 A 
BRANCH   9  16
ATOM     15  C   UNL     1       8.573   5.740 -11.660  0.00  0.00    +0.135 C 
ATOM     16  N   UNL     1       7.732   6.024 -10.525  0.00  0.00    -0.236 NA
ENDBRANCH   9  16
ENDBRANCH   7  12
ENDBRANCH   1   8
BRANCH   4  17
ATOM     17  O   UNL     1       1.115   6.456  -4.681  0.00  0.00    -0.457 OA
BRANCH  17  18
ATOM     18  C   UNL     1       0.862   5.219  -4.066  0.00  0.00    +0.239 C 
BRANCH  18  19
ATOM     19  C   UNL     1       0.883   5.298  -2.558  0.00  0.00    +0.189 C 
BRANCH  19  20
ATOM     20  O   UNL     1      -0.308   4.834  -2.026  0.00  0.00    -0.347 OA
BRANCH  20  21
ATOM     21  C   UNL     1      -0.994   5.778  -1.286  0.00  0.00    +0.174 C 
BRANCH  21  22
ATOM     22  C   UNL     1      -2.408   5.975  -1.775  0.00  0.00    +0.174 C 
BRANCH  22  23
ATOM     23  O   UNL     1      -2.477   7.099  -2.613  0.00  0.00    -0.348 OA
BRANCH  23  24
ATOM     24  C   UNL     1      -2.729   6.588  -3.897  0.00  0.00    +0.180 C 
BRANCH  24  25
ATOM     25  C   UNL     1      -2.356   7.585  -4.973  0.00  0.00    +0.225 C 
ATOM     26  F   UNL     1      -1.565   8.584  -4.454  0.00  0.00    -0.232 F 
ENDBRANCH  24  25
ENDBRANCH  23  24
ENDBRANCH  22  23
ENDBRANCH  21  22
ENDBRANCH  20  21
ENDBRANCH  19  20
ENDBRANCH  18  19
ENDBRANCH  17  18
ENDBRANCH   4  17
TORSDOF 12
ENDMDL
