MODEL 1
REMARK VINA RESULT:      -6.1      0.000      0.000
REMARK  Name = 
REMARK  5 active torsions:
REMARK  status: ('A' for Active; 'I' for Inactive)
REMARK    1  A    between atoms: C_2  and  C_3
REMARK    2  A    between atoms: C_3  and  C_4
REMARK    3  A    between atoms: C_4  and  C_5
REMARK    4  A    between atoms: C_5  and  C_7
REMARK    5  A    between atoms: C_7  and  C_8
REMARK                            x       y       z     vdW  Elec       q    Type
REMARK                         _______ _______ _______ _____ _____    ______ ____
ROOT
ATOM      1  C   UNL     1       1.488   5.496  -8.236  0.00  0.00    +0.145 C 
ATOM      2  C   UNL     1       1.996   6.642  -7.524  0.00  0.00    +0.257 C 
ATOM      3  O   UNL     1       1.743   7.842  -7.835  0.00  0.00    -0.272 OA
ATOM      4  N   UNL     1       2.589   6.458  -6.230  0.00  0.00    -0.125 NA
ATOM      5  C   UNL     1       2.518   5.212  -5.537  0.00  0.00    +0.352 C 
ATOM      6  O   UNL     1       2.889   5.060  -4.340  0.00  0.00    -0.248 OA
ATOM      7  N   UNL     1       2.320   4.075  -6.387  0.00  0.00    -0.125 NA
ATOM      8  C   UNL     1       2.117   4.253  -7.772  0.00  0.00    +0.257 C 
ATOM      9  O   UNL     1       2.642   3.391  -8.543  0.00  0.00    -0.272 OA
ENDROOT
BRANCH   1  10
ATOM     10  C   UNL     1       1.896   5.604  -9.834  0.00  0.00    +0.017 C 
ATOM     11  C   UNL     1       0.688   4.561 -10.281  0.00  0.00    +0.001 C 
BRANCH  10  12
ATOM     12  C   UNL     1       0.941   6.926 -10.133  0.00  0.00    +0.001 C 
BRANCH  12  13
ATOM     13  C   UNL     1       0.437   6.735 -11.543  0.00  0.00    +0.000 C 
ATOM     14  C   UNL     1      -0.756   7.666 -11.734  0.00  0.00    +0.000 C 
ENDBRANCH  12  13
ENDBRANCH  10  12
ENDBRANCH   1  10
BRANCH   1  15
ATOM     15  C   UNL     1      -0.014   5.444  -8.236  0.00  0.00    +0.044 C 
BRANCH  15  17
ATOM     16  C   UNL     1      -1.708   5.477  -6.522  0.00  0.00    -0.005 C 
ATOM     17  C   UNL     1      -0.560   5.492  -6.847  0.00  0.00    -0.025 C 
ENDBRANCH  15  17
ENDBRANCH   1  15
TORSDOF 5
ENDMDL
MODEL 2
REMARK VINA RESULT:      -5.9      2.407      5.267
REMARK  Name = 
REMARK  5 active torsions:
REMARK  status: ('A' for Active; 'I' for Inactive)
REMARK    1  A    between atoms: C_2  and  C_3
REMARK    2  A    between atoms: C_3  and  C_4
REMARK    3  A    between atoms: C_4  and  C_5
REMARK    4  A    between atoms: C_5  and  C_7
REMARK    5  A    between atoms: C_7  and  C_8
REMARK                            x       y       z     vdW  Elec       q    Type
REMARK                         _______ _______ _______ _____ _____    ______ ____
ROOT
ATOM      1  C   UNL     1       3.132   5.630  -6.932  0.00  0.00    +0.145 C 
ATOM      2  C   UNL     1       2.465   6.695  -7.639  0.00  0.00    +0.257 C 
ATOM      3  O   UNL     1       2.674   7.925  -7.433  0.00  0.00    -0.272 OA
ATOM      4  N   UNL     1       1.732   6.392  -8.835  0.00  0.00    -0.125 NA
ATOM      5  C   UNL     1       1.800   5.110  -9.459  0.00  0.00    +0.352 C 
ATOM      6  O   UNL     1       1.295   4.858 -10.588  0.00  0.00    -0.248 OA
ATOM      7  N   UNL     1       2.175   4.044  -8.576  0.00  0.00    -0.125 NA
ATOM      8  C   UNL     1       2.534   4.324  -7.240  0.00  0.00    +0.257 C 
ATOM      9  O   UNL     1       2.166   3.486  -6.361  0.00  0.00    -0.272 OA
ENDROOT
BRANCH   1  10
ATOM     10  C   UNL     1       2.916   5.819  -5.305  0.00  0.00    +0.017 C 
ATOM     11  C   UNL     1       4.194   4.824  -4.953  0.00  0.00    +0.001 C 
BRANCH  10  12
ATOM     12  C   UNL     1       3.867   7.172  -5.194  0.00  0.00    +0.001 C 
BRANCH  12  13
ATOM     13  C   UNL     1       4.605   7.027  -3.885  0.00  0.00    +0.000 C 
ATOM     14  C   UNL     1       3.932   7.950  -2.874  0.00  0.00    +0.000 C 
ENDBRANCH  12  13
ENDBRANCH  10  12
ENDBRANCH   1  10
BRANCH   1  15
ATOM     15  C   UNL     1       4.622   5.666  -7.119  0.00  0.00    +0.044 C 
BRANCH  15  17
ATOM     16  C   UNL     1       5.661   5.624  -9.294  0.00  0.00    -0.005 C 
ATOM     17  C   UNL     1       5.019   5.092  -8.440  0.00  0.00    -0.025 C 
ENDBRANCH  15  17
ENDBRANCH   1  15
TORSDOF 5
ENDMDL
MODEL 3
REMARK VINA RESULT:      -5.8      2.573      4.179
REMARK  Name = 
REMARK  5 active torsions:
REMARK  status: ('A' for Active; 'I' for Inactive)
REMARK    1  A    between atoms: C_2  and  C_3
REMARK    2  A    between atoms: C_3  and  C_4
REMARK    3  A    between atoms: C_4  and  C_5
REMARK    4  A    between atoms: C_5  and  C_7
REMARK    5  A    between atoms: C_7  and  C_8
REMARK                            x       y       z     vdW  Elec       q    Type
REMARK                         _______ _______ _______ _____ _____    ______ ____
ROOT
ATOM      1  C   UNL     1       2.437   5.707  -7.378  0.00  0.00    +0.145 C 
ATOM      2  C   UNL     1       2.626   6.938  -8.104  0.00  0.00    +0.257 C 
ATOM      3  O   UNL     1       2.120   8.048  -7.767  0.00  0.00    -0.272 OA
ATOM      4  N   UNL     1       3.655   7.014  -9.101  0.00  0.00    -0.125 NA
ATOM      5  C   UNL     1       4.627   5.981  -9.264  0.00  0.00    +0.352 C 
ATOM      6  O   UNL     1       5.632   6.084 -10.020  0.00  0.00    -0.248 OA
ATOM      7  N   UNL     1       4.208   4.696  -8.783  0.00  0.00    -0.125 NA
ATOM      8  C   UNL     1       2.970   4.557  -8.121  0.00  0.00    +0.257 C 
ATOM      9  O   UNL     1       2.316   3.493  -8.347  0.00  0.00    -0.272 OA
ENDROOT
BRANCH   1  10
ATOM     10  C   UNL     1       0.822   5.394  -7.218  0.00  0.00    +0.017 C 
ATOM     11  C   UNL     1       1.085   4.320  -5.984  0.00  0.00    +0.001 C 
BRANCH  10  12
ATOM     12  C   UNL     1       0.544   6.634  -6.153  0.00  0.00    +0.001 C 
BRANCH  12  13
ATOM     13  C   UNL     1      -0.835   6.372  -5.597  0.00  0.00    +0.000 C 
ATOM     14  C   UNL     1      -1.249   7.604  -4.799  0.00  0.00    +0.000 C 
ENDBRANCH  12  13
ENDBRANCH  10  12
ENDBRANCH   1  10
BRANCH   1  15
ATOM     15  C   UNL     1       2.943   5.794  -5.965  0.00  0.00    +0.044 C 
BRANCH  15  17
ATOM     16  C   UNL     1       4.749   7.016  -4.938  0.00  0.00    -0.005 C 
ATOM     17  C   UNL     1       4.249   6.517  -5.899  0.00  0.00    -0.025 C 
ENDBRANCH  15  17
ENDBRANCH   1  15
TORSDOF 5
ENDMDL
MODEL 4
REMARK VINA RESULT:      -5.8      1.453      2.450
REMARK  Name = 
REMARK  5 active torsions:
REMARK  status: ('A' for Active; 'I' for Inactive)
REMARK    1  A    between atoms: C_2  and  C_3
REMARK    2  A    between atoms: C_3  and  C_4
REMARK    3  A    between atoms: C_4  and  C_5
REMARK    4  A    between atoms: C_5  and  C_7
REMARK    5  A    between atoms: C_7  and  C_8
REMARK                            x       y       z     vdW  Elec       q    Type
REMARK                         _______ _______ _______ _____ _____    ______ ____
ROOT
ATOM      1  C   UNL     1       1.592   5.934  -7.674  0.00  0.00    +0.145 C 
ATOM      2  C   UNL     1       2.280   7.150  -7.316  0.00  0.00    +0.257 C 
ATOM      3  O   UNL     1       2.266   8.206  -8.012  0.00  0.00    -0.272 OA
ATOM      4  N   UNL     1       2.780   7.305  -5.980  0.00  0.00    -0.125 NA
ATOM      5  C   UNL     1       2.452   6.386  -4.939  0.00  0.00    +0.352 C 
ATOM      6  O   UNL     1       2.745   6.575  -3.725  0.00  0.00    -0.248 OA
ATOM      7  N   UNL     1       2.077   5.081  -5.400  0.00  0.00    -0.125 NA
ATOM      8  C   UNL     1       1.961   4.826  -6.783  0.00  0.00    +0.257 C 
ATOM      9  O   UNL     1       2.343   3.686  -7.189  0.00  0.00    -0.272 OA
ENDROOT
BRANCH   1  10
ATOM     10  C   UNL     1       2.072   5.444  -9.178  0.00  0.00    +0.017 C 
ATOM     11  C   UNL     1       1.153   6.606  -9.921  0.00  0.00    +0.001 C 
BRANCH  10  12
ATOM     12  C   UNL     1       3.420   6.407  -9.216  0.00  0.00    +0.001 C 
BRANCH  12  13
ATOM     13  C   UNL     1       4.545   5.493  -9.637  0.00  0.00    +0.000 C 
ATOM     14  C   UNL     1       5.396   5.212  -8.402  0.00  0.00    +0.000 C 
ENDBRANCH  12  13
ENDBRANCH  10  12
ENDBRANCH   1  10
BRANCH   1  15
ATOM     15  C   UNL     1       0.108   6.133  -7.801  0.00  0.00    +0.044 C 
BRANCH  15  17
ATOM     16  C   UNL     1      -1.771   5.374  -6.496  0.00  0.00    -0.005 C 
ATOM     17  C   UNL     1      -0.641   5.248  -6.859  0.00  0.00    -0.025 C 
ENDBRANCH  15  17
ENDBRANCH   1  15
TORSDOF 5
ENDMDL
MODEL 5
REMARK VINA RESULT:      -5.8      2.151      3.128
REMARK  Name = 
REMARK  5 active torsions:
REMARK  status: ('A' for Active; 'I' for Inactive)
REMARK    1  A    between atoms: C_2  and  C_3
REMARK    2  A    between atoms: C_3  and  C_4
REMARK    3  A    between atoms: C_4  and  C_5
REMARK    4  A    between atoms: C_5  and  C_7
REMARK    5  A    between atoms: C_7  and  C_8
REMARK                            x       y       z     vdW  Elec       q    Type
REMARK                         _______ _______ _______ _____ _____    ______ ____
ROOT
ATOM      1  C   UNL     1       2.080   5.635  -7.805  0.00  0.00    +0.145 C 
ATOM      2  C   UNL     1       1.734   6.953  -7.335  0.00  0.00    +0.257 C 
ATOM      3  O   UNL     1       2.129   8.027  -7.875  0.00  0.00    -0.272 OA
ATOM      4  N   UNL     1       0.666   7.103  -6.388  0.00  0.00    -0.125 NA
ATOM      5  C   UNL     1      -0.194   6.018  -6.043  0.00  0.00    +0.352 C 
ATOM      6  O   UNL     1      -1.233   6.151  -5.337  0.00  0.00    -0.248 OA
ATOM      7  N   UNL     1       0.377   4.720  -6.258  0.00  0.00    -0.125 NA
ATOM      8  C   UNL     1       1.647   4.597  -6.860  0.00  0.00    +0.257 C 
ATOM      9  O   UNL     1       2.402   3.677  -6.421  0.00  0.00    -0.272 OA
ENDROOT
BRANCH   1  10
ATOM     10  C   UNL     1       3.724   5.481  -7.875  0.00  0.00    +0.017 C 
ATOM     11  C   UNL     1       3.625   4.199  -8.921  0.00  0.00    +0.001 C 
BRANCH  10  12
ATOM     12  C   UNL     1       3.912   6.555  -9.124  0.00  0.00    +0.001 C 
BRANCH  12  13
ATOM     13  C   UNL     1       5.178   6.125  -9.825  0.00  0.00    +0.000 C 
ATOM     14  C   UNL     1       5.486   7.167 -10.896  0.00  0.00    +0.000 C 
ENDBRANCH  12  13
ENDBRANCH  10  12
ENDBRANCH   1  10
BRANCH   1  15
ATOM     15  C   UNL     1       1.621   5.392  -9.215  0.00  0.00    +0.044 C 
BRANCH  15  17
ATOM     16  C   UNL     1      -0.160   6.409 -10.481  0.00  0.00    -0.005 C 
ATOM     17  C   UNL     1       0.268   5.978  -9.455  0.00  0.00    -0.025 C 
ENDBRANCH  15  17
ENDBRANCH   1  15
TORSDOF 5
ENDMDL
MODEL 6
REMARK VINA RESULT:      -5.7      1.925      4.794
REMARK  Name = 
REMARK  5 active torsions:
REMARK  status: ('A' for Active; 'I' for Inactive)
REMARK    1  A    between atoms: C_2  and  C_3
REMARK    2  A    between atoms: C_3  and  C_4
REMARK    3  A    between atoms: C_4  and  C_5
REMARK    4  A    between atoms: C_5  and  C_7
REMARK    5  A    between atoms: C_7  and  C_8
REMARK                            x       y       z     vdW  Elec       q    Type
REMARK                         _______ _______ _______ _____ _____    ______ ____
ROOT
ATOM      1  C   UNL     1       1.596   6.240  -6.596  0.00  0.00    +0.145 C 
ATOM      2  C   UNL     1       2.052   4.908  -6.906  0.00  0.00    +0.257 C 
ATOM      3  O   UNL     1       2.228   3.998  -6.045  0.00  0.00    -0.272 OA
ATOM      4  N   UNL     1       2.046   4.464  -8.271  0.00  0.00    -0.125 NA
ATOM      5  C   UNL     1       1.423   5.221  -9.308  0.00  0.00    +0.352 C 
ATOM      6  O   UNL     1       1.264   4.790 -10.484  0.00  0.00    -0.248 OA
ATOM      7  N   UNL     1       1.299   6.621  -9.025  0.00  0.00    -0.125 NA
ATOM      8  C   UNL     1       1.687   7.125  -7.765  0.00  0.00    +0.257 C 
ATOM      9  O   UNL     1       2.244   8.265  -7.750  0.00  0.00    -0.272 OA
ENDROOT
BRANCH   1  10
ATOM     10  C   UNL     1       2.594   6.924  -5.470  0.00  0.00    +0.017 C 
ATOM     11  C   UNL     1       1.953   6.007  -4.248  0.00  0.00    +0.001 C 
BRANCH  10  12
ATOM     12  C   UNL     1       3.830   5.845  -5.706  0.00  0.00    +0.001 C 
BRANCH  12  13
ATOM     13  C   UNL     1       4.708   5.982  -4.485  0.00  0.00    +0.000 C 
ATOM     14  C   UNL     1       5.240   7.411  -4.460  0.00  0.00    +0.000 C 
ENDBRANCH  12  13
ENDBRANCH  10  12
ENDBRANCH   1  10
BRANCH   1  15
ATOM     15  C   UNL     1       0.241   6.243  -5.945  0.00  0.00    +0.044 C 
BRANCH  15  17
ATOM     16  C   UNL     1      -1.930   5.425  -6.599  0.00  0.00    -0.005 C 
ATOM     17  C   UNL     1      -0.746   5.453  -6.742  0.00  0.00    -0.025 C 
ENDBRANCH  15  17
ENDBRANCH   1  15
TORSDOF 5
ENDMDL
MODEL 7
REMARK VINA RESULT:      -5.7      1.742      4.519
REMARK  Name = 
REMARK  5 active torsions:
REMARK  status: ('A' for Active; 'I' for Inactive)
REMARK    1  A    between atoms: C_2  and  C_3
REMARK    2  A    between atoms: C_3  and  C_4
REMARK    3  A    between atoms: C_4  and  C_5
REMARK    4  A    between atoms: C_5  and  C_7
REMARK    5  A    between atoms: C_7  and  C_8
REMARK                            x       y       z     vdW  Elec       q    Type
REMARK                         _______ _______ _______ _____ _____    ______ ____
ROOT
ATOM      1  C   UNL     1       1.394   5.948  -7.599  0.00  0.00    +0.145 C 
ATOM      2  C   UNL     1       2.256   4.817  -7.358  0.00  0.00    +0.257 C 
ATOM      3  O   UNL     1       1.940   3.822  -6.643  0.00  0.00    -0.272 OA
ATOM      4  N   UNL     1       3.421   4.636  -8.175  0.00  0.00    -0.125 NA
ATOM      5  C   UNL     1       3.655   5.424  -9.343  0.00  0.00    +0.352 C 
ATOM      6  O   UNL     1       4.583   5.190 -10.166  0.00  0.00    -0.248 OA
ATOM      7  N   UNL     1       2.989   6.693  -9.341  0.00  0.00    -0.125 NA
ATOM      8  C   UNL     1       2.109   7.029  -8.290  0.00  0.00    +0.257 C 
ATOM      9  O   UNL     1       2.114   8.238  -7.903  0.00  0.00    -0.272 OA
ENDROOT
BRANCH   1  10
ATOM     10  C   UNL     1       0.923   6.607  -6.159  0.00  0.00    +0.017 C 
ATOM     11  C   UNL     1      -0.180   5.399  -5.891  0.00  0.00    +0.001 C 
BRANCH  10  12
ATOM     12  C   UNL     1       2.079   5.826  -5.262  0.00  0.00    +0.001 C 
BRANCH  12  13
ATOM     13  C   UNL     1       2.727   6.907  -4.431  0.00  0.00    +0.000 C 
ATOM     14  C   UNL     1       4.121   7.150  -4.999  0.00  0.00    +0.000 C 
ENDBRANCH  12  13
ENDBRANCH  10  12
ENDBRANCH   1  10
BRANCH   1  15
ATOM     15  C   UNL     1       0.108   5.554  -8.269  0.00  0.00    +0.044 C 
BRANCH  15  17
ATOM     16  C   UNL     1       0.144   4.718 -10.530  0.00  0.00    -0.005 C 
ATOM     17  C   UNL     1       0.227   5.623  -9.756  0.00  0.00    -0.025 C 
ENDBRANCH  15  17
ENDBRANCH   1  15
TORSDOF 5
ENDMDL
MODEL 8
REMARK VINA RESULT:      -5.6      3.483      5.180
REMARK  Name = 
REMARK  5 active torsions:
REMARK  status: ('A' for Active; 'I' for Inactive)
REMARK    1  A    between atoms: C_2  and  C_3
REMARK    2  A    between atoms: C_3  and  C_4
REMARK    3  A    between atoms: C_4  and  C_5
REMARK    4  A    between atoms: C_5  and  C_7
REMARK    5  A    between atoms: C_7  and  C_8
REMARK                            x       y       z     vdW  Elec       q    Type
REMARK                         _______ _______ _______ _____ _____    ______ ____
ROOT
ATOM      1  C   UNL     1       3.560   5.831 -10.242  0.00  0.00    +0.145 C 
ATOM      2  C   UNL     1       3.163   4.679  -9.470  0.00  0.00    +0.257 C 
ATOM      3  O   UNL     1       3.788   4.255  -8.454  0.00  0.00    -0.272 OA
ATOM      4  N   UNL     1       1.851   4.129  -9.655  0.00  0.00    -0.125 NA
ATOM      5  C   UNL     1       0.855   4.795 -10.430  0.00  0.00    +0.352 C 
ATOM      6  O   UNL     1      -0.349   4.419 -10.486  0.00  0.00    -0.248 OA
ATOM      7  N   UNL     1       1.378   5.705 -11.406  0.00  0.00    -0.125 NA
ATOM      8  C   UNL     1       2.766   5.952 -11.471  0.00  0.00    +0.257 C 
ATOM      9  O   UNL     1       3.267   6.107 -12.627  0.00  0.00    -0.272 OA
ENDROOT
BRANCH   1  10
ATOM     10  C   UNL     1       5.117   5.645 -10.762  0.00  0.00    +0.017 C 
ATOM     11  C   UNL     1       5.328   7.281 -10.923  0.00  0.00    +0.001 C 
BRANCH  10  12
ATOM     12  C   UNL     1       5.775   5.655  -9.240  0.00  0.00    +0.001 C 
BRANCH  12  13
ATOM     13  C   UNL     1       7.166   6.216  -9.417  0.00  0.00    +0.000 C 
ATOM     14  C   UNL     1       8.080   5.060  -9.810  0.00  0.00    +0.000 C 
ENDBRANCH  12  13
ENDBRANCH  10  12
ENDBRANCH   1  10
BRANCH   1  15
ATOM     15  C   UNL     1       3.588   7.088  -9.419  0.00  0.00    +0.044 C 
BRANCH  15  17
ATOM     16  C   UNL     1       2.274   7.585  -7.460  0.00  0.00    -0.005 C 
ATOM     17  C   UNL     1       2.349   7.226  -8.595  0.00  0.00    -0.025 C 
ENDBRANCH  15  17
ENDBRANCH   1  15
TORSDOF 5
ENDMDL
MODEL 9
REMARK VINA RESULT:      -5.6      1.920      3.712
REMARK  Name = 
REMARK  5 active torsions:
REMARK  status: ('A' for Active; 'I' for Inactive)
REMARK    1  A    between atoms: C_2  and  C_3
REMARK    2  A    between atoms: C_3  and  C_4
REMARK    3  A    between atoms: C_4  and  C_5
REMARK    4  A    between atoms: C_5  and  C_7
REMARK    5  A    between atoms: C_7  and  C_8
REMARK                            x       y       z     vdW  Elec       q    Type
REMARK                         _______ _______ _______ _____ _____    ______ ____
ROOT
ATOM      1  C   UNL     1       2.776   5.518  -7.324  0.00  0.00    +0.145 C 
ATOM      2  C   UNL     1       2.549   4.457  -6.375  0.00  0.00    +0.257 C 
ATOM      3  O   UNL     1       1.989   3.358  -6.657  0.00  0.00    -0.272 OA
ATOM      4  N   UNL     1       3.226   4.490  -5.110  0.00  0.00    -0.125 NA
ATOM      5  C   UNL     1       4.264   5.430  -4.833  0.00  0.00    +0.352 C 
ATOM      6  O   UNL     1       4.983   5.387  -3.796  0.00  0.00    -0.248 OA
ATOM      7  N   UNL     1       4.213   6.618  -5.634  0.00  0.00    -0.125 NA
ATOM      8  C   UNL     1       3.253   6.739  -6.661  0.00  0.00    +0.257 C 
ATOM      9  O   UNL     1       2.743   7.887  -6.837  0.00  0.00    -0.272 OA
ENDROOT
BRANCH   1  10
ATOM     10  C   UNL     1       1.346   5.952  -8.029  0.00  0.00    +0.017 C 
ATOM     11  C   UNL     1       2.096   7.034  -9.036  0.00  0.00    +0.001 C 
BRANCH  10  12
ATOM     12  C   UNL     1       1.392   4.763  -9.183  0.00  0.00    +0.001 C 
BRANCH  12  13
ATOM     13  C   UNL     1       0.091   4.896  -9.937  0.00  0.00    +0.000 C 
ATOM     14  C   UNL     1       0.397   4.711 -11.419  0.00  0.00    +0.000 C 
ENDBRANCH  12  13
ENDBRANCH  10  12
ENDBRANCH   1  10
BRANCH   1  15
ATOM     15  C   UNL     1       3.642   5.081  -8.472  0.00  0.00    +0.044 C 
BRANCH  15  17
ATOM     16  C   UNL     1       5.984   5.457  -8.902  0.00  0.00    -0.005 C 
ATOM     17  C   UNL     1       5.093   5.223  -8.144  0.00  0.00    -0.025 C 
ENDBRANCH  15  17
ENDBRANCH   1  15
TORSDOF 5
ENDMDL
