MODEL 1
REMARK VINA RESULT:      -8.0      0.000      0.000
REMARK  Name = 
REMARK  8 active torsions:
REMARK  status: ('A' for Active; 'I' for Inactive)
REMARK    1  A    between atoms: C_2  and  O_4
REMARK    2  A    between atoms: O_4  and  C_5
REMARK    3  A    between atoms: C_5  and  C_6
REMARK    4  A    between atoms: C_8  and  N_9
REMARK    5  A    between atoms: C_17  and  O_18
REMARK    6  A    between atoms: O_18  and  C_19
REMARK    7  A    between atoms: C_22  and  O_23
REMARK    8  A    between atoms: O_23  and  C_24
REMARK                            x       y       z     vdW  Elec       q    Type
REMARK                         _______ _______ _______ _____ _____    ______ ____
ROOT
ATOM      1  C   UNL     1       3.220   6.606  -7.942  0.00  0.00    +0.204 C 
ATOM      2  C   UNL     1       2.921   4.916  -8.173  0.00  0.00    +0.244 C 
ATOM      3  C   UNL     1       2.483   5.242  -9.790  0.00  0.00    +0.260 C 
ATOM      4  C   UNL     1       3.664   6.499 -10.056  0.00  0.00    +0.253 C 
ATOM      5  O   UNL     1       4.457   6.241  -8.768  0.00  0.00    -0.327 OA
ENDROOT
BRANCH   4   6
ATOM      6  N   UNL     1       4.665   5.533 -10.880  0.00  0.00    -0.253 N 
ATOM      7  C   UNL     1       4.584   5.665 -12.196  0.00  0.00    +0.355 A 
ATOM      8  O   UNL     1       3.438   5.609 -12.691  0.00  0.00    -0.244 OA
ATOM      9  N   UNL     1       5.551   5.073 -12.937  0.00  0.00    -0.153 NA
ATOM     10  C   UNL     1       6.788   5.111 -12.400  0.00  0.00    +0.285 A 
ATOM     11  O   UNL     1       7.766   4.846 -13.147  0.00  0.00    -0.265 OA
ATOM     12  C   UNL     1       6.995   5.497 -11.118  0.00  0.00    +0.081 A 
ATOM     13  C   UNL     1       5.887   5.725 -10.317  0.00  0.00    +0.087 A 
ENDBRANCH   4   6
BRANCH   1  14
ATOM     14  C   UNL     1       4.021   6.264  -6.514  0.00  0.00    +0.242 C 
BRANCH  14  15
ATOM     15  O   UNL     1       3.542   7.357  -5.732  0.00  0.00    -0.446 OA
BRANCH  15  17
ATOM     16  C   UNL     1       5.037   7.704  -4.119  0.00  0.00    +0.121 C 
ATOM     17  C   UNL     1       4.053   7.628  -4.459  0.00  0.00    +0.318 C 
ATOM     18  O   UNL     1       3.210   7.565  -3.529  0.00  0.00    -0.250 OA
ENDBRANCH  15  17
ENDBRANCH  14  15
ENDBRANCH   1  14
BRANCH   3  19
ATOM     19  O   UNL     1       1.440   6.309  -9.431  0.00  0.00    -0.444 OA
BRANCH  19  20
ATOM     20  C   UNL     1       0.318   6.354 -10.224  0.00  0.00    +0.318 C 
ATOM     21  O   UNL     1       0.141   7.426 -10.879  0.00  0.00    -0.250 OA
ATOM     22  C   UNL     1       0.023   5.118 -11.018  0.00  0.00    +0.121 C 
ENDBRANCH  19  20
ENDBRANCH   3  19
BRANCH   2  23
ATOM     23  O   UNL     1       1.497   4.959  -7.588  0.00  0.00    -0.446 OA
BRANCH  23  24
ATOM     24  C   UNL     1       1.460   4.215  -6.423  0.00  0.00    +0.318 C 
ATOM     25  O   UNL     1       2.167   3.179  -6.338  0.00  0.00    -0.250 OA
ATOM     26  C   UNL     1       0.969   4.825  -5.173  0.00  0.00    +0.121 C 
ENDBRANCH  23  24
ENDBRANCH   2  23
TORSDOF 8
ENDMDL
MODEL 2
REMARK VINA RESULT:      -7.4      3.440      7.904
REMARK  Name = 
REMARK  8 active torsions:
REMARK  status: ('A' for Active; 'I' for Inactive)
REMARK    1  A    between atoms: C_2  and  O_4
REMARK    2  A    between atoms: O_4  and  C_5
REMARK    3  A    between atoms: C_5  and  C_6
REMARK    4  A    between atoms: C_8  and  N_9
REMARK    5  A    between atoms: C_17  and  O_18
REMARK    6  A    between atoms: O_18  and  C_19
REMARK    7  A    between atoms: C_22  and  O_23
REMARK    8  A    between atoms: O_23  and  C_24
REMARK                            x       y       z     vdW  Elec       q    Type
REMARK                         _______ _______ _______ _____ _____    ______ ____
ROOT
ATOM      1  C   UNL     1       1.436   6.659  -7.240  0.00  0.00    +0.204 C 
ATOM      2  C   UNL     1       1.917   5.039  -6.863  0.00  0.00    +0.244 C 
ATOM      3  C   UNL     1       2.368   5.564  -5.303  0.00  0.00    +0.260 C 
ATOM      4  C   UNL     1       1.070   6.715  -5.110  0.00  0.00    +0.253 C 
ATOM      5  O   UNL     1       0.271   6.254  -6.334  0.00  0.00    -0.327 OA
ENDROOT
BRANCH   4   6
ATOM      6  N   UNL     1       0.201   5.738  -4.158  0.00  0.00    -0.253 N 
ATOM      7  C   UNL     1       0.275   6.031  -2.868  0.00  0.00    +0.355 A 
ATOM      8  O   UNL     1       1.422   6.172  -2.395  0.00  0.00    -0.244 OA
ATOM      9  N   UNL     1      -0.607   5.418  -2.044  0.00  0.00    -0.153 NA
ATOM     10  C   UNL     1      -1.843   5.243  -2.555  0.00  0.00    +0.285 A 
ATOM     11  O   UNL     1      -2.776   4.951  -1.761  0.00  0.00    -0.265 OA
ATOM     12  C   UNL     1      -2.105   5.449  -3.868  0.00  0.00    +0.081 A 
ATOM     13  C   UNL     1      -1.039   5.714  -4.714  0.00  0.00    +0.087 A 
ENDBRANCH   4   6
BRANCH   1  14
ATOM     14  C   UNL     1       0.634   6.100  -8.596  0.00  0.00    +0.242 C 
BRANCH  14  15
ATOM     15  O   UNL     1       1.151   7.026  -9.549  0.00  0.00    -0.446 OA
BRANCH  15  17
ATOM     16  C   UNL     1      -0.203   7.103 -11.315  0.00  0.00    +0.121 C 
ATOM     17  C   UNL     1       0.744   7.007 -10.887  0.00  0.00    +0.318 C 
ATOM     18  O   UNL     1       1.617   6.603 -11.697  0.00  0.00    -0.250 OA
ENDBRANCH  15  17
ENDBRANCH  14  15
ENDBRANCH   1  14
BRANCH   3  19
ATOM     19  O   UNL     1       3.282   6.691  -5.802  0.00  0.00    -0.444 OA
BRANCH  19  20
ATOM     20  C   UNL     1       4.442   6.894  -5.092  0.00  0.00    +0.318 C 
ATOM     21  O   UNL     1       4.591   8.047  -4.586  0.00  0.00    -0.250 OA
ATOM     22  C   UNL     1       4.853   5.784  -4.172  0.00  0.00    +0.121 C 
ENDBRANCH  19  20
ENDBRANCH   3  19
BRANCH   2  23
ATOM     23  O   UNL     1       3.311   5.169  -7.506  0.00  0.00    -0.446 OA
BRANCH  23  24
ATOM     24  C   UNL     1       3.397   4.309  -8.586  0.00  0.00    +0.318 C 
ATOM     25  O   UNL     1       2.636   3.308  -8.631  0.00  0.00    -0.250 OA
ATOM     26  C   UNL     1       4.025   4.760  -9.841  0.00  0.00    +0.121 C 
ENDBRANCH  23  24
ENDBRANCH   2  23
TORSDOF 8
ENDMDL
MODEL 3
REMARK VINA RESULT:      -7.2      4.110      7.783
REMARK  Name = 
REMARK  8 active torsions:
REMARK  status: ('A' for Active; 'I' for Inactive)
REMARK    1  A    between atoms: C_2  and  O_4
REMARK    2  A    between atoms: O_4  and  C_5
REMARK    3  A    between atoms: C_5  and  C_6
REMARK    4  A    between atoms: C_8  and  N_9
REMARK    5  A    between atoms: C_17  and  O_18
REMARK    6  A    between atoms: O_18  and  C_19
REMARK    7  A    between atoms: C_22  and  O_23
REMARK    8  A    between atoms: O_23  and  C_24
REMARK                            x       y       z     vdW  Elec       q    Type
REMARK                         _______ _______ _______ _____ _____    ______ ____
ROOT
ATOM      1  C   UNL     1       1.589   4.776  -5.305  0.00  0.00    +0.204 C 
ATOM      2  C   UNL     1       1.899   6.468  -5.504  0.00  0.00    +0.244 C 
ATOM      3  C   UNL     1       0.719   6.797  -4.315  0.00  0.00    +0.260 C 
ATOM      4  C   UNL     1       1.083   5.421  -3.304  0.00  0.00    +0.253 C 
ATOM      5  O   UNL     1       2.383   5.041  -4.023  0.00  0.00    -0.327 OA
ENDROOT
BRANCH   4   6
ATOM      6  N   UNL     1       1.918   6.295  -2.230  0.00  0.00    -0.253 N 
ATOM      7  C   UNL     1       1.389   6.311  -1.015  0.00  0.00    +0.355 A 
ATOM      8  O   UNL     1       0.175   6.596  -0.941  0.00  0.00    -0.244 OA
ATOM      9  N   UNL     1       2.152   6.814  -0.015  0.00  0.00    -0.153 NA
ATOM     10  C   UNL     1       3.467   6.527  -0.099  0.00  0.00    +0.285 A 
ATOM     11  O   UNL     1       4.179   6.708   0.924  0.00  0.00    -0.265 OA
ATOM     12  C   UNL     1       4.008   5.986  -1.218  0.00  0.00    +0.081 A 
ATOM     13  C   UNL     1       3.200   5.857  -2.337  0.00  0.00    +0.087 A 
ENDBRANCH   4   6
BRANCH   1  14
ATOM     14  C   UNL     1       2.988   4.426  -6.150  0.00  0.00    +0.242 C 
BRANCH  14  15
ATOM     15  O   UNL     1       2.416   3.647  -7.200  0.00  0.00    -0.446 OA
BRANCH  15  17
ATOM     16  C   UNL     1       3.686   4.146  -8.960  0.00  0.00    +0.121 C 
ATOM     17  C   UNL     1       2.784   3.833  -8.536  0.00  0.00    +0.318 C 
ATOM     18  O   UNL     1       1.828   3.826  -9.351  0.00  0.00    -0.250 OA
ENDBRANCH  15  17
ENDBRANCH  14  15
ENDBRANCH   1  14
BRANCH   3  19
ATOM     19  O   UNL     1      -0.389   5.989  -5.002  0.00  0.00    -0.444 OA
BRANCH  19  20
ATOM     20  C   UNL     1      -1.637   6.565  -5.026  0.00  0.00    +0.318 C 
ATOM     21  O   UNL     1      -1.677   7.817  -4.829  0.00  0.00    -0.250 OA
ATOM     22  C   UNL     1      -2.552   6.108  -6.122  0.00  0.00    +0.121 C 
ENDBRANCH  19  20
ENDBRANCH   3  19
BRANCH   2  23
ATOM     23  O   UNL     1       0.972   6.623  -6.725  0.00  0.00    -0.446 OA
BRANCH  23  24
ATOM     24  C   UNL     1       1.633   7.330  -7.712  0.00  0.00    +0.318 C 
ATOM     25  O   UNL     1       2.707   7.919  -7.426  0.00  0.00    -0.250 OA
ATOM     26  C   UNL     1       1.350   7.053  -9.133  0.00  0.00    +0.121 C 
ENDBRANCH  23  24
ENDBRANCH   2  23
TORSDOF 8
ENDMDL
MODEL 4
REMARK VINA RESULT:      -6.9      2.982      5.228
REMARK  Name = 
REMARK  8 active torsions:
REMARK  status: ('A' for Active; 'I' for Inactive)
REMARK    1  A    between atoms: C_2  and  O_4
REMARK    2  A    between atoms: O_4  and  C_5
REMARK    3  A    between atoms: C_5  and  C_6
REMARK    4  A    between atoms: C_8  and  N_9
REMARK    5  A    between atoms: C_17  and  O_18
REMARK    6  A    between atoms: O_18  and  C_19
REMARK    7  A    between atoms: C_22  and  O_23
REMARK    8  A    between atoms: O_23  and  C_24
REMARK                            x       y       z     vdW  Elec       q    Type
REMARK                         _______ _______ _______ _____ _____    ______ ____
ROOT
ATOM      1  C   UNL     1       2.704   7.328  -3.650  0.00  0.00    +0.204 C 
ATOM      2  C   UNL     1       2.934   5.642  -3.332  0.00  0.00    +0.244 C 
ATOM      3  C   UNL     1       1.603   5.296  -4.342  0.00  0.00    +0.260 C 
ATOM      4  C   UNL     1       1.923   6.553  -5.511  0.00  0.00    +0.253 C 
ATOM      5  O   UNL     1       3.321   6.901  -4.985  0.00  0.00    -0.327 OA
ENDROOT
BRANCH   4   6
ATOM      6  N   UNL     1       2.569   5.534  -6.588  0.00  0.00    -0.253 N 
ATOM      7  C   UNL     1       1.857   5.394  -7.697  0.00  0.00    +0.355 A 
ATOM      8  O   UNL     1       0.644   5.141  -7.551  0.00  0.00    -0.244 OA
ATOM      9  N   UNL     1       2.449   4.755  -8.735  0.00  0.00    -0.153 NA
ATOM     10  C   UNL     1       3.765   5.008  -8.887  0.00  0.00    +0.285 A 
ATOM     11  O   UNL     1       4.307   4.687  -9.978  0.00  0.00    -0.265 OA
ATOM     12  C   UNL     1       4.481   5.657  -7.937  0.00  0.00    +0.081 A 
ATOM     13  C   UNL     1       3.858   5.940  -6.731  0.00  0.00    +0.087 A 
ENDBRANCH   4   6
BRANCH   1  14
ATOM     14  C   UNL     1       4.213   7.650  -3.006  0.00  0.00    +0.242 C 
BRANCH  14  15
ATOM     15  O   UNL     1       3.881   8.813  -2.250  0.00  0.00    -0.446 OA
BRANCH  15  17
ATOM     16  C   UNL     1       4.085   8.044  -0.170  0.00  0.00    +0.121 C 
ATOM     17  C   UNL     1       3.816   8.786  -0.854  0.00  0.00    +0.318 C 
ATOM     18  O   UNL     1       3.136   9.711  -0.340  0.00  0.00    -0.250 OA
ENDBRANCH  15  17
ENDBRANCH  14  15
ENDBRANCH   1  14
BRANCH   3  19
ATOM     19  O   UNL     1       0.635   6.236  -3.610  0.00  0.00    -0.444 OA
BRANCH  19  20
ATOM     20  C   UNL     1      -0.687   5.858  -3.597  0.00  0.00    +0.318 C 
ATOM     21  O   UNL     1      -1.041   5.102  -2.642  0.00  0.00    -0.250 OA
ATOM     22  C   UNL     1      -1.682   6.937  -3.900  0.00  0.00    +0.121 C 
ENDBRANCH  19  20
ENDBRANCH   3  19
BRANCH   2  23
ATOM     23  O   UNL     1       2.153   5.656  -2.004  0.00  0.00    -0.446 OA
BRANCH  23  24
ATOM     24  C   UNL     1       2.724   4.750  -1.129  0.00  0.00    +0.318 C 
ATOM     25  O   UNL     1       1.992   3.888  -0.579  0.00  0.00    -0.250 OA
ATOM     26  C   UNL     1       4.178   4.506  -1.165  0.00  0.00    +0.121 C 
ENDBRANCH  23  24
ENDBRANCH   2  23
TORSDOF 8
ENDMDL
MODEL 5
REMARK VINA RESULT:      -6.9      4.501      8.259
REMARK  Name = 
REMARK  8 active torsions:
REMARK  status: ('A' for Active; 'I' for Inactive)
REMARK    1  A    between atoms: C_2  and  O_4
REMARK    2  A    between atoms: O_4  and  C_5
REMARK    3  A    between atoms: C_5  and  C_6
REMARK    4  A    between atoms: C_8  and  N_9
REMARK    5  A    between atoms: C_17  and  O_18
REMARK    6  A    between atoms: O_18  and  C_19
REMARK    7  A    between atoms: C_22  and  O_23
REMARK    8  A    between atoms: O_23  and  C_24
REMARK                            x       y       z     vdW  Elec       q    Type
REMARK                         _______ _______ _______ _____ _____    ______ ____
ROOT
ATOM      1  C   UNL     1       0.539   5.253  -1.485  0.00  0.00    +0.204 C 
ATOM      2  C   UNL     1       0.851   6.932  -1.200  0.00  0.00    +0.244 C 
ATOM      3  C   UNL     1       2.421   6.721  -1.834  0.00  0.00    +0.260 C 
ATOM      4  C   UNL     1       1.971   5.576  -3.073  0.00  0.00    +0.253 C 
ATOM      5  O   UNL     1       0.458   5.773  -2.923  0.00  0.00    -0.327 OA
ENDROOT
BRANCH   4   6
ATOM      6  N   UNL     1       2.011   6.677  -4.256  0.00  0.00    -0.253 N 
ATOM      7  C   UNL     1       3.092   6.614  -5.019  0.00  0.00    +0.355 A 
ATOM      8  O   UNL     1       4.190   6.591  -4.426  0.00  0.00    -0.244 OA
ATOM      9  N   UNL     1       3.081   7.335  -6.166  0.00  0.00    -0.153 NA
ATOM     10  C   UNL     1       1.893   7.382  -6.802  0.00  0.00    +0.285 A 
ATOM     11  O   UNL     1       1.876   7.780  -7.997  0.00  0.00    -0.265 OA
ATOM     12  C   UNL     1       0.753   6.944  -6.215  0.00  0.00    +0.081 A 
ATOM     13  C   UNL     1       0.809   6.568  -4.881  0.00  0.00    +0.087 A 
ENDBRANCH   4   6
BRANCH   1  14
ATOM     14  C   UNL     1      -1.095   5.522  -1.250  0.00  0.00    +0.242 C 
BRANCH  14  15
ATOM     15  O   UNL     1      -1.574   5.048  -2.507  0.00  0.00    -0.446 OA
BRANCH  15  17
ATOM     16  C   UNL     1      -3.495   6.162  -2.676  0.00  0.00    +0.121 C 
ATOM     17  C   UNL     1      -2.770   5.515  -3.060  0.00  0.00    +0.318 C 
ATOM     18  O   UNL     1      -3.145   4.907  -4.094  0.00  0.00    -0.250 OA
ENDBRANCH  15  17
ENDBRANCH  14  15
ENDBRANCH   1  14
BRANCH   3  19
ATOM     19  O   UNL     1       2.785   5.558  -0.902  0.00  0.00    -0.444 OA
BRANCH  19  20
ATOM     20  C   UNL     1       4.076   5.535  -0.431  0.00  0.00    +0.318 C 
ATOM     21  O   UNL     1       4.748   4.492  -0.695  0.00  0.00    -0.250 OA
ATOM     22  C   UNL     1       4.859   6.802  -0.596  0.00  0.00    +0.121 C 
ENDBRANCH  19  20
ENDBRANCH   3  19
BRANCH   2  23
ATOM     23  O   UNL     1       1.228   6.741   0.282  0.00  0.00    -0.446 OA
BRANCH  23  24
ATOM     24  C   UNL     1       0.757   7.814   1.015  0.00  0.00    +0.318 C 
ATOM     25  O   UNL     1      -0.099   7.612   1.913  0.00  0.00    -0.250 OA
ATOM     26  C   UNL     1       1.527   9.071   1.060  0.00  0.00    +0.121 C 
ENDBRANCH  23  24
ENDBRANCH   2  23
TORSDOF 8
ENDMDL
MODEL 6
REMARK VINA RESULT:      -6.8      4.377      7.657
REMARK  Name = 
REMARK  8 active torsions:
REMARK  status: ('A' for Active; 'I' for Inactive)
REMARK    1  A    between atoms: C_2  and  O_4
REMARK    2  A    between atoms: O_4  and  C_5
REMARK    3  A    between atoms: C_5  and  C_6
REMARK    4  A    between atoms: C_8  and  N_9
REMARK    5  A    between atoms: C_17  and  O_18
REMARK    6  A    between atoms: O_18  and  C_19
REMARK    7  A    between atoms: C_22  and  O_23
REMARK    8  A    between atoms: O_23  and  C_24
REMARK                            x       y       z     vdW  Elec       q    Type
REMARK                         _______ _______ _______ _____ _____    ______ ____
ROOT
ATOM      1  C   UNL     1       1.090   4.703  -5.828  0.00  0.00    +0.204 C 
ATOM      2  C   UNL     1       1.341   6.411  -5.965  0.00  0.00    +0.244 C 
ATOM      3  C   UNL     1      -0.143   6.666  -5.162  0.00  0.00    +0.260 C 
ATOM      4  C   UNL     1       0.003   5.318  -4.063  0.00  0.00    +0.253 C 
ATOM      5  O   UNL     1       1.474   5.019  -4.380  0.00  0.00    -0.327 OA
ENDROOT
BRANCH   4   6
ATOM      6  N   UNL     1       0.447   6.245  -2.815  0.00  0.00    -0.253 N 
ATOM      7  C   UNL     1      -0.475   6.360  -1.870  0.00  0.00    +0.355 A 
ATOM      8  O   UNL     1      -1.621   6.681  -2.249  0.00  0.00    -0.244 OA
ATOM      9  N   UNL     1      -0.090   6.914  -0.695  0.00  0.00    -0.153 NA
ATOM     10  C   UNL     1       1.155   6.589  -0.290  0.00  0.00    +0.285 A 
ATOM     11  O   UNL     1       1.468   6.825   0.907  0.00  0.00    -0.265 OA
ATOM     12  C   UNL     1       2.028   5.956  -1.110  0.00  0.00    +0.081 A 
ATOM     13  C   UNL     1       1.662   5.768  -2.434  0.00  0.00    +0.087 A 
ENDBRANCH   4   6
BRANCH   1  14
ATOM     14  C   UNL     1       2.690   4.440  -6.239  0.00  0.00    +0.242 C 
BRANCH  14  15
ATOM     15  O   UNL     1       3.246   4.401  -4.926  0.00  0.00    -0.446 OA
BRANCH  15  17
ATOM     16  C   UNL     1       5.070   4.957  -3.776  0.00  0.00    +0.121 C 
ATOM     17  C   UNL     1       4.470   5.008  -4.630  0.00  0.00    +0.318 C 
ATOM     18  O   UNL     1       4.810   5.924  -5.421  0.00  0.00    -0.250 OA
ENDBRANCH  15  17
ENDBRANCH  14  15
ENDBRANCH   1  14
BRANCH   3  19
ATOM     19  O   UNL     1      -0.962   5.788  -6.118  0.00  0.00    -0.444 OA
BRANCH  19  20
ATOM     20  C   UNL     1      -2.315   6.031  -6.159  0.00  0.00    +0.318 C 
ATOM     21  O   UNL     1      -3.068   5.028  -5.974  0.00  0.00    -0.250 OA
ATOM     22  C   UNL     1      -2.783   7.264  -5.447  0.00  0.00    +0.121 C 
ENDBRANCH  19  20
ENDBRANCH   3  19
BRANCH   2  23
ATOM     23  O   UNL     1       0.788   6.505  -7.400  0.00  0.00    -0.446 OA
BRANCH  23  24
ATOM     24  C   UNL     1       1.668   7.232  -8.180  0.00  0.00    +0.318 C 
ATOM     25  O   UNL     1       2.106   8.329  -7.747  0.00  0.00    -0.250 OA
ATOM     26  C   UNL     1       2.411   6.569  -9.268  0.00  0.00    +0.121 C 
ENDBRANCH  23  24
ENDBRANCH   2  23
TORSDOF 8
ENDMDL
MODEL 7
REMARK VINA RESULT:      -6.6      2.890      6.187
REMARK  Name = 
REMARK  8 active torsions:
REMARK  status: ('A' for Active; 'I' for Inactive)
REMARK    1  A    between atoms: C_2  and  O_4
REMARK    2  A    between atoms: O_4  and  C_5
REMARK    3  A    between atoms: C_5  and  C_6
REMARK    4  A    between atoms: C_8  and  N_9
REMARK    5  A    between atoms: C_17  and  O_18
REMARK    6  A    between atoms: O_18  and  C_19
REMARK    7  A    between atoms: C_22  and  O_23
REMARK    8  A    between atoms: O_23  and  C_24
REMARK                            x       y       z     vdW  Elec       q    Type
REMARK                         _______ _______ _______ _____ _____    ______ ____
ROOT
ATOM      1  C   UNL     1       1.555   4.269  -7.621  0.00  0.00    +0.204 C 
ATOM      2  C   UNL     1       1.298   5.931  -8.029  0.00  0.00    +0.244 C 
ATOM      3  C   UNL     1       0.608   6.176  -6.488  0.00  0.00    +0.260 C 
ATOM      4  C   UNL     1       1.681   5.100  -5.629  0.00  0.00    +0.253 C 
ATOM      5  O   UNL     1       2.668   4.908  -6.787  0.00  0.00    -0.327 OA
ENDROOT
BRANCH   4   6
ATOM      6  N   UNL     1       2.588   6.301  -5.038  0.00  0.00    -0.253 N 
ATOM      7  C   UNL     1       2.452   6.491  -3.733  0.00  0.00    +0.355 A 
ATOM      8  O   UNL     1       1.284   6.593  -3.305  0.00  0.00    -0.244 OA
ATOM      9  N   UNL     1       3.350   7.307  -3.131  0.00  0.00    -0.153 NA
ATOM     10  C   UNL     1       4.610   7.219  -3.603  0.00  0.00    +0.285 A 
ATOM     11  O   UNL     1       5.537   7.722  -2.913  0.00  0.00    -0.265 OA
ATOM     12  C   UNL     1       4.899   6.544  -4.742  0.00  0.00    +0.081 A 
ATOM     13  C   UNL     1       3.843   6.056  -5.497  0.00  0.00    +0.087 A 
ENDBRANCH   4   6
BRANCH   1  14
ATOM     14  C   UNL     1       2.575   4.108  -8.936  0.00  0.00    +0.242 C 
BRANCH  14  15
ATOM     15  O   UNL     1       3.812   4.390  -8.285  0.00  0.00    -0.446 OA
BRANCH  15  17
ATOM     16  C   UNL     1       5.793   5.345  -8.635  0.00  0.00    +0.121 C 
ATOM     17  C   UNL     1       4.901   4.924  -8.980  0.00  0.00    +0.318 C 
ATOM     18  O   UNL     1       4.698   5.127 -10.204  0.00  0.00    -0.250 OA
ENDBRANCH  15  17
ENDBRANCH  14  15
ENDBRANCH   1  14
BRANCH   3  19
ATOM     19  O   UNL     1      -0.414   5.040  -6.619  0.00  0.00    -0.444 OA
BRANCH  19  20
ATOM     20  C   UNL     1      -1.581   5.184  -5.906  0.00  0.00    +0.318 C 
ATOM     21  O   UNL     1      -1.452   5.486  -4.681  0.00  0.00    -0.250 OA
ATOM     22  C   UNL     1      -2.680   5.939  -6.590  0.00  0.00    +0.121 C 
ENDBRANCH  19  20
ENDBRANCH   3  19
BRANCH   2  23
ATOM     23  O   UNL     1      -0.023   5.674  -8.779  0.00  0.00    -0.446 OA
BRANCH  23  24
ATOM     24  C   UNL     1       0.080   6.171 -10.066  0.00  0.00    +0.318 C 
ATOM     25  O   UNL     1       0.698   7.249 -10.257  0.00  0.00    -0.250 OA
ATOM     26  C   UNL     1      -0.131   5.278 -11.220  0.00  0.00    +0.121 C 
ENDBRANCH  23  24
ENDBRANCH   2  23
TORSDOF 8
ENDMDL
MODEL 8
REMARK VINA RESULT:      -6.5      2.184      6.442
REMARK  Name = 
REMARK  8 active torsions:
REMARK  status: ('A' for Active; 'I' for Inactive)
REMARK    1  A    between atoms: C_2  and  O_4
REMARK    2  A    between atoms: O_4  and  C_5
REMARK    3  A    between atoms: C_5  and  C_6
REMARK    4  A    between atoms: C_8  and  N_9
REMARK    5  A    between atoms: C_17  and  O_18
REMARK    6  A    between atoms: O_18  and  C_19
REMARK    7  A    between atoms: C_22  and  O_23
REMARK    8  A    between atoms: O_23  and  C_24
REMARK                            x       y       z     vdW  Elec       q    Type
REMARK                         _______ _______ _______ _____ _____    ______ ____
ROOT
ATOM      1  C   UNL     1       5.389   5.279  -9.967  0.00  0.00    +0.204 C 
ATOM      2  C   UNL     1       5.069   6.971 -10.146  0.00  0.00    +0.244 C 
ATOM      3  C   UNL     1       3.405   6.650  -9.946  0.00  0.00    +0.260 C 
ATOM      4  C   UNL     1       3.598   5.384  -8.760  0.00  0.00    +0.253 C 
ATOM      5  O   UNL     1       5.090   5.635  -8.508  0.00  0.00    -0.327 OA
ENDROOT
BRANCH   4   6
ATOM      6  N   UNL     1       3.214   6.344  -7.516  0.00  0.00    -0.253 N 
ATOM      7  C   UNL     1       2.000   6.137  -7.028  0.00  0.00    +0.355 A 
ATOM      8  O   UNL     1       1.063   6.119  -7.854  0.00  0.00    -0.244 OA
ATOM      9  N   UNL     1       1.702   6.725  -5.844  0.00  0.00    -0.153 NA
ATOM     10  C   UNL     1       2.714   6.767  -4.954  0.00  0.00    +0.285 A 
ATOM     11  O   UNL     1       2.437   7.030  -3.754  0.00  0.00    -0.265 OA
ATOM     12  C   UNL     1       3.986   6.460  -5.308  0.00  0.00    +0.081 A 
ATOM     13  C   UNL     1       4.254   6.232  -6.649  0.00  0.00    +0.087 A 
ENDBRANCH   4   6
BRANCH   1  14
ATOM     14  C   UNL     1       7.015   5.614  -9.760  0.00  0.00    +0.242 C 
BRANCH  14  15
ATOM     15  O   UNL     1       7.547   4.687 -10.704  0.00  0.00    -0.446 OA
BRANCH  15  17
ATOM     16  C   UNL     1       8.964   5.846 -11.972  0.00  0.00    +0.121 C 
ATOM     17  C   UNL     1       8.230   5.114 -11.847  0.00  0.00    +0.318 C 
ATOM     18  O   UNL     1       7.745   4.707 -12.933  0.00  0.00    -0.250 OA
ENDBRANCH  15  17
ENDBRANCH  14  15
ENDBRANCH   1  14
BRANCH   3  19
ATOM     19  O   UNL     1       3.341   5.591 -11.055  0.00  0.00    -0.444 OA
BRANCH  19  20
ATOM     20  C   UNL     1       2.262   5.661 -11.903  0.00  0.00    +0.318 C 
ATOM     21  O   UNL     1       2.481   5.343 -13.111  0.00  0.00    -0.250 OA
ATOM     22  C   UNL     1       0.971   5.118 -11.371  0.00  0.00    +0.121 C 
ENDBRANCH  19  20
ENDBRANCH   3  19
BRANCH   2  23
ATOM     23  O   UNL     1       5.076   6.938 -11.686  0.00  0.00    -0.446 OA
BRANCH  23  24
ATOM     24  C   UNL     1       6.095   7.747 -12.155  0.00  0.00    +0.318 C 
ATOM     25  O   UNL     1       6.300   7.815 -13.394  0.00  0.00    -0.250 OA
ATOM     26  C   UNL     1       6.636   8.821 -11.301  0.00  0.00    +0.121 C 
ENDBRANCH  23  24
ENDBRANCH   2  23
TORSDOF 8
ENDMDL
MODEL 9
REMARK VINA RESULT:      -6.5      3.915      7.244
REMARK  Name = 
REMARK  8 active torsions:
REMARK  status: ('A' for Active; 'I' for Inactive)
REMARK    1  A    between atoms: C_2  and  O_4
REMARK    2  A    between atoms: O_4  and  C_5
REMARK    3  A    between atoms: C_5  and  C_6
REMARK    4  A    between atoms: C_8  and  N_9
REMARK    5  A    between atoms: C_17  and  O_18
REMARK    6  A    between atoms: O_18  and  C_19
REMARK    7  A    between atoms: C_22  and  O_23
REMARK    8  A    between atoms: O_23  and  C_24
REMARK                            x       y       z     vdW  Elec       q    Type
REMARK                         _______ _______ _______ _____ _____    ______ ____
ROOT
ATOM      1  C   UNL     1       0.175   5.010  -5.470  0.00  0.00    +0.204 C 
ATOM      2  C   UNL     1      -0.129   6.695  -5.212  0.00  0.00    +0.244 C 
ATOM      3  C   UNL     1       0.363   6.507  -3.588  0.00  0.00    +0.260 C 
ATOM      4  C   UNL     1       1.631   5.351  -3.909  0.00  0.00    +0.253 C 
ATOM      5  O   UNL     1       1.617   5.524  -5.433  0.00  0.00    -0.327 OA
ENDROOT
BRANCH   4   6
ATOM      6  N   UNL     1       2.812   6.449  -3.783  0.00  0.00    -0.253 N 
ATOM      7  C   UNL     1       3.603   6.276  -2.734  0.00  0.00    +0.355 A 
ATOM      8  O   UNL     1       3.038   6.134  -1.629  0.00  0.00    -0.244 OA
ATOM      9  N   UNL     1       4.746   7.001  -2.697  0.00  0.00    -0.153 NA
ATOM     10  C   UNL     1       5.351   7.178  -3.889  0.00  0.00    +0.285 A 
ATOM     11  O   UNL     1       6.544   7.582  -3.893  0.00  0.00    -0.265 OA
ATOM     12  C   UNL     1       4.737   6.859  -5.054  0.00  0.00    +0.081 A 
ATOM     13  C   UNL     1       3.406   6.471  -5.005  0.00  0.00    +0.087 A 
ENDBRANCH   4   6
BRANCH   1  14
ATOM     14  C   UNL     1       0.086   5.253  -7.123  0.00  0.00    +0.242 C 
BRANCH  14  15
ATOM     15  O   UNL     1       1.333   4.667  -7.494  0.00  0.00    -0.446 OA
BRANCH  15  17
ATOM     16  C   UNL     1       1.292   4.925  -9.705  0.00  0.00    +0.121 C 
ATOM     17  C   UNL     1       1.783   4.676  -8.817  0.00  0.00    +0.318 C 
ATOM     18  O   UNL     1       2.883   4.098  -9.004  0.00  0.00    -0.250 OA
ENDBRANCH  15  17
ENDBRANCH  14  15
ENDBRANCH   1  14
BRANCH   3  19
ATOM     19  O   UNL     1      -0.603   5.352  -3.290  0.00  0.00    -0.444 OA
BRANCH  19  20
ATOM     20  C   UNL     1      -1.453   5.529  -2.225  0.00  0.00    +0.318 C 
ATOM     21  O   UNL     1      -2.455   4.755  -2.176  0.00  0.00    -0.250 OA
ATOM     22  C   UNL     1      -0.801   5.740  -0.892  0.00  0.00    +0.121 C 
ENDBRANCH  19  20
ENDBRANCH   3  19
BRANCH   2  23
ATOM     23  O   UNL     1      -1.639   6.513  -4.964  0.00  0.00    -0.446 OA
BRANCH  23  24
ATOM     24  C   UNL     1      -2.281   7.722  -5.164  0.00  0.00    +0.318 C 
ATOM     25  O   UNL     1      -3.336   7.746  -5.849  0.00  0.00    -0.250 OA
ATOM     26  C   UNL     1      -2.011   8.859  -4.265  0.00  0.00    +0.121 C 
ENDBRANCH  23  24
ENDBRANCH   2  23
TORSDOF 8
ENDMDL
