MODEL 1
REMARK VINA RESULT:      -7.9      0.000      0.000
REMARK  Name = 
REMARK  2 active torsions:
REMARK  status: ('A' for Active; 'I' for Inactive)
REMARK    1  A    between atoms: C_2  and  C_3
REMARK    2  A    between atoms: C_21  and  C_22
REMARK                            x       y       z     vdW  Elec       q    Type
REMARK                         _______ _______ _______ _____ _____    ______ ____
ROOT
ATOM      1  C   UNL     1       1.279   5.536  -8.043  0.00  0.00    +0.180 C 
ATOM      2  C   UNL     1       1.342   5.779  -6.584  0.00  0.00    +0.037 C 
ATOM      3  C   UNL     1       2.946   6.123  -6.545  0.00  0.00    +0.003 C 
ATOM      4  C   UNL     1       2.790   6.991  -5.080  0.00  0.00    +0.001 C 
ATOM      5  C   UNL     1       3.060   5.578  -4.189  0.00  0.00    +0.004 C 
ATOM      6  C   UNL     1       1.508   5.129  -4.272  0.00  0.00    +0.000 C 
ATOM      7  C   UNL     1       2.781   6.424  -2.725  0.00  0.00    +0.019 C 
ATOM      8  C   UNL     1       4.321   6.924  -2.662  0.00  0.00    -0.042 C 
ATOM      9  C   UNL     1       4.680   7.215  -1.421  0.00  0.00    +0.029 C 
ATOM     10  C   UNL     1       4.166   6.553  -0.242  0.00  0.00    +0.173 C 
ATOM     11  C   UNL     1       3.000   5.635  -0.441  0.00  0.00    +0.069 C 
ATOM     12  O   UNL     1       4.902   6.258   0.749  0.00  0.00    -0.291 OA
ATOM     13  C   UNL     1       4.672   7.931  -3.698  0.00  0.00    +0.022 C 
ATOM     14  C   UNL     1       3.125   5.078  -1.832  0.00  0.00    +0.012 C 
ATOM     15  C   UNL     1       4.364   7.374  -5.080  0.00  0.00    +0.004 C 
ATOM     16  C   UNL     1       2.663   7.457  -7.461  0.00  0.00    +0.004 C 
ATOM     17  C   UNL     1       1.235   4.647  -5.669  0.00  0.00    +0.003 C 
ATOM     18  C   UNL     1       1.888   6.815  -8.606  0.00  0.00    +0.043 C 
ATOM     19  O   UNL     1      -0.065   5.427  -8.416  0.00  0.00    -0.212 OA
ENDROOT
BRANCH   1  21
ATOM     20  C   UNL     1       2.843   3.619  -8.763  0.00  0.00    -0.012 C 
ATOM     21  C   UNL     1       2.050   4.366  -8.450  0.00  0.00    -0.049 C 
ENDBRANCH   1  21
BRANCH   2  22
ATOM     22  C   UNL     1       0.618   7.029  -6.255  0.00  0.00    +0.003 C 
ATOM     23  C   UNL     1      -0.724   6.850  -5.626  0.00  0.00    +0.000 C 
ENDBRANCH   2  22
TORSDOF 2
ENDMDL
MODEL 2
REMARK VINA RESULT:      -7.5      1.331      6.519
REMARK  Name = 
REMARK  2 active torsions:
REMARK  status: ('A' for Active; 'I' for Inactive)
REMARK    1  A    between atoms: C_2  and  C_3
REMARK    2  A    between atoms: C_21  and  C_22
REMARK                            x       y       z     vdW  Elec       q    Type
REMARK                         _______ _______ _______ _____ _____    ______ ____
ROOT
ATOM      1  C   UNL     1       3.773   7.272  -0.485  0.00  0.00    +0.180 C 
ATOM      2  C   UNL     1       3.119   6.533  -1.588  0.00  0.00    +0.037 C 
ATOM      3  C   UNL     1       3.579   7.569  -2.774  0.00  0.00    +0.003 C 
ATOM      4  C   UNL     1       3.390   6.373  -3.981  0.00  0.00    +0.001 C 
ATOM      5  C   UNL     1       1.773   6.820  -4.203  0.00  0.00    +0.004 C 
ATOM      6  C   UNL     1       1.262   5.892  -2.980  0.00  0.00    +0.000 C 
ATOM      7  C   UNL     1       1.553   5.541  -5.322  0.00  0.00    +0.019 C 
ATOM      8  C   UNL     1       2.115   6.445  -6.543  0.00  0.00    -0.042 C 
ATOM      9  C   UNL     1       1.665   6.009  -7.709  0.00  0.00    +0.029 C 
ATOM     10  C   UNL     1       0.377   5.382  -7.908  0.00  0.00    +0.173 C 
ATOM     11  C   UNL     1      -0.391   5.017  -6.677  0.00  0.00    +0.069 C 
ATOM     12  O   UNL     1      -0.346   5.618  -8.925  0.00  0.00    -0.291 OA
ATOM     13  C   UNL     1       3.574   6.724  -6.467  0.00  0.00    +0.022 C 
ATOM     14  C   UNL     1      -0.002   6.012  -5.617  0.00  0.00    +0.012 C 
ATOM     15  C   UNL     1       3.901   7.386  -5.137  0.00  0.00    +0.004 C 
ATOM     16  C   UNL     1       5.146   7.160  -2.497  0.00  0.00    +0.004 C 
ATOM     17  C   UNL     1       1.662   6.553  -1.692  0.00  0.00    +0.003 C 
ATOM     18  C   UNL     1       5.205   7.400  -0.993  0.00  0.00    +0.043 C 
ATOM     19  O   UNL     1       3.731   6.477   0.667  0.00  0.00    -0.212 OA
ENDROOT
BRANCH   1  21
ATOM     20  C   UNL     1       2.853   9.598   0.130  0.00  0.00    -0.012 C 
ATOM     21  C   UNL     1       3.178   8.584  -0.258  0.00  0.00    -0.049 C 
ENDBRANCH   1  21
BRANCH   2  22
ATOM     22  C   UNL     1       3.829   5.254  -1.823  0.00  0.00    +0.003 C 
ATOM     23  C   UNL     1       3.300   4.075  -1.076  0.00  0.00    +0.000 C 
ENDBRANCH   2  22
TORSDOF 2
ENDMDL
MODEL 3
REMARK VINA RESULT:      -7.5      1.409      6.541
REMARK  Name = 
REMARK  2 active torsions:
REMARK  status: ('A' for Active; 'I' for Inactive)
REMARK    1  A    between atoms: C_2  and  C_3
REMARK    2  A    between atoms: C_21  and  C_22
REMARK                            x       y       z     vdW  Elec       q    Type
REMARK                         _______ _______ _______ _____ _____    ______ ____
ROOT
ATOM      1  C   UNL     1       3.659   5.778  -1.786  0.00  0.00    +0.180 C 
ATOM      2  C   UNL     1       3.534   5.923  -3.254  0.00  0.00    +0.037 C 
ATOM      3  C   UNL     1       1.984   5.393  -3.338  0.00  0.00    +0.003 C 
ATOM      4  C   UNL     1       1.726   6.184  -4.832  0.00  0.00    +0.001 C 
ATOM      5  C   UNL     1       2.253   4.814  -5.675  0.00  0.00    +0.004 C 
ATOM      6  C   UNL     1       3.811   5.228  -5.542  0.00  0.00    +0.000 C 
ATOM      7  C   UNL     1       2.112   5.651  -7.163  0.00  0.00    +0.019 C 
ATOM      8  C   UNL     1       0.538   5.287  -7.277  0.00  0.00    -0.042 C 
ATOM      9  C   UNL     1       0.126   5.324  -8.535  0.00  0.00    +0.029 C 
ATOM     10  C   UNL     1       0.950   4.994  -9.677  0.00  0.00    +0.173 C 
ATOM     11  C   UNL     1       2.413   4.810  -9.420  0.00  0.00    +0.069 C 
ATOM     12  O   UNL     1       0.507   4.341 -10.670  0.00  0.00    -0.291 OA
ATOM     13  C   UNL     1      -0.319   5.993  -6.286  0.00  0.00    +0.022 C 
ATOM     14  C   UNL     1       2.541   4.300  -8.011  0.00  0.00    +0.012 C 
ATOM     15  C   UNL     1       0.180   5.704  -4.879  0.00  0.00    +0.004 C 
ATOM     16  C   UNL     1       1.508   6.703  -2.469  0.00  0.00    +0.004 C 
ATOM     17  C   UNL     1       4.241   4.986  -4.123  0.00  0.00    +0.003 C 
ATOM     18  C   UNL     1       2.460   6.576  -1.285  0.00  0.00    +0.043 C 
ATOM     19  O   UNL     1       4.855   6.384  -1.382  0.00  0.00    -0.212 OA
ENDROOT
BRANCH   1  21
ATOM     20  C   UNL     1       3.667   3.391  -0.820  0.00  0.00    -0.012 C 
ATOM     21  C   UNL     1       3.583   4.388  -1.350  0.00  0.00    -0.049 C 
ENDBRANCH   1  21
BRANCH   2  22
ATOM     22  C   UNL     1       3.527   7.359  -3.616  0.00  0.00    +0.003 C 
ATOM     23  C   UNL     1       4.844   7.928  -4.026  0.00  0.00    +0.000 C 
ENDBRANCH   2  22
TORSDOF 2
ENDMDL
MODEL 4
REMARK VINA RESULT:      -7.3      2.265      4.526
REMARK  Name = 
REMARK  2 active torsions:
REMARK  status: ('A' for Active; 'I' for Inactive)
REMARK    1  A    between atoms: C_2  and  C_3
REMARK    2  A    between atoms: C_21  and  C_22
REMARK                            x       y       z     vdW  Elec       q    Type
REMARK                         _______ _______ _______ _____ _____    ______ ____
ROOT
ATOM      1  C   UNL     1       1.165   6.056 -11.454  0.00  0.00    +0.180 C 
ATOM      2  C   UNL     1       2.099   6.046 -10.305  0.00  0.00    +0.037 C 
ATOM      3  C   UNL     1       1.002   5.514  -9.208  0.00  0.00    +0.003 C 
ATOM      4  C   UNL     1       2.228   4.922  -8.173  0.00  0.00    +0.001 C 
ATOM      5  C   UNL     1       2.312   6.416  -7.381  0.00  0.00    +0.004 C 
ATOM      6  C   UNL     1       3.321   7.038  -8.483  0.00  0.00    +0.000 C 
ATOM      7  C   UNL     1       3.624   5.861  -6.429  0.00  0.00    +0.019 C 
ATOM      8  C   UNL     1       2.622   5.188  -5.350  0.00  0.00    -0.042 C 
ATOM      9  C   UNL     1       3.206   5.059  -4.168  0.00  0.00    +0.029 C 
ATOM     10  C   UNL     1       4.207   5.964  -3.646  0.00  0.00    +0.173 C 
ATOM     11  C   UNL     1       4.761   6.977  -4.599  0.00  0.00    +0.069 C 
ATOM     12  O   UNL     1       4.233   6.321  -2.428  0.00  0.00    -0.291 OA
ATOM     13  C   UNL     1       1.902   3.990  -5.858  0.00  0.00    +0.022 C 
ATOM     14  C   UNL     1       3.667   7.280  -5.586  0.00  0.00    +0.012 C 
ATOM     15  C   UNL     1       1.137   4.349  -7.122  0.00  0.00    +0.004 C 
ATOM     16  C   UNL     1       0.897   4.095 -10.029  0.00  0.00    +0.004 C 
ATOM     17  C   UNL     1       2.535   7.317  -9.732  0.00  0.00    +0.003 C 
ATOM     18  C   UNL     1       0.612   4.636 -11.426  0.00  0.00    +0.043 C 
ATOM     19  O   UNL     1       1.904   6.272 -12.623  0.00  0.00    -0.212 OA
ENDROOT
BRANCH   1  21
ATOM     20  C   UNL     1      -0.791   7.731 -11.417  0.00  0.00    -0.012 C 
ATOM     21  C   UNL     1       0.097   7.037 -11.300  0.00  0.00    -0.049 C 
ENDBRANCH   1  21
BRANCH   2  22
ATOM     22  C   UNL     1       3.100   4.969 -10.484  0.00  0.00    +0.003 C 
ATOM     23  C   UNL     1       4.408   5.392 -11.063  0.00  0.00    +0.000 C 
ENDBRANCH   2  22
TORSDOF 2
ENDMDL
MODEL 5
REMARK VINA RESULT:      -7.2      3.865      6.619
REMARK  Name = 
REMARK  2 active torsions:
REMARK  status: ('A' for Active; 'I' for Inactive)
REMARK    1  A    between atoms: C_2  and  C_3
REMARK    2  A    between atoms: C_21  and  C_22
REMARK                            x       y       z     vdW  Elec       q    Type
REMARK                         _______ _______ _______ _____ _____    ______ ____
ROOT
ATOM      1  C   UNL     1       0.361   5.582  -7.017  0.00  0.00    +0.180 C 
ATOM      2  C   UNL     1       1.320   5.612  -8.144  0.00  0.00    +0.037 C 
ATOM      3  C   UNL     1       2.669   5.555  -7.212  0.00  0.00    +0.003 C 
ATOM      4  C   UNL     1       3.612   4.944  -8.501  0.00  0.00    +0.001 C 
ATOM      5  C   UNL     1       4.003   6.517  -8.990  0.00  0.00    +0.004 C 
ATOM      6  C   UNL     1       2.642   6.677  -9.851  0.00  0.00    +0.000 C 
ATOM      7  C   UNL     1       4.845   5.905 -10.352  0.00  0.00    +0.019 C 
ATOM      8  C   UNL     1       6.195   5.691  -9.484  0.00  0.00    -0.042 C 
ATOM      9  C   UNL     1       7.268   5.686 -10.260  0.00  0.00    +0.029 C 
ATOM     10  C   UNL     1       7.399   6.449 -11.481  0.00  0.00    +0.173 C 
ATOM     11  C   UNL     1       6.159   7.109 -11.999  0.00  0.00    +0.069 C 
ATOM     12  O   UNL     1       8.478   7.033 -11.807  0.00  0.00    -0.291 OA
ATOM     13  C   UNL     1       6.104   4.591  -8.486  0.00  0.00    +0.022 C 
ATOM     14  C   UNL     1       5.309   7.426 -10.799  0.00  0.00    +0.012 C 
ATOM     15  C   UNL     1       4.924   4.837  -7.558  0.00  0.00    +0.004 C 
ATOM     16  C   UNL     1       2.235   4.052  -6.709  0.00  0.00    +0.004 C 
ATOM     17  C   UNL     1       1.500   6.853  -8.893  0.00  0.00    +0.003 C 
ATOM     18  C   UNL     1       0.811   4.344  -6.250  0.00  0.00    +0.043 C 
ATOM     19  O   UNL     1      -0.926   5.396  -7.536  0.00  0.00    -0.212 OA
ENDROOT
BRANCH   1  21
ATOM     20  C   UNL     1       0.362   7.564  -5.372  0.00  0.00    -0.012 C 
ATOM     21  C   UNL     1       0.440   6.775  -6.182  0.00  0.00    -0.049 C 
ENDBRANCH   1  21
BRANCH   2  22
ATOM     22  C   UNL     1       1.250   4.336  -8.894  0.00  0.00    +0.003 C 
ATOM     23  C   UNL     1       0.492   4.382 -10.179  0.00  0.00    +0.000 C 
ENDBRANCH   2  22
TORSDOF 2
ENDMDL
MODEL 6
REMARK VINA RESULT:      -7.0      1.941      6.762
REMARK  Name = 
REMARK  2 active torsions:
REMARK  status: ('A' for Active; 'I' for Inactive)
REMARK    1  A    between atoms: C_2  and  C_3
REMARK    2  A    between atoms: C_21  and  C_22
REMARK                            x       y       z     vdW  Elec       q    Type
REMARK                         _______ _______ _______ _____ _____    ______ ____
ROOT
ATOM      1  C   UNL     1       3.201   6.417  -3.598  0.00  0.00    +0.180 C 
ATOM      2  C   UNL     1       2.296   6.237  -4.756  0.00  0.00    +0.037 C 
ATOM      3  C   UNL     1       3.444   5.649  -5.770  0.00  0.00    +0.003 C 
ATOM      4  C   UNL     1       2.274   4.888  -6.758  0.00  0.00    +0.001 C 
ATOM      5  C   UNL     1       2.135   6.284  -7.706  0.00  0.00    +0.004 C 
ATOM      6  C   UNL     1       1.070   6.965  -6.696  0.00  0.00    +0.000 C 
ATOM      7  C   UNL     1       0.875   5.562  -8.617  0.00  0.00    +0.019 C 
ATOM      8  C   UNL     1       1.935   4.832  -9.600  0.00  0.00    -0.042 C 
ATOM      9  C   UNL     1       1.386   4.548 -10.771  0.00  0.00    +0.029 C 
ATOM     10  C   UNL     1       0.355   5.338 -11.405  0.00  0.00    +0.173 C 
ATOM     11  C   UNL     1      -0.272   6.417 -10.577  0.00  0.00    +0.069 C 
ATOM     12  O   UNL     1       0.340   5.563 -12.655  0.00  0.00    -0.291 OA
ATOM     13  C   UNL     1       2.702   3.734  -8.953  0.00  0.00    +0.022 C 
ATOM     14  C   UNL     1       0.782   6.880  -9.608  0.00  0.00    +0.012 C 
ATOM     15  C   UNL     1       3.418   4.264  -7.720  0.00  0.00    +0.004 C 
ATOM     16  C   UNL     1       3.601   4.334  -4.799  0.00  0.00    +0.004 C 
ATOM     17  C   UNL     1       1.811   7.415  -5.469  0.00  0.00    +0.003 C 
ATOM     18  C   UNL     1       3.825   5.033  -3.463  0.00  0.00    +0.043 C 
ATOM     19  O   UNL     1       2.425   6.717  -2.472  0.00  0.00    -0.212 OA
ENDROOT
BRANCH   1  21
ATOM     20  C   UNL     1       5.163   8.019  -4.068  0.00  0.00    -0.012 C 
ATOM     21  C   UNL     1       4.222   7.432  -3.836  0.00  0.00    -0.049 C 
ENDBRANCH   1  21
BRANCH   2  22
ATOM     22  C   UNL     1       1.347   5.134  -4.481  0.00  0.00    +0.003 C 
ATOM     23  C   UNL     1       0.028   5.543  -3.914  0.00  0.00    +0.000 C 
ENDBRANCH   2  22
TORSDOF 2
ENDMDL
MODEL 7
REMARK VINA RESULT:      -7.0      2.847      7.274
REMARK  Name = 
REMARK  2 active torsions:
REMARK  status: ('A' for Active; 'I' for Inactive)
REMARK    1  A    between atoms: C_2  and  C_3
REMARK    2  A    between atoms: C_21  and  C_22
REMARK                            x       y       z     vdW  Elec       q    Type
REMARK                         _______ _______ _______ _____ _____    ______ ____
ROOT
ATOM      1  C   UNL     1       0.813   6.315  -4.968  0.00  0.00    +0.180 C 
ATOM      2  C   UNL     1       0.992   5.703  -6.304  0.00  0.00    +0.037 C 
ATOM      3  C   UNL     1       1.522   7.071  -7.039  0.00  0.00    +0.003 C 
ATOM      4  C   UNL     1       2.293   6.183  -8.280  0.00  0.00    +0.001 C 
ATOM      5  C   UNL     1       0.881   6.214  -9.212  0.00  0.00    +0.004 C 
ATOM      6  C   UNL     1       0.255   4.925  -8.460  0.00  0.00    +0.000 C 
ATOM      7  C   UNL     1       1.617   5.220 -10.398  0.00  0.00    +0.019 C 
ATOM      8  C   UNL     1       2.292   6.500 -11.125  0.00  0.00    -0.042 C 
ATOM      9  C   UNL     1       2.564   6.241 -12.395  0.00  0.00    +0.029 C 
ATOM     10  C   UNL     1       1.790   5.354 -13.235  0.00  0.00    +0.173 C 
ATOM     11  C   UNL     1       0.751   4.519 -12.553  0.00  0.00    +0.069 C 
ATOM     12  O   UNL     1       1.536   5.615 -14.451  0.00  0.00    -0.291 OA
ATOM     13  C   UNL     1       3.382   7.137 -10.339  0.00  0.00    +0.022 C 
ATOM     14  C   UNL     1       0.280   5.308 -11.362  0.00  0.00    +0.012 C 
ATOM     15  C   UNL     1       2.860   7.535  -8.967  0.00  0.00    +0.004 C 
ATOM     16  C   UNL     1       2.855   7.048  -6.081  0.00  0.00    +0.004 C 
ATOM     17  C   UNL     1      -0.187   5.353  -7.090  0.00  0.00    +0.003 C 
ATOM     18  C   UNL     1       2.181   6.939  -4.718  0.00  0.00    +0.043 C 
ATOM     19  O   UNL     1       0.564   5.293  -4.044  0.00  0.00    -0.212 OA
ENDROOT
BRANCH   1  21
ATOM     20  C   UNL     1      -1.188   7.930  -4.830  0.00  0.00    -0.012 C 
ATOM     21  C   UNL     1      -0.236   7.328  -4.951  0.00  0.00    -0.049 C 
ENDBRANCH   1  21
BRANCH   2  22
ATOM     22  C   UNL     1       2.130   4.755  -6.271  0.00  0.00    +0.003 C 
ATOM     23  C   UNL     1       1.768   3.310  -6.364  0.00  0.00    +0.000 C 
ENDBRANCH   2  22
TORSDOF 2
ENDMDL
MODEL 8
REMARK VINA RESULT:      -6.8      1.935      3.662
REMARK  Name = 
REMARK  2 active torsions:
REMARK  status: ('A' for Active; 'I' for Inactive)
REMARK    1  A    between atoms: C_2  and  C_3
REMARK    2  A    between atoms: C_21  and  C_22
REMARK                            x       y       z     vdW  Elec       q    Type
REMARK                         _______ _______ _______ _____ _____    ______ ____
ROOT
ATOM      1  C   UNL     1       3.033   5.786  -6.572  0.00  0.00    +0.180 C 
ATOM      2  C   UNL     1       3.424   6.008  -5.162  0.00  0.00    +0.037 C 
ATOM      3  C   UNL     1       1.913   6.359  -4.628  0.00  0.00    +0.003 C 
ATOM      4  C   UNL     1       2.318   5.952  -3.017  0.00  0.00    +0.001 C 
ATOM      5  C   UNL     1       2.807   7.543  -2.713  0.00  0.00    +0.004 C 
ATOM      6  C   UNL     1       4.287   7.292  -3.317  0.00  0.00    +0.000 C 
ATOM      7  C   UNL     1       3.326   7.104  -1.140  0.00  0.00    +0.019 C 
ATOM      8  C   UNL     1       1.836   7.301  -0.538  0.00  0.00    -0.042 C 
ATOM      9  C   UNL     1       1.872   7.538   0.764  0.00  0.00    +0.029 C 
ATOM     10  C   UNL     1       2.940   8.242   1.439  0.00  0.00    +0.173 C 
ATOM     11  C   UNL     1       4.173   8.522   0.638  0.00  0.00    +0.069 C 
ATOM     12  O   UNL     1       2.724   9.072   2.374  0.00  0.00    -0.291 OA
ATOM     13  C   UNL     1       0.862   6.271  -0.989  0.00  0.00    +0.022 C 
ATOM     14  C   UNL     1       3.731   8.667  -0.793  0.00  0.00    +0.012 C 
ATOM     15  C   UNL     1       0.808   6.246  -2.509  0.00  0.00    +0.004 C 
ATOM     16  C   UNL     1       1.450   4.825  -4.987  0.00  0.00    +0.004 C 
ATOM     17  C   UNL     1       4.175   7.211  -4.813  0.00  0.00    +0.003 C 
ATOM     18  C   UNL     1       1.920   4.754  -6.435  0.00  0.00    +0.043 C 
ATOM     19  O   UNL     1       4.127   5.239  -7.254  0.00  0.00    -0.212 OA
ENDROOT
BRANCH   1  21
ATOM     20  C   UNL     1       2.168   7.799  -7.926  0.00  0.00    -0.012 C 
ATOM     21  C   UNL     1       2.546   7.000  -7.218  0.00  0.00    -0.049 C 
ENDBRANCH   1  21
BRANCH   2  22
ATOM     22  C   UNL     1       3.819   4.721  -4.544  0.00  0.00    +0.003 C 
ATOM     23  C   UNL     1       5.274   4.565  -4.251  0.00  0.00    +0.000 C 
ENDBRANCH   2  22
TORSDOF 2
ENDMDL
MODEL 9
REMARK VINA RESULT:      -6.7      2.330      3.779
REMARK  Name = 
REMARK  2 active torsions:
REMARK  status: ('A' for Active; 'I' for Inactive)
REMARK    1  A    between atoms: C_2  and  C_3
REMARK    2  A    between atoms: C_21  and  C_22
REMARK                            x       y       z     vdW  Elec       q    Type
REMARK                         _______ _______ _______ _____ _____    ______ ____
ROOT
ATOM      1  C   UNL     1       4.007   6.151 -10.769  0.00  0.00    +0.180 C 
ATOM      2  C   UNL     1       3.814   5.641  -9.392  0.00  0.00    +0.037 C 
ATOM      3  C   UNL     1       3.182   7.030  -8.791  0.00  0.00    +0.003 C 
ATOM      4  C   UNL     1       2.417   6.202  -7.505  0.00  0.00    +0.001 C 
ATOM      5  C   UNL     1       3.791   6.394  -6.535  0.00  0.00    +0.004 C 
ATOM      6  C   UNL     1       4.515   5.088  -7.156  0.00  0.00    +0.000 C 
ATOM      7  C   UNL     1       3.069   5.458  -5.294  0.00  0.00    +0.019 C 
ATOM      8  C   UNL     1       2.297   6.751  -4.698  0.00  0.00    -0.042 C 
ATOM      9  C   UNL     1       1.994   6.581  -3.420  0.00  0.00    +0.029 C 
ATOM     10  C   UNL     1       2.786   5.814  -2.485  0.00  0.00    +0.173 C 
ATOM     11  C   UNL     1       3.895   4.989  -3.061  0.00  0.00    +0.069 C 
ATOM     12  O   UNL     1       2.980   6.188  -1.288  0.00  0.00    -0.291 OA
ATOM     13  C   UNL     1       1.202   7.255  -5.569  0.00  0.00    +0.022 C 
ATOM     14  C   UNL     1       4.363   5.705  -4.299  0.00  0.00    +0.012 C 
ATOM     15  C   UNL     1       1.750   7.571  -6.952  0.00  0.00    +0.004 C 
ATOM     16  C   UNL     1       1.887   6.850  -9.786  0.00  0.00    +0.004 C 
ATOM     17  C   UNL     1       4.982   5.427  -8.543  0.00  0.00    +0.003 C 
ATOM     18  C   UNL     1       2.616   6.669 -11.113  0.00  0.00    +0.043 C 
ATOM     19  O   UNL     1       4.347   5.073 -11.595  0.00  0.00    -0.212 OA
ENDROOT
BRANCH   1  21
ATOM     20  C   UNL     1       5.861   7.911 -11.080  0.00  0.00    -0.012 C 
ATOM     21  C   UNL     1       4.997   7.219 -10.838  0.00  0.00    -0.049 C 
ENDBRANCH   1  21
BRANCH   2  22
ATOM     22  C   UNL     1       2.734   4.627  -9.381  0.00  0.00    +0.003 C 
ATOM     23  C   UNL     1       3.062   3.343  -8.695  0.00  0.00    +0.000 C 
ENDBRANCH   2  22
TORSDOF 2
ENDMDL
