MODEL 1
REMARK VINA RESULT:      -7.1      0.000      0.000
REMARK  Name = 
REMARK  7 active torsions:
REMARK  status: ('A' for Active; 'I' for Inactive)
REMARK    1  A    between atoms: C_2  and  C_3
REMARK    2  A    between atoms: C_3  and  C_4
REMARK    3  A    between atoms: C_6  and  C_7
REMARK    4  A    between atoms: N_9  and  C_10
REMARK    5  A    between atoms: C_10  and  C_11
REMARK    6  A    between atoms: C_10  and  C_14
REMARK    7  A    between atoms: C_16  and  S_17
REMARK                            x       y       z     vdW  Elec       q    Type
REMARK                         _______ _______ _______ _____ _____    ______ ____
ROOT
ATOM      1  C   UNL     1       1.620   5.016  -9.496  0.00  0.00    +0.140 C 
ENDROOT
BRANCH   1   2
ATOM      2  C   UNL     1       1.547   5.346  -7.843  0.00  0.00    +0.170 C 
ATOM      3  C   UNL     1       2.403   4.036  -7.162  0.00  0.00    +0.213 C 
ATOM      4  O   UNL     1       1.534   3.581  -6.032  0.00  0.00    -0.218 OA
ATOM      5  C   UNL     1       3.066   5.392  -6.345  0.00  0.00    +0.218 C 
ATOM      6  O   UNL     1       3.506   4.583  -5.156  0.00  0.00    -0.217 OA
ATOM      7  C   UNL     1       1.672   6.041  -5.607  0.00  0.00    +0.222 C 
ATOM      8  O   UNL     1       1.410   7.108  -6.662  0.00  0.00    -0.217 OA
ATOM      9  C   UNL     1       0.365   5.053  -6.002  0.00  0.00    +0.195 C 
ATOM     10  O   UNL     1       0.166   4.999  -7.464  0.00  0.00    -0.341 OA
BRANCH   9  11
ATOM     11  S   UNL     1      -0.880   6.496  -5.696  0.00  0.00    -0.108 S 
ATOM     12  C   UNL     1      -2.369   5.661  -6.348  0.00  0.00    +0.072 C 
ENDBRANCH   9  11
ENDBRANCH   1   2
BRANCH   1  13
ATOM     13  C   UNL     1       0.081   5.239 -10.166  0.00  0.00    +0.102 C 
ATOM     14 CL   UNL     1       0.184   4.418 -11.837  0.00  0.00    -0.113 Cl
ATOM     15  C   UNL     1       0.155   6.813 -10.462  0.00  0.00    +0.019 C 
ENDBRANCH   1  13
BRANCH   1  17
ATOM     16  C   UNL     1       3.589   6.360 -10.213  0.00  0.00    +0.256 C 
ATOM     17  N   UNL     1       2.149   6.346 -10.128  0.00  0.00    -0.202 NA
ATOM     18  O   UNL     1       4.007   6.918  -9.239  0.00  0.00    -0.272 OA
BRANCH  16  23
ATOM     19  C   UNL     1       5.610   6.009 -13.319  0.00  0.00    +0.018 C 
ATOM     20  C   UNL     1       4.519   4.816 -13.199  0.00  0.00    +0.073 C 
ATOM     21  N   UNL     1       3.423   5.380 -12.422  0.00  0.00    -0.265 NA
ATOM     22  C   UNL     1       3.088   6.701 -12.923  0.00  0.00    +0.090 C 
ATOM     23  C   UNL     1       4.435   5.455 -11.225  0.00  0.00    +0.137 C 
ATOM     24  C   UNL     1       5.116   6.740 -11.980  0.00  0.00    +0.027 C 
BRANCH  19  25
ATOM     25  C   UNL     1       6.781   5.251 -12.469  0.00  0.00    +0.001 C 
BRANCH  25  27
ATOM     26  C   UNL     1       8.928   5.783 -12.004  0.00  0.00    +0.000 C 
ATOM     27  C   UNL     1       8.057   5.897 -12.899  0.00  0.00    +0.000 C 
ENDBRANCH  25  27
ENDBRANCH  19  25
ENDBRANCH  16  23
ENDBRANCH   1  17
TORSDOF 7
ENDMDL
MODEL 2
REMARK VINA RESULT:      -7.1      3.795      6.182
REMARK  Name = 
REMARK  7 active torsions:
REMARK  status: ('A' for Active; 'I' for Inactive)
REMARK    1  A    between atoms: C_2  and  C_3
REMARK    2  A    between atoms: C_3  and  C_4
REMARK    3  A    between atoms: C_6  and  C_7
REMARK    4  A    between atoms: N_9  and  C_10
REMARK    5  A    between atoms: C_10  and  C_11
REMARK    6  A    between atoms: C_10  and  C_14
REMARK    7  A    between atoms: C_16  and  S_17
REMARK                            x       y       z     vdW  Elec       q    Type
REMARK                         _______ _______ _______ _____ _____    ______ ____
ROOT
ATOM      1  C   UNL     1       1.002   6.687  -4.539  0.00  0.00    +0.140 C 
ENDROOT
BRANCH   1   2
ATOM      2  C   UNL     1      -0.110   6.296  -3.332  0.00  0.00    +0.170 C 
ATOM      3  C   UNL     1      -1.564   6.957  -3.934  0.00  0.00    +0.213 C 
ATOM      4  O   UNL     1      -2.148   7.682  -2.762  0.00  0.00    -0.218 OA
ATOM      5  C   UNL     1      -2.038   5.387  -3.430  0.00  0.00    +0.218 C 
ATOM      6  O   UNL     1      -3.480   5.773  -3.254  0.00  0.00    -0.217 OA
ATOM      7  C   UNL     1      -1.640   5.443  -1.773  0.00  0.00    +0.222 C 
ATOM      8  O   UNL     1      -0.298   4.733  -1.903  0.00  0.00    -0.217 OA
ATOM      9  C   UNL     1      -1.018   6.973  -1.437  0.00  0.00    +0.195 C 
ATOM     10  O   UNL     1       0.190   7.241  -2.242  0.00  0.00    -0.341 OA
BRANCH   9  11
ATOM     11  S   UNL     1      -0.072   6.303   0.106  0.00  0.00    -0.108 S 
ATOM     12  C   UNL     1       1.459   7.275  -0.118  0.00  0.00    +0.072 C 
ENDBRANCH   9  11
ENDBRANCH   1   2
BRANCH   1  13
ATOM     13  C   UNL     1       2.537   6.837  -3.840  0.00  0.00    +0.102 C 
ATOM     14 CL   UNL     1       3.660   7.229  -5.275  0.00  0.00    -0.113 Cl
ATOM     15  C   UNL     1       2.814   5.297  -3.494  0.00  0.00    +0.019 C 
ENDBRANCH   1  13
BRANCH   1  17
ATOM     16  C   UNL     1       0.857   5.195  -6.526  0.00  0.00    +0.256 C 
ATOM     17  N   UNL     1       1.368   5.309  -5.182  0.00  0.00    -0.202 NA
ATOM     18  O   UNL     1      -0.199   4.635  -6.469  0.00  0.00    -0.272 OA
BRANCH  16  23
ATOM     19  C   UNL     1       1.673   5.411 -10.151  0.00  0.00    +0.018 C 
ATOM     20  C   UNL     1       2.895   5.974  -9.247  0.00  0.00    +0.073 C 
ATOM     21  N   UNL     1       2.793   5.259  -7.982  0.00  0.00    -0.265 NA
ATOM     22  C   UNL     1       2.587   3.843  -8.228  0.00  0.00    +0.090 C 
ATOM     23  C   UNL     1       1.433   6.014  -7.775  0.00  0.00    +0.137 C 
ATOM     24  C   UNL     1       0.785   4.995  -8.883  0.00  0.00    +0.027 C 
BRANCH  19  25
ATOM     25  C   UNL     1       0.868   6.830 -10.246  0.00  0.00    +0.001 C 
BRANCH  25  27
ATOM     26  C   UNL     1      -0.734   7.651 -11.614  0.00  0.00    +0.000 C 
ATOM     27  C   UNL     1      -0.274   6.570 -11.172  0.00  0.00    +0.000 C 
ENDBRANCH  25  27
ENDBRANCH  19  25
ENDBRANCH  16  23
ENDBRANCH   1  17
TORSDOF 7
ENDMDL
MODEL 3
REMARK VINA RESULT:      -6.9      3.997      7.779
REMARK  Name = 
REMARK  7 active torsions:
REMARK  status: ('A' for Active; 'I' for Inactive)
REMARK    1  A    between atoms: C_2  and  C_3
REMARK    2  A    between atoms: C_3  and  C_4
REMARK    3  A    between atoms: C_6  and  C_7
REMARK    4  A    between atoms: N_9  and  C_10
REMARK    5  A    between atoms: C_10  and  C_11
REMARK    6  A    between atoms: C_10  and  C_14
REMARK    7  A    between atoms: C_16  and  S_17
REMARK                            x       y       z     vdW  Elec       q    Type
REMARK                         _______ _______ _______ _____ _____    ______ ____
ROOT
ATOM      1  C   UNL     1       1.738   5.834  -5.861  0.00  0.00    +0.140 C 
ENDROOT
BRANCH   1   2
ATOM      2  C   UNL     1       2.281   5.458  -7.413  0.00  0.00    +0.170 C 
ATOM      3  C   UNL     1       3.503   6.622  -7.675  0.00  0.00    +0.213 C 
ATOM      4  O   UNL     1       3.220   7.145  -9.048  0.00  0.00    -0.218 OA
ATOM      5  C   UNL     1       4.248   5.164  -8.187  0.00  0.00    +0.218 C 
ATOM      6  O   UNL     1       5.226   5.867  -9.088  0.00  0.00    -0.217 OA
ATOM      7  C   UNL     1       3.188   4.675  -9.429  0.00  0.00    +0.222 C 
ATOM      8  O   UNL     1       2.391   3.688  -8.585  0.00  0.00    -0.217 OA
ATOM      9  C   UNL     1       1.974   5.836  -9.566  0.00  0.00    +0.195 C 
ATOM     10  O   UNL     1       1.223   5.967  -8.303  0.00  0.00    -0.341 OA
BRANCH   9  11
ATOM     11  S   UNL     1       0.772   4.556 -10.368  0.00  0.00    -0.108 S 
ATOM     12  C   UNL     1       0.786   5.250 -12.058  0.00  0.00    +0.072 C 
ENDBRANCH   9  11
ENDBRANCH   1   2
BRANCH   1  13
ATOM     13  C   UNL     1       0.359   4.910  -5.526  0.00  0.00    +0.102 C 
ATOM     14 CL   UNL     1      -0.925   5.553  -6.714  0.00  0.00    -0.113 Cl
ATOM     15  C   UNL     1      -0.030   5.536  -4.103  0.00  0.00    +0.019 C 
ENDBRANCH   1  13
BRANCH   1  17
ATOM     16  C   UNL     1       3.526   5.756  -4.131  0.00  0.00    +0.256 C 
ATOM     17  N   UNL     1       2.625   4.953  -4.921  0.00  0.00    -0.202 NA
ATOM     18  O   UNL     1       4.574   5.804  -4.707  0.00  0.00    -0.272 OA
BRANCH  16  23
ATOM     19  C   UNL     1       4.188   7.362  -0.839  0.00  0.00    +0.018 C 
ATOM     20  C   UNL     1       2.699   6.721  -0.883  0.00  0.00    +0.073 C 
ATOM     21  N   UNL     1       2.789   5.616  -1.827  0.00  0.00    -0.265 NA
ATOM     22  C   UNL     1       3.976   4.825  -1.553  0.00  0.00    +0.090 C 
ATOM     23  C   UNL     1       3.059   6.702  -2.927  0.00  0.00    +0.137 C 
ATOM     24  C   UNL     1       4.570   6.845  -2.308  0.00  0.00    +0.027 C 
BRANCH  19  25
ATOM     25  C   UNL     1       3.763   8.811  -1.463  0.00  0.00    +0.001 C 
BRANCH  25  27
ATOM     26  C   UNL     1       3.495  10.859  -0.543  0.00  0.00    +0.000 C 
ATOM     27  C   UNL     1       3.356   9.639  -0.288  0.00  0.00    +0.000 C 
ENDBRANCH  25  27
ENDBRANCH  19  25
ENDBRANCH  16  23
ENDBRANCH   1  17
TORSDOF 7
ENDMDL
MODEL 4
REMARK VINA RESULT:      -6.7      3.806      8.435
REMARK  Name = 
REMARK  7 active torsions:
REMARK  status: ('A' for Active; 'I' for Inactive)
REMARK    1  A    between atoms: C_2  and  C_3
REMARK    2  A    between atoms: C_3  and  C_4
REMARK    3  A    between atoms: C_6  and  C_7
REMARK    4  A    between atoms: N_9  and  C_10
REMARK    5  A    between atoms: C_10  and  C_11
REMARK    6  A    between atoms: C_10  and  C_14
REMARK    7  A    between atoms: C_16  and  S_17
REMARK                            x       y       z     vdW  Elec       q    Type
REMARK                         _______ _______ _______ _____ _____    ______ ____
ROOT
ATOM      1  C   UNL     1       2.809   5.209  -5.846  0.00  0.00    +0.140 C 
ENDROOT
BRANCH   1   2
ATOM      2  C   UNL     1       2.635   5.644  -7.467  0.00  0.00    +0.170 C 
ATOM      3  C   UNL     1       1.393   4.604  -8.003  0.00  0.00    +0.213 C 
ATOM      4  O   UNL     1       1.904   4.065  -9.302  0.00  0.00    -0.218 OA
ATOM      5  C   UNL     1       0.907   6.130  -8.620  0.00  0.00    +0.218 C 
ATOM      6  O   UNL     1       0.076   5.528  -9.719  0.00  0.00    -0.217 OA
ATOM      7  C   UNL     1       2.241   6.523  -9.605  0.00  0.00    +0.222 C 
ATOM      8  O   UNL     1       2.934   7.424  -8.591  0.00  0.00    -0.217 OA
ATOM      9  C   UNL     1       3.345   5.252  -9.519  0.00  0.00    +0.195 C 
ATOM     10  O   UNL     1       3.804   5.042  -8.133  0.00  0.00    -0.341 OA
BRANCH   9  11
ATOM     11  S   UNL     1       4.799   6.417 -10.025  0.00  0.00    -0.108 S 
ATOM     12  C   UNL     1       6.117   5.564  -9.089  0.00  0.00    +0.072 C 
ENDBRANCH   9  11
ENDBRANCH   1   2
BRANCH   1  13
ATOM     13  C   UNL     1       4.442   5.343  -5.417  0.00  0.00    +0.102 C 
ATOM     14 CL   UNL     1       4.547   4.520  -3.747  0.00  0.00    -0.113 Cl
ATOM     15  C   UNL     1       4.501   6.916  -5.119  0.00  0.00    +0.019 C 
ENDBRANCH   1  13
BRANCH   1  17
ATOM     16  C   UNL     1       1.039   6.539  -4.709  0.00  0.00    +0.256 C 
ATOM     17  N   UNL     1       2.438   6.508  -5.059  0.00  0.00    -0.202 NA
ATOM     18  O   UNL     1       0.463   7.156  -5.559  0.00  0.00    -0.272 OA
BRANCH  16  23
ATOM     19  C   UNL     1      -0.431   6.057  -1.324  0.00  0.00    +0.018 C 
ATOM     20  C   UNL     1       0.618   4.872  -1.675  0.00  0.00    +0.073 C 
ATOM     21  N   UNL     1       1.570   5.469  -2.601  0.00  0.00    -0.265 NA
ATOM     22  C   UNL     1       1.992   6.769  -2.110  0.00  0.00    +0.090 C 
ATOM     23  C   UNL     1       0.371   5.591  -3.607  0.00  0.00    +0.137 C 
ATOM     24  C   UNL     1      -0.166   6.843  -2.696  0.00  0.00    +0.027 C 
BRANCH  19  25
ATOM     25  C   UNL     1      -1.732   5.331  -1.994  0.00  0.00    +0.001 C 
BRANCH  25  27
ATOM     26  C   UNL     1      -3.676   6.105  -2.851  0.00  0.00    +0.000 C 
ATOM     27  C   UNL     1      -2.805   6.370  -1.988  0.00  0.00    +0.000 C 
ENDBRANCH  25  27
ENDBRANCH  19  25
ENDBRANCH  16  23
ENDBRANCH   1  17
TORSDOF 7
ENDMDL
MODEL 5
REMARK VINA RESULT:      -6.6      3.438      7.346
REMARK  Name = 
REMARK  7 active torsions:
REMARK  status: ('A' for Active; 'I' for Inactive)
REMARK    1  A    between atoms: C_2  and  C_3
REMARK    2  A    between atoms: C_3  and  C_4
REMARK    3  A    between atoms: C_6  and  C_7
REMARK    4  A    between atoms: N_9  and  C_10
REMARK    5  A    between atoms: C_10  and  C_11
REMARK    6  A    between atoms: C_10  and  C_14
REMARK    7  A    between atoms: C_16  and  S_17
REMARK                            x       y       z     vdW  Elec       q    Type
REMARK                         _______ _______ _______ _____ _____    ______ ____
ROOT
ATOM      1  C   UNL     1       4.066   6.705 -10.172  0.00  0.00    +0.140 C 
ENDROOT
BRANCH   1   2
ATOM      2  C   UNL     1       5.260   6.271 -11.282  0.00  0.00    +0.170 C 
ATOM      3  C   UNL     1       6.691   6.803 -10.520  0.00  0.00    +0.213 C 
ATOM      4  O   UNL     1       7.437   7.518 -11.603  0.00  0.00    -0.218 OA
ATOM      5  C   UNL     1       7.100   5.218 -11.036  0.00  0.00    +0.218 C 
ATOM      6  O   UNL     1       8.576   5.502 -11.059  0.00  0.00    -0.217 OA
ATOM      7  C   UNL     1       6.870   5.354 -12.720  0.00  0.00    +0.222 C 
ATOM      8  O   UNL     1       5.475   4.743 -12.745  0.00  0.00    -0.217 OA
ATOM      9  C   UNL     1       6.394   6.936 -13.055  0.00  0.00    +0.195 C 
ATOM     10  O   UNL     1       5.135   7.268 -12.359  0.00  0.00    -0.341 OA
BRANCH   9  11
ATOM     11  S   UNL     1       5.557   6.385 -14.706  0.00  0.00    -0.108 S 
ATOM     12  C   UNL     1       6.258   7.695 -15.770  0.00  0.00    +0.072 C 
ENDBRANCH   9  11
ENDBRANCH   1   2
BRANCH   1  13
ATOM     13  C   UNL     1       2.563   6.685 -10.951  0.00  0.00    +0.102 C 
ATOM     14 CL   UNL     1       1.330   6.959  -9.579  0.00  0.00    -0.113 Cl
ATOM     15  C   UNL     1       2.473   5.122 -11.295  0.00  0.00    +0.019 C 
ENDBRANCH   1  13
BRANCH   1  17
ATOM     16  C   UNL     1       4.251   5.408  -8.056  0.00  0.00    +0.256 C 
ATOM     17  N   UNL     1       3.752   5.377  -9.408  0.00  0.00    -0.202 NA
ATOM     18  O   UNL     1       5.331   4.893  -8.053  0.00  0.00    -0.272 OA
BRANCH  16  23
ATOM     19  C   UNL     1       3.429   5.940  -4.465  0.00  0.00    +0.018 C 
ATOM     20  C   UNL     1       2.171   6.329  -5.411  0.00  0.00    +0.073 C 
ATOM     21  N   UNL     1       2.317   5.497  -6.598  0.00  0.00    -0.265 NA
ATOM     22  C   UNL     1       2.614   4.129  -6.211  0.00  0.00    +0.090 C 
ATOM     23  C   UNL     1       3.626   6.312  -6.892  0.00  0.00    +0.137 C 
ATOM     24  C   UNL     1       4.340   5.455  -5.691  0.00  0.00    +0.027 C 
BRANCH  19  25
ATOM     25  C   UNL     1       4.141   7.409  -4.521  0.00  0.00    +0.001 C 
BRANCH  25  27
ATOM     26  C   UNL     1       4.847   7.375  -2.374  0.00  0.00    +0.000 C 
ATOM     27  C   UNL     1       5.275   7.332  -3.552  0.00  0.00    +0.000 C 
ENDBRANCH  25  27
ENDBRANCH  19  25
ENDBRANCH  16  23
ENDBRANCH   1  17
TORSDOF 7
ENDMDL
MODEL 6
REMARK VINA RESULT:      -6.5      2.737      3.900
REMARK  Name = 
REMARK  7 active torsions:
REMARK  status: ('A' for Active; 'I' for Inactive)
REMARK    1  A    between atoms: C_2  and  C_3
REMARK    2  A    between atoms: C_3  and  C_4
REMARK    3  A    between atoms: C_6  and  C_7
REMARK    4  A    between atoms: N_9  and  C_10
REMARK    5  A    between atoms: C_10  and  C_11
REMARK    6  A    between atoms: C_10  and  C_14
REMARK    7  A    between atoms: C_16  and  S_17
REMARK                            x       y       z     vdW  Elec       q    Type
REMARK                         _______ _______ _______ _____ _____    ______ ____
ROOT
ATOM      1  C   UNL     1       1.274   5.247  -5.567  0.00  0.00    +0.140 C 
ENDROOT
BRANCH   1   2
ATOM      2  C   UNL     1       2.239   5.789  -4.294  0.00  0.00    +0.170 C 
ATOM      3  C   UNL     1       3.637   4.822  -4.447  0.00  0.00    +0.213 C 
ATOM      4  O   UNL     1       3.908   4.350  -3.052  0.00  0.00    -0.218 OA
ATOM      5  C   UNL     1       4.283   6.398  -4.232  0.00  0.00    +0.218 C 
ATOM      6  O   UNL     1       5.598   5.892  -3.706  0.00  0.00    -0.217 OA
ATOM      7  C   UNL     1       3.635   6.812  -2.711  0.00  0.00    +0.222 C 
ATOM      8  O   UNL     1       2.464   7.626  -3.248  0.00  0.00    -0.217 OA
ATOM      9  C   UNL     1       2.723   5.505  -2.159  0.00  0.00    +0.195 C 
ATOM     10  O   UNL     1       1.624   5.195  -3.094  0.00  0.00    -0.341 OA
BRANCH   9  11
ATOM     11  S   UNL     1       1.679   6.655  -1.014  0.00  0.00    -0.108 S 
ATOM     12  C   UNL     1       0.084   5.783  -1.201  0.00  0.00    +0.072 C 
ENDBRANCH   9  11
ENDBRANCH   1   2
BRANCH   1  13
ATOM     13  C   UNL     1      -0.353   5.414  -5.129  0.00  0.00    +0.102 C 
ATOM     14 CL   UNL     1      -1.292   5.039  -6.695  0.00  0.00    -0.113 Cl
ATOM     15  C   UNL     1      -0.415   7.007  -4.968  0.00  0.00    +0.019 C 
ENDBRANCH   1  13
BRANCH   1  17
ATOM     16  C   UNL     1       2.441   6.681  -7.235  0.00  0.00    +0.256 C 
ATOM     17  N   UNL     1       1.196   6.473  -6.536  0.00  0.00    -0.202 NA
ATOM     18  O   UNL     1       3.074   7.490  -6.620  0.00  0.00    -0.272 OA
BRANCH  16  23
ATOM     19  C   UNL     1       3.644   6.158 -10.718  0.00  0.00    +0.018 C 
ATOM     20  C   UNL     1       2.584   5.008 -10.292  0.00  0.00    +0.073 C 
ATOM     21  N   UNL     1       1.722   5.634  -9.299  0.00  0.00    -0.265 NA
ATOM     22  C   UNL     1       1.310   6.949  -9.758  0.00  0.00    +0.090 C 
ATOM     23  C   UNL     1       2.995   5.714  -8.383  0.00  0.00    +0.137 C 
ATOM     24  C   UNL     1       3.506   6.949  -9.331  0.00  0.00    +0.027 C 
BRANCH  19  25
ATOM     25  C   UNL     1       4.965   5.388 -10.144  0.00  0.00    +0.001 C 
BRANCH  25  27
ATOM     26  C   UNL     1       7.103   5.995  -9.727  0.00  0.00    +0.000 C 
ATOM     27  C   UNL     1       6.107   6.311 -10.421  0.00  0.00    +0.000 C 
ENDBRANCH  25  27
ENDBRANCH  19  25
ENDBRANCH  16  23
ENDBRANCH   1  17
TORSDOF 7
ENDMDL
MODEL 7
REMARK VINA RESULT:      -6.4      2.721      4.506
REMARK  Name = 
REMARK  7 active torsions:
REMARK  status: ('A' for Active; 'I' for Inactive)
REMARK    1  A    between atoms: C_2  and  C_3
REMARK    2  A    between atoms: C_3  and  C_4
REMARK    3  A    between atoms: C_6  and  C_7
REMARK    4  A    between atoms: N_9  and  C_10
REMARK    5  A    between atoms: C_10  and  C_11
REMARK    6  A    between atoms: C_10  and  C_14
REMARK    7  A    between atoms: C_16  and  S_17
REMARK                            x       y       z     vdW  Elec       q    Type
REMARK                         _______ _______ _______ _____ _____    ______ ____
ROOT
ATOM      1  C   UNL     1       2.563   6.323  -9.164  0.00  0.00    +0.140 C 
ENDROOT
BRANCH   1   2
ATOM      2  C   UNL     1       2.054   5.716  -7.675  0.00  0.00    +0.170 C 
ATOM      3  C   UNL     1       0.667   6.655  -7.343  0.00  0.00    +0.213 C 
ATOM      4  O   UNL     1       0.844   7.072  -5.916  0.00  0.00    -0.218 OA
ATOM      5  C   UNL     1       0.139   5.058  -6.999  0.00  0.00    +0.218 C 
ATOM      6  O   UNL     1      -0.948   5.515  -6.067  0.00  0.00    -0.217 OA
ATOM      7  C   UNL     1       1.238   4.608  -5.776  0.00  0.00    +0.222 C 
ATOM      8  O   UNL     1       2.190   3.840  -6.685  0.00  0.00    -0.217 OA
ATOM      9  C   UNL     1       2.262   5.916  -5.487  0.00  0.00    +0.195 C 
ATOM     10  O   UNL     1       3.008   6.283  -6.706  0.00  0.00    -0.341 OA
BRANCH   9  11
ATOM     11  S   UNL     1       3.627   4.752  -4.774  0.00  0.00    -0.108 S 
ATOM     12  C   UNL     1       4.791   6.057  -4.242  0.00  0.00    +0.072 C 
ENDBRANCH   9  11
ENDBRANCH   1   2
BRANCH   1  13
ATOM     13  C   UNL     1       4.251   6.222  -9.247  0.00  0.00    +0.102 C 
ATOM     14 CL   UNL     1       4.682   7.043 -10.865  0.00  0.00    -0.113 Cl
ATOM     15  C   UNL     1       4.402   4.649  -9.516  0.00  0.00    +0.019 C 
ENDBRANCH   1  13
BRANCH   1  17
ATOM     16  C   UNL     1       1.466   5.431 -11.213  0.00  0.00    +0.256 C 
ATOM     17  N   UNL     1       2.387   5.119 -10.148  0.00  0.00    -0.202 NA
ATOM     18  O   UNL     1       0.383   5.035 -10.888  0.00  0.00    -0.272 OA
BRANCH  16  23
ATOM     19  C   UNL     1       0.910   6.607 -14.701  0.00  0.00    +0.018 C 
ATOM     20  C   UNL     1       2.493   6.552 -14.352  0.00  0.00    +0.073 C 
ATOM     21  N   UNL     1       2.623   5.513 -13.340  0.00  0.00    -0.265 NA
ATOM     22  C   UNL     1       1.867   4.338 -13.735  0.00  0.00    +0.090 C 
ATOM     23  C   UNL     1       1.785   6.452 -12.403  0.00  0.00    +0.137 C 
ATOM     24  C   UNL     1       0.467   6.022 -13.275  0.00  0.00    +0.027 C 
BRANCH  19  25
ATOM     25  C   UNL     1       0.670   8.126 -14.148  0.00  0.00    +0.001 C 
BRANCH  25  27
ATOM     26  C   UNL     1       0.998  10.166 -15.065  0.00  0.00    +0.000 C 
ATOM     27  C   UNL     1       0.679   8.991 -15.366  0.00  0.00    +0.000 C 
ENDBRANCH  25  27
ENDBRANCH  19  25
ENDBRANCH  16  23
ENDBRANCH   1  17
TORSDOF 7
ENDMDL
MODEL 8
REMARK VINA RESULT:      -6.1      3.758      5.097
REMARK  Name = 
REMARK  7 active torsions:
REMARK  status: ('A' for Active; 'I' for Inactive)
REMARK    1  A    between atoms: C_2  and  C_3
REMARK    2  A    between atoms: C_3  and  C_4
REMARK    3  A    between atoms: C_6  and  C_7
REMARK    4  A    between atoms: N_9  and  C_10
REMARK    5  A    between atoms: C_10  and  C_11
REMARK    6  A    between atoms: C_10  and  C_14
REMARK    7  A    between atoms: C_16  and  S_17
REMARK                            x       y       z     vdW  Elec       q    Type
REMARK                         _______ _______ _______ _____ _____    ______ ____
ROOT
ATOM      1  C   UNL     1       1.182   5.420  -4.120  0.00  0.00    +0.140 C 
ENDROOT
BRANCH   1   2
ATOM      2  C   UNL     1       1.592   5.868  -2.547  0.00  0.00    +0.170 C 
ATOM      3  C   UNL     1       2.648   4.617  -2.064  0.00  0.00    +0.213 C 
ATOM      4  O   UNL     1       2.164   4.239  -0.699  0.00  0.00    -0.218 OA
ATOM      5  C   UNL     1       3.484   6.034  -1.573  0.00  0.00    +0.218 C 
ATOM      6  O   UNL     1       4.278   5.316  -0.518  0.00  0.00    -0.217 OA
ATOM      7  C   UNL     1       2.353   6.724  -0.500  0.00  0.00    +0.222 C 
ATOM      8  O   UNL     1       1.760   7.710  -1.499  0.00  0.00    -0.217 OA
ATOM      9  C   UNL     1       1.015   5.701  -0.423  0.00  0.00    +0.195 C 
ATOM     10  O   UNL     1       0.395   5.540  -1.752  0.00  0.00    -0.341 OA
BRANCH   9  11
ATOM     11  S   UNL     1      -0.124   7.154   0.142  0.00  0.00    -0.108 S 
ATOM     12  C   UNL     1      -1.645   6.599  -0.705  0.00  0.00    +0.072 C 
ENDBRANCH   9  11
ENDBRANCH   1   2
BRANCH   1  13
ATOM     13  C   UNL     1      -0.486   5.621  -4.329  0.00  0.00    +0.102 C 
ATOM     14 CL   UNL     1      -0.823   4.936  -6.030  0.00  0.00    -0.113 Cl
ATOM     15  C   UNL     1      -0.534   7.214  -4.497  0.00  0.00    +0.019 C 
ENDBRANCH   1  13
BRANCH   1  17
ATOM     16  C   UNL     1       2.792   6.600  -5.608  0.00  0.00    +0.256 C 
ATOM     17  N   UNL     1       1.499   6.691  -4.975  0.00  0.00    -0.202 NA
ATOM     18  O   UNL     1       3.585   7.151  -4.901  0.00  0.00    -0.272 OA
BRANCH  16  23
ATOM     19  C   UNL     1       3.915   6.048  -9.114  0.00  0.00    +0.018 C 
ATOM     20  C   UNL     1       2.603   5.157  -8.778  0.00  0.00    +0.073 C 
ATOM     21  N   UNL     1       1.893   5.901  -7.747  0.00  0.00    -0.265 NA
ATOM     22  C   UNL     1       1.815   7.304  -8.112  0.00  0.00    +0.090 C 
ATOM     23  C   UNL     1       3.126   5.611  -6.821  0.00  0.00    +0.137 C 
ATOM     24  C   UNL     1       3.938   6.752  -7.673  0.00  0.00    +0.027 C 
BRANCH  19  25
ATOM     25  C   UNL     1       5.003   4.948  -8.590  0.00  0.00    +0.001 C 
BRANCH  25  27
ATOM     26  C   UNL     1       6.261   5.834 -10.245  0.00  0.00    +0.000 C 
ATOM     27  C   UNL     1       6.329   5.458  -9.051  0.00  0.00    +0.000 C 
ENDBRANCH  25  27
ENDBRANCH  19  25
ENDBRANCH  16  23
ENDBRANCH   1  17
TORSDOF 7
ENDMDL
MODEL 9
REMARK VINA RESULT:      -6.1      4.223      5.743
REMARK  Name = 
REMARK  7 active torsions:
REMARK  status: ('A' for Active; 'I' for Inactive)
REMARK    1  A    between atoms: C_2  and  C_3
REMARK    2  A    between atoms: C_3  and  C_4
REMARK    3  A    between atoms: C_6  and  C_7
REMARK    4  A    between atoms: N_9  and  C_10
REMARK    5  A    between atoms: C_10  and  C_11
REMARK    6  A    between atoms: C_10  and  C_14
REMARK    7  A    between atoms: C_16  and  S_17
REMARK                            x       y       z     vdW  Elec       q    Type
REMARK                         _______ _______ _______ _____ _____    ______ ____
ROOT
ATOM      1  C   UNL     1       1.072   5.971  -3.781  0.00  0.00    +0.140 C 
ENDROOT
BRANCH   1   2
ATOM      2  C   UNL     1       1.965   6.227  -2.372  0.00  0.00    +0.170 C 
ATOM      3  C   UNL     1       2.384   4.641  -1.901  0.00  0.00    +0.213 C 
ATOM      4  O   UNL     1       2.079   4.603  -0.437  0.00  0.00    -0.218 OA
ATOM      5  C   UNL     1       3.869   5.488  -1.754  0.00  0.00    +0.218 C 
ATOM      6  O   UNL     1       4.435   4.518  -0.755  0.00  0.00    -0.217 OA
ATOM      7  C   UNL     1       3.450   6.686  -0.616  0.00  0.00    +0.222 C 
ATOM      8  O   UNL     1       3.195   7.794  -1.630  0.00  0.00    -0.217 OA
ATOM      9  C   UNL     1       1.838   6.450  -0.180  0.00  0.00    +0.195 C 
ATOM     10  O   UNL     1       0.952   6.557  -1.355  0.00  0.00    -0.341 OA
BRANCH   9  11
ATOM     11  S   UNL     1       1.663   8.295   0.358  0.00  0.00    -0.108 S 
ATOM     12  C   UNL     1       2.666   8.190   1.882  0.00  0.00    +0.072 C 
ENDBRANCH   9  11
ENDBRANCH   1   2
BRANCH   1  13
ATOM     13  C   UNL     1      -0.470   6.641  -3.580  0.00  0.00    +0.102 C 
ATOM     14 CL   UNL     1      -1.537   5.196  -3.080  0.00  0.00    -0.113 Cl
ATOM     15  C   UNL     1      -0.830   6.922  -5.116  0.00  0.00    +0.019 C 
ENDBRANCH   1  13
BRANCH   1  17
ATOM     16  C   UNL     1       2.746   6.825  -5.414  0.00  0.00    +0.256 C 
ATOM     17  N   UNL     1       1.514   7.133  -4.730  0.00  0.00    -0.202 NA
ATOM     18  O   UNL     1       3.644   7.299  -4.781  0.00  0.00    -0.272 OA
BRANCH  16  23
ATOM     19  C   UNL     1       3.522   5.929  -8.942  0.00  0.00    +0.018 C 
ATOM     20  C   UNL     1       2.153   5.213  -8.450  0.00  0.00    +0.073 C 
ATOM     21  N   UNL     1       1.610   6.096  -7.426  0.00  0.00    -0.265 NA
ATOM     22  C   UNL     1       1.654   7.473  -7.884  0.00  0.00    +0.090 C 
ATOM     23  C   UNL     1       2.875   5.729  -6.573  0.00  0.00    +0.137 C 
ATOM     24  C   UNL     1       3.734   6.715  -7.561  0.00  0.00    +0.027 C 
BRANCH  19  25
ATOM     25  C   UNL     1       4.524   4.749  -8.420  0.00  0.00    +0.001 C 
BRANCH  25  27
ATOM     26  C   UNL     1       6.018   5.615  -9.879  0.00  0.00    +0.000 C 
ATOM     27  C   UNL     1       5.902   5.262  -8.681  0.00  0.00    +0.000 C 
ENDBRANCH  25  27
ENDBRANCH  19  25
ENDBRANCH  16  23
ENDBRANCH   1  17
TORSDOF 7
ENDMDL
