MODEL 1
REMARK VINA RESULT:      -9.0      0.000      0.000
REMARK  Name = 
REMARK  6 active torsions:
REMARK  status: ('A' for Active; 'I' for Inactive)
REMARK    1  A    between atoms: C_2  and  C_3
REMARK    2  A    between atoms: C_5  and  O_6
REMARK    3  A    between atoms: O_6  and  C_7
REMARK    4  A    between atoms: C_13  and  O_14
REMARK    5  A    between atoms: O_14  and  C_15
REMARK    6  A    between atoms: C_17  and  C_18
REMARK                            x       y       z     vdW  Elec       q    Type
REMARK                         _______ _______ _______ _____ _____    ______ ____
ROOT
ATOM      1  C   UNL     1       3.393   6.187  -5.834  0.00  0.00    +0.168 C 
ATOM      2  C   UNL     1       2.366   5.263  -4.840  0.00  0.00    +0.209 C 
ATOM      3  O   UNL     1       1.221   5.455  -5.782  0.00  0.00    -0.218 OA
ATOM      4  C   UNL     1       1.940   6.660  -3.962  0.00  0.00    +0.168 C 
ATOM      5  C   UNL     1       3.097   6.392  -2.723  0.00  0.00    +0.123 C 
ATOM      6  N   UNL     1       3.691   7.833  -2.918  0.00  0.00    -0.130 NA
ATOM      7  C   UNL     1       4.194   5.582  -3.509  0.00  0.00    +0.043 C 
ATOM      8  C   UNL     1       4.813   5.883  -4.924  0.00  0.00    +0.123 C 
ATOM      9  N   UNL     1       5.086   7.421  -4.713  0.00  0.00    -0.130 NA
ENDROOT
BRANCH   4  10
ATOM     10  O   UNL     1       0.857   5.870  -3.351  0.00  0.00    -0.327 OA
BRANCH  10  11
ATOM     11  C   UNL     1      -0.434   6.682  -3.428  0.00  0.00    +0.268 C 
ATOM     12  C   UNL     1      -0.603   6.291  -1.744  0.00  0.00    +0.228 C 
ATOM     13  O   UNL     1      -0.807   4.814  -1.881  0.00  0.00    -0.216 OA
ATOM     14  C   UNL     1      -2.229   6.683  -1.480  0.00  0.00    +0.160 C 
ATOM     15  N   UNL     1      -1.916   8.117  -2.013  0.00  0.00    -0.127 NA
ATOM     16  C   UNL     1      -3.240   5.999  -2.665  0.00  0.00    +0.202 C 
ATOM     17  O   UNL     1      -2.811   4.560  -2.456  0.00  0.00    -0.219 OA
ATOM     18  C   UNL     1      -2.547   6.068  -4.239  0.00  0.00    +0.182 C 
ATOM     19  O   UNL     1      -1.218   5.487  -3.897  0.00  0.00    -0.326 OA
BRANCH  18  20
ATOM     20  C   UNL     1      -2.308   7.696  -4.197  0.00  0.00    +0.214 C 
ATOM     21  O   UNL     1      -2.938   7.935  -5.459  0.00  0.00    -0.218 OA
ENDBRANCH  18  20
ENDBRANCH  10  11
ENDBRANCH   4  10
BRANCH   1  22
ATOM     22  O   UNL     1       3.512   4.968  -6.679  0.00  0.00    -0.328 OA
BRANCH  22  29
ATOM     23  C   UNL     1       3.133   7.305  -9.309  0.00  0.00    +0.167 C 
ATOM     24  C   UNL     1       4.047   6.513 -10.571  0.00  0.00    +0.182 C 
ATOM     25  O   UNL     1       5.369   6.566  -9.823  0.00  0.00    -0.220 OA
ATOM     26  C   UNL     1       3.609   5.000 -10.298  0.00  0.00    +0.060 C 
ATOM     27  C   UNL     1       3.919   4.222  -8.952  0.00  0.00    +0.151 C 
ATOM     28  N   UNL     1       5.249   4.912  -8.480  0.00  0.00    -0.127 NA
ATOM     29  C   UNL     1       2.853   5.252  -8.025  0.00  0.00    +0.253 C 
ATOM     30  O   UNL     1       3.708   6.496  -8.191  0.00  0.00    -0.328 OA
BRANCH  23  32
ATOM     31  N   UNL     1       1.481   6.714  -9.580  0.00  0.00    -0.129 NA
ATOM     32  C   UNL     1       1.767   6.448  -9.581  0.00  0.00    +0.141 C 
ENDBRANCH  23  32
ENDBRANCH  22  29
ENDBRANCH   1  22
TORSDOF 6
ENDMDL
MODEL 2
REMARK VINA RESULT:      -8.8      2.940      9.297
REMARK  Name = 
REMARK  6 active torsions:
REMARK  status: ('A' for Active; 'I' for Inactive)
REMARK    1  A    between atoms: C_2  and  C_3
REMARK    2  A    between atoms: C_5  and  O_6
REMARK    3  A    between atoms: O_6  and  C_7
REMARK    4  A    between atoms: C_13  and  O_14
REMARK    5  A    between atoms: O_14  and  C_15
REMARK    6  A    between atoms: C_17  and  C_18
REMARK                            x       y       z     vdW  Elec       q    Type
REMARK                         _______ _______ _______ _____ _____    ______ ____
ROOT
ATOM      1  C   UNL     1       1.310   5.993  -9.623  0.00  0.00    +0.168 C 
ATOM      2  C   UNL     1       2.407   5.033 -10.502  0.00  0.00    +0.209 C 
ATOM      3  O   UNL     1       3.540   5.461  -9.626  0.00  0.00    -0.218 OA
ATOM      4  C   UNL     1       2.689   6.322 -11.579  0.00  0.00    +0.168 C 
ATOM      5  C   UNL     1       1.547   5.775 -12.738  0.00  0.00    +0.123 C 
ATOM      6  N   UNL     1       0.823   7.169 -12.735  0.00  0.00    -0.130 NA
ATOM      7  C   UNL     1       0.541   4.989 -11.817  0.00  0.00    +0.043 C 
ATOM      8  C   UNL     1      -0.087   5.433 -10.444  0.00  0.00    +0.123 C 
ATOM      9  N   UNL     1      -0.505   6.894 -10.864  0.00  0.00    -0.130 NA
ENDROOT
BRANCH   4  10
ATOM     10  O   UNL     1       3.833   5.554 -12.100  0.00  0.00    -0.327 OA
BRANCH  10  11
ATOM     11  C   UNL     1       5.033   6.493 -12.212  0.00  0.00    +0.268 C 
ATOM     12  C   UNL     1       5.164   5.888 -13.835  0.00  0.00    +0.228 C 
ATOM     13  O   UNL     1       5.530   4.472 -13.512  0.00  0.00    -0.216 OA
ATOM     14  C   UNL     1       6.724   6.399 -14.248  0.00  0.00    +0.160 C 
ATOM     15  N   UNL     1       6.285   7.855 -13.896  0.00  0.00    -0.127 NA
ATOM     16  C   UNL     1       7.857   5.993 -13.046  0.00  0.00    +0.202 C 
ATOM     17  O   UNL     1       7.575   4.503 -13.032  0.00  0.00    -0.219 OA
ATOM     18  C   UNL     1       7.235   6.213 -11.456  0.00  0.00    +0.182 C 
ATOM     19  O   UNL     1       5.961   5.460 -11.635  0.00  0.00    -0.326 OA
BRANCH  18  20
ATOM     20  C   UNL     1       6.821   7.786 -11.703  0.00  0.00    +0.214 C 
ATOM     21  O   UNL     1       7.399   8.249 -10.479  0.00  0.00    -0.218 OA
ENDBRANCH  18  20
ENDBRANCH  10  11
ENDBRANCH   4  10
BRANCH   1  22
ATOM     22  O   UNL     1       1.316   4.902  -8.610  0.00  0.00    -0.328 OA
BRANCH  22  29
ATOM     23  C   UNL     1       1.463   7.544  -6.261  0.00  0.00    +0.167 C 
ATOM     24  C   UNL     1       0.744   6.770  -4.868  0.00  0.00    +0.182 C 
ATOM     25  O   UNL     1      -0.606   6.546  -5.530  0.00  0.00    -0.220 OA
ATOM     26  C   UNL     1       1.395   5.317  -5.015  0.00  0.00    +0.060 C 
ATOM     27  C   UNL     1       1.141   4.359  -6.252  0.00  0.00    +0.151 C 
ATOM     28  N   UNL     1      -0.301   4.791  -6.704  0.00  0.00    -0.127 NA
ATOM     29  C   UNL     1       1.989   5.426  -7.346  0.00  0.00    +0.253 C 
ATOM     30  O   UNL     1       0.964   6.541  -7.251  0.00  0.00    -0.328 OA
BRANCH  23  32
ATOM     31  N   UNL     1       3.196   7.237  -6.028  0.00  0.00    -0.129 NA
ATOM     32  C   UNL     1       2.956   6.931  -5.993  0.00  0.00    +0.141 C 
ENDBRANCH  23  32
ENDBRANCH  22  29
ENDBRANCH   1  22
TORSDOF 6
ENDMDL
MODEL 3
REMARK VINA RESULT:      -8.6      2.853      9.166
REMARK  Name = 
REMARK  6 active torsions:
REMARK  status: ('A' for Active; 'I' for Inactive)
REMARK    1  A    between atoms: C_2  and  C_3
REMARK    2  A    between atoms: C_5  and  O_6
REMARK    3  A    between atoms: O_6  and  C_7
REMARK    4  A    between atoms: C_13  and  O_14
REMARK    5  A    between atoms: O_14  and  C_15
REMARK    6  A    between atoms: C_17  and  C_18
REMARK                            x       y       z     vdW  Elec       q    Type
REMARK                         _______ _______ _______ _____ _____    ______ ____
ROOT
ATOM      1  C   UNL     1       1.771   6.326  -9.125  0.00  0.00    +0.168 C 
ATOM      2  C   UNL     1       2.803   5.281  -9.985  0.00  0.00    +0.209 C 
ATOM      3  O   UNL     1       4.013   5.973  -9.444  0.00  0.00    -0.218 OA
ATOM      4  C   UNL     1       2.752   6.321 -11.333  0.00  0.00    +0.168 C 
ATOM      5  C   UNL     1       1.499   5.452 -12.121  0.00  0.00    +0.123 C 
ATOM      6  N   UNL     1       0.634   6.756 -12.260  0.00  0.00    -0.130 NA
ATOM      7  C   UNL     1       0.758   4.814 -10.887  0.00  0.00    +0.043 C 
ATOM      8  C   UNL     1       0.327   5.498  -9.538  0.00  0.00    +0.123 C 
ATOM      9  N   UNL     1      -0.318   6.798 -10.155  0.00  0.00    -0.130 NA
ENDROOT
BRANCH   4  10
ATOM     10  O   UNL     1       3.871   5.545 -11.896  0.00  0.00    -0.327 OA
BRANCH  10  11
ATOM     11  C   UNL     1       5.050   6.491 -12.117  0.00  0.00    +0.268 C 
ATOM     12  C   UNL     1       5.082   5.833 -13.724  0.00  0.00    +0.228 C 
ATOM     13  O   UNL     1       5.484   4.432 -13.379  0.00  0.00    -0.216 OA
ATOM     14  C   UNL     1       6.606   6.344 -14.255  0.00  0.00    +0.160 C 
ATOM     15  N   UNL     1       6.175   7.807 -13.923  0.00  0.00    -0.127 NA
ATOM     16  C   UNL     1       7.820   5.988 -13.117  0.00  0.00    +0.202 C 
ATOM     17  O   UNL     1       7.555   4.497 -13.035  0.00  0.00    -0.219 OA
ATOM     18  C   UNL     1       7.299   6.256 -11.497  0.00  0.00    +0.182 C 
ATOM     19  O   UNL     1       6.025   5.486 -11.568  0.00  0.00    -0.326 OA
BRANCH  18  20
ATOM     20  C   UNL     1       6.853   7.816 -11.769  0.00  0.00    +0.214 C 
ATOM     21  O   UNL     1       7.360   8.298 -10.520  0.00  0.00    -0.218 OA
ENDBRANCH  18  20
ENDBRANCH  10  11
ENDBRANCH   4  10
BRANCH   1  22
ATOM     22  O   UNL     1       2.071   5.484  -7.934  0.00  0.00    -0.328 OA
BRANCH  22  29
ATOM     23  C   UNL     1       1.016   5.279  -4.562  0.00  0.00    +0.167 C 
ATOM     24  C   UNL     1       2.471   5.795  -3.743  0.00  0.00    +0.182 C 
ATOM     25  O   UNL     1       3.318   4.636  -4.245  0.00  0.00    -0.220 OA
ATOM     26  C   UNL     1       2.932   6.956  -4.741  0.00  0.00    +0.060 C 
ATOM     27  C   UNL     1       3.323   6.711  -6.257  0.00  0.00    +0.151 C 
ATOM     28  N   UNL     1       3.872   5.239  -6.215  0.00  0.00    -0.127 NA
ATOM     29  C   UNL     1       1.687   6.271  -6.685  0.00  0.00    +0.253 C 
ATOM     30  O   UNL     1       1.685   4.991  -5.868  0.00  0.00    -0.328 OA
BRANCH  23  32
ATOM     31  N   UNL     1       0.114   6.794  -4.759  0.00  0.00    -0.129 NA
ATOM     32  C   UNL     1       0.490   6.798  -4.862  0.00  0.00    +0.141 C 
ENDBRANCH  23  32
ENDBRANCH  22  29
ENDBRANCH   1  22
TORSDOF 6
ENDMDL
MODEL 4
REMARK VINA RESULT:      -8.3      2.731      8.473
REMARK  Name = 
REMARK  6 active torsions:
REMARK  status: ('A' for Active; 'I' for Inactive)
REMARK    1  A    between atoms: C_2  and  C_3
REMARK    2  A    between atoms: C_5  and  O_6
REMARK    3  A    between atoms: O_6  and  C_7
REMARK    4  A    between atoms: C_13  and  O_14
REMARK    5  A    between atoms: O_14  and  C_15
REMARK    6  A    between atoms: C_17  and  C_18
REMARK                            x       y       z     vdW  Elec       q    Type
REMARK                         _______ _______ _______ _____ _____    ______ ____
ROOT
ATOM      1  C   UNL     1      -1.240   7.076  -2.165  0.00  0.00    +0.168 C 
ATOM      2  C   UNL     1      -0.285   5.787  -2.735  0.00  0.00    +0.209 C 
ATOM      3  O   UNL     1       0.966   6.584  -2.549  0.00  0.00    -0.218 OA
ATOM      4  C   UNL     1      -0.462   6.348  -4.334  0.00  0.00    +0.168 C 
ATOM      5  C   UNL     1      -1.778   5.306  -4.693  0.00  0.00    +0.123 C 
ATOM      6  N   UNL     1      -2.656   6.520  -5.163  0.00  0.00    -0.130 NA
ATOM      7  C   UNL     1      -2.401   5.110  -3.261  0.00  0.00    +0.043 C 
ATOM      8  C   UNL     1      -2.712   6.197  -2.167  0.00  0.00    +0.123 C 
ATOM      9  N   UNL     1      -3.415   7.250  -3.106  0.00  0.00    -0.130 NA
ENDROOT
BRANCH   4  10
ATOM     10  O   UNL     1       0.604   5.406  -4.716  0.00  0.00    -0.327 OA
BRANCH  10  11
ATOM     11  C   UNL     1       1.165   5.837  -6.070  0.00  0.00    +0.268 C 
ATOM     12  C   UNL     1       1.753   4.205  -6.177  0.00  0.00    +0.228 C 
ATOM     13  O   UNL     1       2.751   4.259  -5.062  0.00  0.00    -0.216 OA
ATOM     14  C   UNL     1       2.870   4.343  -7.440  0.00  0.00    +0.160 C 
ATOM     15  N   UNL     1       1.720   4.913  -8.328  0.00  0.00    -0.127 NA
ATOM     16  C   UNL     1       3.921   5.661  -7.208  0.00  0.00    +0.202 C 
ATOM     17  O   UNL     1       4.435   5.241  -5.845  0.00  0.00    -0.219 OA
ATOM     18  C   UNL     1       3.113   7.042  -6.573  0.00  0.00    +0.182 C 
ATOM     19  O   UNL     1       2.424   6.365  -5.439  0.00  0.00    -0.326 OA
BRANCH  18  20
ATOM     20  C   UNL     1       1.986   7.085  -7.772  0.00  0.00    +0.214 C 
ATOM     21  O   UNL     1       2.084   8.499  -7.969  0.00  0.00    -0.218 OA
ENDBRANCH  18  20
ENDBRANCH  10  11
ENDBRANCH   4  10
BRANCH   1  22
ATOM     22  O   UNL     1      -0.830   6.648  -0.800  0.00  0.00    -0.328 OA
BRANCH  22  29
ATOM     23  C   UNL     1      -1.824   7.543   2.477  0.00  0.00    +0.167 C 
ATOM     24  C   UNL     1      -0.305   8.117   3.123  0.00  0.00    +0.182 C 
ATOM     25  O   UNL     1       0.405   6.780   2.987  0.00  0.00    -0.220 OA
ATOM     26  C   UNL     1       0.251   8.884   1.835  0.00  0.00    +0.060 C 
ATOM     27  C   UNL     1       0.580   8.169   0.459  0.00  0.00    +0.151 C 
ATOM     28  N   UNL     1       0.975   6.724   0.932  0.00  0.00    -0.127 NA
ATOM     29  C   UNL     1      -1.102   7.799   0.163  0.00  0.00    +0.253 C 
ATOM     30  O   UNL     1      -1.218   6.820   1.317  0.00  0.00    -0.328 OA
BRANCH  23  32
ATOM     31  N   UNL     1      -2.562   9.033   1.857  0.00  0.00    -0.129 NA
ATOM     32  C   UNL     1      -2.197   8.956   1.743  0.00  0.00    +0.141 C 
ENDBRANCH  23  32
ENDBRANCH  22  29
ENDBRANCH   1  22
TORSDOF 6
ENDMDL
MODEL 5
REMARK VINA RESULT:      -8.2      1.155      1.713
REMARK  Name = 
REMARK  6 active torsions:
REMARK  status: ('A' for Active; 'I' for Inactive)
REMARK    1  A    between atoms: C_2  and  C_3
REMARK    2  A    between atoms: C_5  and  O_6
REMARK    3  A    between atoms: O_6  and  C_7
REMARK    4  A    between atoms: C_13  and  O_14
REMARK    5  A    between atoms: O_14  and  C_15
REMARK    6  A    between atoms: C_17  and  C_18
REMARK                            x       y       z     vdW  Elec       q    Type
REMARK                         _______ _______ _______ _____ _____    ______ ____
ROOT
ATOM      1  C   UNL     1       3.159   6.552  -5.823  0.00  0.00    +0.168 C 
ATOM      2  C   UNL     1       2.142   5.528  -4.920  0.00  0.00    +0.209 C 
ATOM      3  O   UNL     1       0.923   6.133  -5.538  0.00  0.00    -0.218 OA
ATOM      4  C   UNL     1       2.117   6.659  -3.647  0.00  0.00    +0.168 C 
ATOM      5  C   UNL     1       3.379   5.896  -2.769  0.00  0.00    +0.123 C 
ATOM      6  N   UNL     1       4.189   7.239  -2.698  0.00  0.00    -0.130 NA
ATOM      7  C   UNL     1       4.177   5.205  -3.936  0.00  0.00    +0.043 C 
ATOM      8  C   UNL     1       4.620   5.812  -5.318  0.00  0.00    +0.123 C 
ATOM      9  N   UNL     1       5.198   7.175  -4.775  0.00  0.00    -0.130 NA
ENDROOT
BRANCH   4  10
ATOM     10  O   UNL     1       1.012   5.880  -3.060  0.00  0.00    -0.327 OA
BRANCH  10  11
ATOM     11  C   UNL     1      -0.219   6.779  -2.973  0.00  0.00    +0.268 C 
ATOM     12  C   UNL     1      -0.350   6.189  -1.344  0.00  0.00    +0.228 C 
ATOM     13  O   UNL     1      -0.664   4.758  -1.655  0.00  0.00    -0.216 OA
ATOM     14  C   UNL     1      -1.931   6.651  -0.955  0.00  0.00    +0.160 C 
ATOM     15  N   UNL     1      -1.537   8.117  -1.320  0.00  0.00    -0.127 NA
ATOM     16  C   UNL     1      -3.035   6.194  -2.166  0.00  0.00    +0.202 C 
ATOM     17  O   UNL     1      -2.703   4.714  -2.159  0.00  0.00    -0.219 OA
ATOM     18  C   UNL     1      -2.401   6.416  -3.751  0.00  0.00    +0.182 C 
ATOM     19  O   UNL     1      -1.105   5.709  -3.548  0.00  0.00    -0.326 OA
BRANCH  18  20
ATOM     20  C   UNL     1      -2.044   8.006  -3.517  0.00  0.00    +0.214 C 
ATOM     21  O   UNL     1      -2.307   8.382  -4.872  0.00  0.00    -0.218 OA
ENDBRANCH  18  20
ENDBRANCH  10  11
ENDBRANCH   4  10
BRANCH   1  22
ATOM     22  O   UNL     1       2.924   5.620  -6.961  0.00  0.00    -0.328 OA
BRANCH  22  29
ATOM     23  C   UNL     1       3.831   5.352 -10.371  0.00  0.00    +0.167 C 
ATOM     24  C   UNL     1       2.299   5.703 -11.135  0.00  0.00    +0.182 C 
ATOM     25  O   UNL     1       1.582   4.501 -10.542  0.00  0.00    -0.220 OA
ATOM     26  C   UNL     1       1.786   6.866 -10.164  0.00  0.00    +0.060 C 
ATOM     27  C   UNL     1       1.491   6.657  -8.620  0.00  0.00    +0.151 C 
ATOM     28  N   UNL     1       1.071   5.144  -8.574  0.00  0.00    -0.127 NA
ATOM     29  C   UNL     1       3.178   6.379  -8.260  0.00  0.00    +0.253 C 
ATOM     30  O   UNL     1       3.253   5.068  -9.022  0.00  0.00    -0.328 OA
BRANCH  23  32
ATOM     31  N   UNL     1       4.600   6.950 -10.299  0.00  0.00    -0.129 NA
ATOM     32  C   UNL     1       4.236   6.923 -10.161  0.00  0.00    +0.141 C 
ENDBRANCH  23  32
ENDBRANCH  22  29
ENDBRANCH   1  22
TORSDOF 6
ENDMDL
MODEL 6
REMARK VINA RESULT:      -8.2      3.454      8.065
REMARK  Name = 
REMARK  6 active torsions:
REMARK  status: ('A' for Active; 'I' for Inactive)
REMARK    1  A    between atoms: C_2  and  C_3
REMARK    2  A    between atoms: C_5  and  O_6
REMARK    3  A    between atoms: O_6  and  C_7
REMARK    4  A    between atoms: C_13  and  O_14
REMARK    5  A    between atoms: O_14  and  C_15
REMARK    6  A    between atoms: C_17  and  C_18
REMARK                            x       y       z     vdW  Elec       q    Type
REMARK                         _______ _______ _______ _____ _____    ______ ____
ROOT
ATOM      1  C   UNL     1       1.076   7.254  -1.096  0.00  0.00    +0.168 C 
ATOM      2  C   UNL     1       1.619   5.900  -1.973  0.00  0.00    +0.209 C 
ATOM      3  O   UNL     1       2.816   6.650  -2.461  0.00  0.00    -0.218 OA
ATOM      4  C   UNL     1       0.702   6.392  -3.322  0.00  0.00    +0.168 C 
ATOM      5  C   UNL     1      -0.640   5.392  -2.940  0.00  0.00    +0.123 C 
ATOM      6  N   UNL     1      -1.618   6.619  -3.005  0.00  0.00    -0.130 NA
ATOM      7  C   UNL     1      -0.499   5.290  -1.375  0.00  0.00    +0.043 C 
ATOM      8  C   UNL     1      -0.228   6.440  -0.336  0.00  0.00    +0.123 C 
ATOM      9  N   UNL     1      -1.280   7.477  -0.886  0.00  0.00    -0.130 NA
ENDROOT
BRANCH   4  10
ATOM     10  O   UNL     1       1.437   5.388  -4.110  0.00  0.00    -0.327 OA
BRANCH  10  11
ATOM     11  C   UNL     1       1.527   5.880  -5.554  0.00  0.00    +0.268 C 
ATOM     12  C   UNL     1       1.965   4.241  -5.926  0.00  0.00    +0.228 C 
ATOM     13  O   UNL     1       3.283   4.200  -5.217  0.00  0.00    -0.216 OA
ATOM     14  C   UNL     1       2.595   4.418  -7.487  0.00  0.00    +0.160 C 
ATOM     15  N   UNL     1       1.240   5.072  -7.904  0.00  0.00    -0.127 NA
ATOM     16  C   UNL     1       3.724   5.688  -7.569  0.00  0.00    +0.202 C 
ATOM     17  O   UNL     1       4.648   5.174  -6.481  0.00  0.00    -0.219 OA
ATOM     18  C   UNL     1       3.245   7.054  -6.636  0.00  0.00    +0.182 C 
ATOM     19  O   UNL     1       2.949   6.333  -5.365  0.00  0.00    -0.326 OA
BRANCH  18  20
ATOM     20  C   UNL     1       1.782   7.200  -7.376  0.00  0.00    +0.214 C 
ATOM     21  O   UNL     1       2.036   8.519  -7.869  0.00  0.00    -0.218 OA
ENDBRANCH  18  20
ENDBRANCH  10  11
ENDBRANCH   4  10
BRANCH   1  22
ATOM     22  O   UNL     1       2.087   6.873  -0.071  0.00  0.00    -0.328 OA
BRANCH  22  29
ATOM     23  C   UNL     1       2.661   8.340   3.098  0.00  0.00    +0.167 C 
ATOM     24  C   UNL     1       4.405   8.454   3.082  0.00  0.00    +0.182 C 
ATOM     25  O   UNL     1       4.630   6.953   2.995  0.00  0.00    -0.220 OA
ATOM     26  C   UNL     1       4.623   8.878   1.556  0.00  0.00    +0.060 C 
ATOM     27  C   UNL     1       4.214   7.971   0.323  0.00  0.00    +0.151 C 
ATOM     28  N   UNL     1       4.356   6.526   0.923  0.00  0.00    -0.127 NA
ATOM     29  C   UNL     1       2.510   8.135   0.674  0.00  0.00    +0.253 C 
ATOM     30  O   UNL     1       2.576   7.356   1.975  0.00  0.00    -0.328 OA
BRANCH  23  32
ATOM     31  N   UNL     1       2.147   9.909   2.447  0.00  0.00    -0.129 NA
ATOM     32  C   UNL     1       2.433   9.724   2.256  0.00  0.00    +0.141 C 
ENDBRANCH  23  32
ENDBRANCH  22  29
ENDBRANCH   1  22
TORSDOF 6
ENDMDL
MODEL 7
REMARK VINA RESULT:      -8.1      3.410      4.444
REMARK  Name = 
REMARK  6 active torsions:
REMARK  status: ('A' for Active; 'I' for Inactive)
REMARK    1  A    between atoms: C_2  and  C_3
REMARK    2  A    between atoms: C_5  and  O_6
REMARK    3  A    between atoms: O_6  and  C_7
REMARK    4  A    between atoms: C_13  and  O_14
REMARK    5  A    between atoms: O_14  and  C_15
REMARK    6  A    between atoms: C_17  and  C_18
REMARK                            x       y       z     vdW  Elec       q    Type
REMARK                         _______ _______ _______ _____ _____    ______ ____
ROOT
ATOM      1  C   UNL     1       2.671   6.575  -3.445  0.00  0.00    +0.168 C 
ATOM      2  C   UNL     1       1.873   5.869  -2.117  0.00  0.00    +0.209 C 
ATOM      3  O   UNL     1       0.637   6.662  -2.392  0.00  0.00    -0.218 OA
ATOM      4  C   UNL     1       2.483   7.084  -1.091  0.00  0.00    +0.168 C 
ATOM      5  C   UNL     1       3.823   6.149  -0.563  0.00  0.00    +0.123 C 
ATOM      6  N   UNL     1       4.822   7.293  -0.963  0.00  0.00    -0.130 NA
ATOM      7  C   UNL     1       4.037   5.209  -1.807  0.00  0.00    +0.043 C 
ATOM      8  C   UNL     1       4.069   5.590  -3.334  0.00  0.00    +0.123 C 
ATOM      9  N   UNL     1       5.022   6.841  -3.220  0.00  0.00    -0.130 NA
ENDROOT
BRANCH   4  10
ATOM     10  O   UNL     1       1.536   6.607  -0.067  0.00  0.00    -0.327 OA
BRANCH  10  11
ATOM     11  C   UNL     1       1.541   7.600   1.093  0.00  0.00    +0.268 C 
ATOM     12  C   UNL     1       0.009   6.894   1.507  0.00  0.00    +0.228 C 
ATOM     13  O   UNL     1      -0.774   7.356   0.317  0.00  0.00    -0.216 OA
ATOM     14  C   UNL     1      -0.597   8.043   2.592  0.00  0.00    +0.160 C 
ATOM     15  N   UNL     1       0.702   7.857   3.436  0.00  0.00    -0.127 NA
ATOM     16  C   UNL     1      -0.478   9.621   1.968  0.00  0.00    +0.202 C 
ATOM     17  O   UNL     1      -1.255   9.366   0.690  0.00  0.00    -0.219 OA
ATOM     18  C   UNL     1       0.997   9.882   1.120  0.00  0.00    +0.182 C 
ATOM     19  O   UNL     1       0.936   8.681   0.239  0.00  0.00    -0.326 OA
BRANCH  18  20
ATOM     20  C   UNL     1       1.947   9.419   2.382  0.00  0.00    +0.214 C 
ATOM     21  O   UNL     1       2.810  10.557   2.298  0.00  0.00    -0.218 OA
ENDBRANCH  18  20
ENDBRANCH  10  11
ENDBRANCH   4  10
BRANCH   1  22
ATOM     22  O   UNL     1       1.902   5.620  -4.290  0.00  0.00    -0.328 OA
BRANCH  22  29
ATOM     23  C   UNL     1       2.958   6.310  -7.597  0.00  0.00    +0.167 C 
ATOM     24  C   UNL     1       1.848   5.306  -8.499  0.00  0.00    +0.182 C 
ATOM     25  O   UNL     1       2.345   3.999  -7.904  0.00  0.00    -0.220 OA
ATOM     26  C   UNL     1       0.523   5.544  -7.636  0.00  0.00    +0.060 C 
ATOM     27  C   UNL     1       0.378   5.130  -6.113  0.00  0.00    +0.151 C 
ATOM     28  N   UNL     1       1.350   3.899  -6.020  0.00  0.00    -0.127 NA
ATOM     29  C   UNL     1       1.557   6.316  -5.603  0.00  0.00    +0.253 C 
ATOM     30  O   UNL     1       2.726   5.630  -6.285  0.00  0.00    -0.328 OA
BRANCH  23  32
ATOM     31  N   UNL     1       2.114   7.870  -7.543  0.00  0.00    -0.129 NA
ATOM     32  C   UNL     1       1.909   7.555  -7.439  0.00  0.00    +0.141 C 
ENDBRANCH  23  32
ENDBRANCH  22  29
ENDBRANCH   1  22
TORSDOF 6
ENDMDL
MODEL 8
REMARK VINA RESULT:      -7.4      2.413      3.599
REMARK  Name = 
REMARK  6 active torsions:
REMARK  status: ('A' for Active; 'I' for Inactive)
REMARK    1  A    between atoms: C_2  and  C_3
REMARK    2  A    between atoms: C_5  and  O_6
REMARK    3  A    between atoms: O_6  and  C_7
REMARK    4  A    between atoms: C_13  and  O_14
REMARK    5  A    between atoms: O_14  and  C_15
REMARK    6  A    between atoms: C_17  and  C_18
REMARK                            x       y       z     vdW  Elec       q    Type
REMARK                         _______ _______ _______ _____ _____    ______ ____
ROOT
ATOM      1  C   UNL     1       1.566   5.876  -7.894  0.00  0.00    +0.168 C 
ATOM      2  C   UNL     1       0.245   5.012  -7.259  0.00  0.00    +0.209 C 
ATOM      3  O   UNL     1      -0.709   6.075  -7.702  0.00  0.00    -0.218 OA
ATOM      4  C   UNL     1       0.461   5.769  -5.748  0.00  0.00    +0.168 C 
ATOM      5  C   UNL     1       1.394   4.486  -5.093  0.00  0.00    +0.123 C 
ATOM      6  N   UNL     1       2.548   5.478  -4.704  0.00  0.00    -0.130 NA
ATOM      7  C   UNL     1       2.035   3.886  -6.399  0.00  0.00    +0.043 C 
ATOM      8  C   UNL     1       2.721   4.644  -7.595  0.00  0.00    +0.123 C 
ATOM      9  N   UNL     1       3.628   5.611  -6.742  0.00  0.00    -0.130 NA
ENDROOT
BRANCH   4  10
ATOM     10  O   UNL     1      -0.855   5.231  -5.360  0.00  0.00    -0.327 OA
BRANCH  10  11
ATOM     11  C   UNL     1      -0.977   5.310  -3.840  0.00  0.00    +0.268 C 
ATOM     12  C   UNL     1      -2.655   5.646  -4.143  0.00  0.00    +0.228 C 
ATOM     13  O   UNL     1      -2.494   6.978  -4.809  0.00  0.00    -0.216 OA
ATOM     14  C   UNL     1      -3.145   6.243  -2.638  0.00  0.00    +0.160 C 
ATOM     15  N   UNL     1      -2.626   4.917  -1.999  0.00  0.00    -0.127 NA
ATOM     16  C   UNL     1      -2.083   7.439  -2.059  0.00  0.00    +0.202 C 
ATOM     17  O   UNL     1      -2.182   8.361  -3.259  0.00  0.00    -0.219 OA
ATOM     18  C   UNL     1      -0.433   7.062  -2.378  0.00  0.00    +0.182 C 
ATOM     19  O   UNL     1      -0.576   6.760  -3.831  0.00  0.00    -0.326 OA
BRANCH  18  20
ATOM     20  C   UNL     1      -0.500   5.590  -1.643  0.00  0.00    +0.214 C 
ATOM     21  O   UNL     1       0.595   5.854  -0.762  0.00  0.00    -0.218 OA
ENDBRANCH  18  20
ENDBRANCH  10  11
ENDBRANCH   4  10
BRANCH   1  22
ATOM     22  O   UNL     1       1.149   5.348  -9.222  0.00  0.00    -0.328 OA
BRANCH  22  29
ATOM     23  C   UNL     1       2.973   5.162 -12.249  0.00  0.00    +0.167 C 
ATOM     24  C   UNL     1       1.801   5.821 -13.366  0.00  0.00    +0.182 C 
ATOM     25  O   UNL     1       0.776   4.721 -13.140  0.00  0.00    -0.220 OA
ATOM     26  C   UNL     1       1.197   6.985 -12.451  0.00  0.00    +0.060 C 
ATOM     27  C   UNL     1       0.433   6.725 -11.086  0.00  0.00    +0.151 C 
ATOM     28  N   UNL     1      -0.194   5.306 -11.333  0.00  0.00    -0.127 NA
ATOM     29  C   UNL     1       1.880   6.139 -10.302  0.00  0.00    +0.253 C 
ATOM     30  O   UNL     1       1.988   4.890 -11.158  0.00  0.00    -0.328 OA
BRANCH  23  32
ATOM     31  N   UNL     1       3.904   6.575 -11.717  0.00  0.00    -0.129 NA
ATOM     32  C   UNL     1       3.519   6.622 -11.756  0.00  0.00    +0.141 C 
ENDBRANCH  23  32
ENDBRANCH  22  29
ENDBRANCH   1  22
TORSDOF 6
ENDMDL
MODEL 9
REMARK VINA RESULT:      -7.4      1.156      1.718
REMARK  Name = 
REMARK  6 active torsions:
REMARK  status: ('A' for Active; 'I' for Inactive)
REMARK    1  A    between atoms: C_2  and  C_3
REMARK    2  A    between atoms: C_5  and  O_6
REMARK    3  A    between atoms: O_6  and  C_7
REMARK    4  A    between atoms: C_13  and  O_14
REMARK    5  A    between atoms: O_14  and  C_15
REMARK    6  A    between atoms: C_17  and  C_18
REMARK                            x       y       z     vdW  Elec       q    Type
REMARK                         _______ _______ _______ _____ _____    ______ ____
ROOT
ATOM      1  C   UNL     1       3.110   6.088  -5.818  0.00  0.00    +0.168 C 
ATOM      2  C   UNL     1       2.169   4.899  -5.044  0.00  0.00    +0.209 C 
ATOM      3  O   UNL     1       1.096   5.024  -6.078  0.00  0.00    -0.218 OA
ATOM      4  C   UNL     1       1.439   6.093  -4.073  0.00  0.00    +0.168 C 
ATOM      5  C   UNL     1       2.509   5.859  -2.752  0.00  0.00    +0.123 C 
ATOM      6  N   UNL     1       2.868   7.388  -2.726  0.00  0.00    -0.130 NA
ATOM      7  C   UNL     1       3.792   5.333  -3.498  0.00  0.00    +0.043 C 
ATOM      8  C   UNL     1       4.475   5.900  -4.797  0.00  0.00    +0.123 C 
ATOM      9  N   UNL     1       4.466   7.424  -4.395  0.00  0.00    -0.130 NA
ENDROOT
BRANCH   4  10
ATOM     10  O   UNL     1       0.454   5.074  -3.669  0.00  0.00    -0.327 OA
BRANCH  10  11
ATOM     11  C   UNL     1      -0.550   5.724  -2.720  0.00  0.00    +0.268 C 
ATOM     12  C   UNL     1      -1.735   4.774  -3.562  0.00  0.00    +0.228 C 
ATOM     13  O   UNL     1      -1.643   5.444  -4.899  0.00  0.00    -0.216 OA
ATOM     14  C   UNL     1      -3.168   5.527  -3.070  0.00  0.00    +0.160 C 
ATOM     15  N   UNL     1      -2.737   5.269  -1.592  0.00  0.00    -0.127 NA
ATOM     16  C   UNL     1      -3.083   7.217  -3.249  0.00  0.00    +0.202 C 
ATOM     17  O   UNL     1      -2.746   7.222  -4.727  0.00  0.00    -0.219 OA
ATOM     18  C   UNL     1      -1.543   7.847  -2.807  0.00  0.00    +0.182 C 
ATOM     19  O   UNL     1      -0.708   6.919  -3.620  0.00  0.00    -0.326 OA
BRANCH  18  20
ATOM     20  C   UNL     1      -1.562   7.175  -1.305  0.00  0.00    +0.214 C 
ATOM     21  O   UNL     1      -1.482   8.429  -0.620  0.00  0.00    -0.218 OA
ENDBRANCH  18  20
ENDBRANCH  10  11
ENDBRANCH   4  10
BRANCH   1  22
ATOM     22  O   UNL     1       3.507   5.016  -6.771  0.00  0.00    -0.328 OA
BRANCH  22  29
ATOM     23  C   UNL     1       3.162   7.375  -9.386  0.00  0.00    +0.167 C 
ATOM     24  C   UNL     1       4.085   6.589 -10.645  0.00  0.00    +0.182 C 
ATOM     25  O   UNL     1       5.400   6.630  -9.883  0.00  0.00    -0.220 OA
ATOM     26  C   UNL     1       3.638   5.076 -10.388  0.00  0.00    +0.060 C 
ATOM     27  C   UNL     1       3.932   4.286  -9.045  0.00  0.00    +0.151 C 
ATOM     28  N   UNL     1       5.261   4.967  -8.555  0.00  0.00    -0.127 NA
ATOM     29  C   UNL     1       2.862   5.314  -8.121  0.00  0.00    +0.253 C 
ATOM     30  O   UNL     1       3.723   6.555  -8.269  0.00  0.00    -0.328 OA
BRANCH  23  32
ATOM     31  N   UNL     1       1.509   6.791  -9.664  0.00  0.00    -0.129 NA
ATOM     32  C   UNL     1       1.795   6.525  -9.678  0.00  0.00    +0.141 C 
ENDBRANCH  23  32
ENDBRANCH  22  29
ENDBRANCH   1  22
TORSDOF 6
ENDMDL
