MODEL 1
REMARK VINA RESULT:      -8.5      0.000      0.000
REMARK  Name = 
REMARK  2 active torsions:
REMARK  status: ('A' for Active; 'I' for Inactive)
REMARK    1  A    between atoms: S_2  and  C_5
REMARK    2  A    between atoms: C_7  and  C_8
REMARK                            x       y       z     vdW  Elec       q    Type
REMARK                         _______ _______ _______ _____ _____    ______ ____
ROOT
ATOM      1  C   UNL     1       6.415   5.431 -11.914  0.00  0.00    +0.135 A 
ATOM      2  C   UNL     1       7.583   5.650 -11.214  0.00  0.00    +0.076 A 
ATOM      3 CL   UNL     1       9.054   5.814 -12.133  0.00  0.00    -0.081 Cl
ATOM      4  C   UNL     1       7.600   5.747  -9.828  0.00  0.00    +0.013 A 
ATOM      5  C   UNL     1       6.389   5.849  -9.166  0.00  0.00    +0.001 A 
ATOM      6  C   UNL     1       5.185   5.654  -9.832  0.00  0.00    +0.030 A 
ATOM      7  C   UNL     1       5.269   5.277 -11.154  0.00  0.00    +0.021 A 
ENDROOT
BRANCH   6   8
ATOM      8  C   UNL     1       4.048   5.172  -9.010  0.00  0.00    +0.242 C 
ATOM      9  C   UNL     1       2.820   5.869  -9.502  0.00  0.00    +0.033 A 
ATOM     10  C   UNL     1       2.018   6.211  -8.434  0.00  0.00    +0.055 A 
ATOM     11  C   UNL     1       0.645   6.219  -8.631  0.00  0.00    +0.004 A 
ATOM     12  C   UNL     1       0.088   6.022  -9.875  0.00  0.00    +0.000 A 
ATOM     13  C   UNL     1       0.926   6.139 -10.972  0.00  0.00    -0.000 A 
ATOM     14  C   UNL     1       2.870   6.116  -7.260  0.00  0.00    +0.267 C 
ATOM     15  O   UNL     1       2.444   6.269  -6.085  0.00  0.00    -0.268 OA
ATOM     16  C   UNL     1       2.259   5.883 -10.763  0.00  0.00    +0.000 A 
ATOM     17  N   UNL     1       4.145   5.628  -7.648  0.00  0.00    -0.167 NA
ATOM     18  O   UNL     1       3.882   3.786  -9.094  0.00  0.00    -0.194 OA
ENDBRANCH   6   8
BRANCH   1  20
ATOM     19  N   UNL     1       6.864   5.288 -14.203  0.00  0.00    +0.039 NA
ATOM     20  S   UNL     1       6.274   5.817 -13.629  0.00  0.00    +0.094 S 
ATOM     21  O   UNL     1       6.505   7.311 -13.736  0.00  0.00    -0.150 OA
ATOM     22  O   UNL     1       4.806   5.636 -13.960  0.00  0.00    -0.150 OA
ENDBRANCH   1  20
TORSDOF 2
ENDMDL
MODEL 2
REMARK VINA RESULT:      -8.4      3.770      6.751
REMARK  Name = 
REMARK  2 active torsions:
REMARK  status: ('A' for Active; 'I' for Inactive)
REMARK    1  A    between atoms: S_2  and  C_5
REMARK    2  A    between atoms: C_7  and  C_8
REMARK                            x       y       z     vdW  Elec       q    Type
REMARK                         _______ _______ _______ _____ _____    ______ ____
ROOT
ATOM      1  C   UNL     1       3.532   5.658  -5.563  0.00  0.00    +0.135 A 
ATOM      2  C   UNL     1       2.576   6.652  -5.575  0.00  0.00    +0.076 A 
ATOM      3 CL   UNL     1       1.967   7.203  -4.040  0.00  0.00    -0.081 Cl
ATOM      4  C   UNL     1       2.112   7.210  -6.761  0.00  0.00    +0.013 A 
ATOM      5  C   UNL     1       2.791   6.913  -7.930  0.00  0.00    +0.001 A 
ATOM      6  C   UNL     1       3.775   5.932  -7.964  0.00  0.00    +0.030 A 
ATOM      7  C   UNL     1       3.974   5.224  -6.800  0.00  0.00    +0.021 A 
ENDROOT
BRANCH   6   8
ATOM      8  C   UNL     1       3.991   5.261  -9.269  0.00  0.00    +0.242 C 
ATOM      9  C   UNL     1       5.298   5.750  -9.806  0.00  0.00    +0.033 A 
ATOM     10  C   UNL     1       5.200   5.943 -11.168  0.00  0.00    +0.055 A 
ATOM     11  C   UNL     1       6.334   5.726 -11.937  0.00  0.00    +0.004 A 
ATOM     12  C   UNL     1       7.557   5.452 -11.367  0.00  0.00    +0.000 A 
ATOM     13  C   UNL     1       7.702   5.716 -10.015  0.00  0.00    -0.000 A 
ATOM     14  C   UNL     1       3.776   5.980 -11.454  0.00  0.00    +0.267 C 
ATOM     15  O   UNL     1       3.309   6.049 -12.623  0.00  0.00    -0.268 OA
ATOM     16  C   UNL     1       6.561   5.682  -9.251  0.00  0.00    +0.000 A 
ATOM     17  N   UNL     1       3.053   5.714 -10.263  0.00  0.00    -0.167 NA
ATOM     18  O   UNL     1       4.008   3.867  -9.153  0.00  0.00    -0.194 OA
ENDBRANCH   6   8
BRANCH   1  20
ATOM     19  N   UNL     1       5.179   4.628  -4.264  0.00  0.00    +0.039 NA
ATOM     20  S   UNL     1       4.494   5.313  -4.126  0.00  0.00    +0.094 S 
ATOM     21  O   UNL     1       3.499   4.964  -3.037  0.00  0.00    -0.150 OA
ATOM     22  O   UNL     1       5.068   6.648  -3.699  0.00  0.00    -0.150 OA
ENDBRANCH   1  20
TORSDOF 2
ENDMDL
MODEL 3
REMARK VINA RESULT:      -8.4      3.382      4.384
REMARK  Name = 
REMARK  2 active torsions:
REMARK  status: ('A' for Active; 'I' for Inactive)
REMARK    1  A    between atoms: S_2  and  C_5
REMARK    2  A    between atoms: C_7  and  C_8
REMARK                            x       y       z     vdW  Elec       q    Type
REMARK                         _______ _______ _______ _____ _____    ______ ____
ROOT
ATOM      1  C   UNL     1       2.077   6.182 -12.524  0.00  0.00    +0.135 A 
ATOM      2  C   UNL     1       0.898   6.881 -12.676  0.00  0.00    +0.076 A 
ATOM      3 CL   UNL     1       0.513   7.476 -14.267  0.00  0.00    -0.081 Cl
ATOM      4  C   UNL     1       0.034   7.102 -11.610  0.00  0.00    +0.013 A 
ATOM      5  C   UNL     1       0.262   6.412 -10.431  0.00  0.00    +0.001 A 
ATOM      6  C   UNL     1       1.426   5.680 -10.238  0.00  0.00    +0.030 A 
ATOM      7  C   UNL     1       2.366   5.747 -11.243  0.00  0.00    +0.021 A 
ENDROOT
BRANCH   6   8
ATOM      8  C   UNL     1       1.874   5.513  -8.834  0.00  0.00    +0.242 C 
ATOM      9  C   UNL     1       0.716   5.862  -7.956  0.00  0.00    +0.033 A 
ATOM     10  C   UNL     1       1.159   6.566  -6.856  0.00  0.00    +0.055 A 
ATOM     11  C   UNL     1       0.472   6.404  -5.662  0.00  0.00    +0.004 A 
ATOM     12  C   UNL     1      -0.692   5.673  -5.587  0.00  0.00    +0.000 A 
ATOM     13  C   UNL     1      -1.333   5.375  -6.778  0.00  0.00    -0.000 A 
ATOM     14  C   UNL     1       2.496   7.023  -7.199  0.00  0.00    +0.267 C 
ATOM     15  O   UNL     1       3.248   7.625  -6.387  0.00  0.00    -0.268 OA
ATOM     16  C   UNL     1      -0.550   5.314  -7.905  0.00  0.00    +0.000 A 
ATOM     17  N   UNL     1       2.857   6.500  -8.468  0.00  0.00    -0.167 NA
ATOM     18  O   UNL     1       2.307   4.210  -8.566  0.00  0.00    -0.194 OA
ENDBRANCH   6   8
BRANCH   1  20
ATOM     19  N   UNL     1       3.110   6.080 -14.618  0.00  0.00    +0.039 NA
ATOM     20  S   UNL     1       2.906   5.449 -13.897  0.00  0.00    +0.094 S 
ATOM     21  O   UNL     1       2.033   4.290 -14.336  0.00  0.00    -0.150 OA
ATOM     22  O   UNL     1       4.141   4.793 -13.315  0.00  0.00    -0.150 OA
ENDBRANCH   1  20
TORSDOF 2
ENDMDL
MODEL 4
REMARK VINA RESULT:      -8.2      3.727      4.997
REMARK  Name = 
REMARK  2 active torsions:
REMARK  status: ('A' for Active; 'I' for Inactive)
REMARK    1  A    between atoms: S_2  and  C_5
REMARK    2  A    between atoms: C_7  and  C_8
REMARK                            x       y       z     vdW  Elec       q    Type
REMARK                         _______ _______ _______ _____ _____    ______ ____
ROOT
ATOM      1  C   UNL     1       1.989   5.528  -9.652  0.00  0.00    +0.135 A 
ATOM      2  C   UNL     1       3.180   6.212  -9.528  0.00  0.00    +0.076 A 
ATOM      3 CL   UNL     1       4.007   6.662 -10.994  0.00  0.00    -0.081 Cl
ATOM      4  C   UNL     1       3.710   6.544  -8.287  0.00  0.00    +0.013 A 
ATOM      5  C   UNL     1       2.909   6.379  -7.170  0.00  0.00    +0.001 A 
ATOM      6  C   UNL     1       1.692   5.713  -7.248  0.00  0.00    +0.030 A 
ATOM      7  C   UNL     1       1.372   5.162  -8.469  0.00  0.00    +0.021 A 
ENDROOT
BRANCH   6   8
ATOM      8  C   UNL     1       1.222   5.052  -6.006  0.00  0.00    +0.242 C 
ATOM      9  C   UNL     1      -0.118   5.628  -5.679  0.00  0.00    +0.033 A 
ATOM     10  C   UNL     1      -0.229   5.807  -4.316  0.00  0.00    +0.055 A 
ATOM     11  C   UNL     1      -1.485   5.665  -3.743  0.00  0.00    +0.004 A 
ATOM     12  C   UNL     1      -2.615   5.480  -4.506  0.00  0.00    +0.000 A 
ATOM     13  C   UNL     1      -2.521   5.761  -5.860  0.00  0.00    -0.000 A 
ATOM     14  C   UNL     1       1.129   5.743  -3.803  0.00  0.00    +0.267 C 
ATOM     15  O   UNL     1       1.405   5.774  -2.574  0.00  0.00    -0.268 OA
ATOM     16  C   UNL     1      -1.276   5.652  -6.430  0.00  0.00    +0.000 A 
ATOM     17  N   UNL     1       2.016   5.433  -4.867  0.00  0.00    -0.167 NA
ATOM     18  O   UNL     1       1.129   3.663  -6.147  0.00  0.00    -0.194 OA
ENDBRANCH   6   8
BRANCH   1  20
ATOM     19  N   UNL     1       1.562   5.277 -11.935  0.00  0.00    +0.039 NA
ATOM     20  S   UNL     1       1.054   5.555 -11.147  0.00  0.00    +0.094 S 
ATOM     21  O   UNL     1       0.487   6.957 -11.254  0.00  0.00    -0.150 OA
ATOM     22  O   UNL     1      -0.153   4.678 -10.879  0.00  0.00    -0.150 OA
ENDBRANCH   1  20
TORSDOF 2
ENDMDL
MODEL 5
REMARK VINA RESULT:      -8.1      5.729      8.952
REMARK  Name = 
REMARK  2 active torsions:
REMARK  status: ('A' for Active; 'I' for Inactive)
REMARK    1  A    between atoms: S_2  and  C_5
REMARK    2  A    between atoms: C_7  and  C_8
REMARK                            x       y       z     vdW  Elec       q    Type
REMARK                         _______ _______ _______ _____ _____    ______ ____
ROOT
ATOM      1  C   UNL     1      -0.700   5.939  -3.194  0.00  0.00    +0.135 A 
ATOM      2  C   UNL     1      -1.336   7.100  -3.582  0.00  0.00    +0.076 A 
ATOM      3 CL   UNL     1      -2.327   7.909  -2.400  0.00  0.00    -0.081 Cl
ATOM      4  C   UNL     1      -1.193   7.622  -4.862  0.00  0.00    +0.013 A 
ATOM      5  C   UNL     1      -0.217   7.082  -5.682  0.00  0.00    +0.001 A 
ATOM      6  C   UNL     1       0.464   5.924  -5.327  0.00  0.00    +0.030 A 
ATOM      7  C   UNL     1       0.057   5.307  -4.164  0.00  0.00    +0.021 A 
ENDROOT
BRANCH   6   8
ATOM      8  C   UNL     1       0.989   5.099  -6.442  0.00  0.00    +0.242 C 
ATOM      9  C   UNL     1       2.337   5.641  -6.795  0.00  0.00    +0.033 A 
ATOM     10  C   UNL     1       2.502   5.627  -8.164  0.00  0.00    +0.055 A 
ATOM     11  C   UNL     1       3.781   5.421  -8.661  0.00  0.00    +0.004 A 
ATOM     12  C   UNL     1       4.880   5.361  -7.835  0.00  0.00    +0.000 A 
ATOM     13  C   UNL     1       4.729   5.829  -6.540  0.00  0.00    -0.000 A 
ATOM     14  C   UNL     1       1.166   5.473  -8.716  0.00  0.00    +0.267 C 
ATOM     15  O   UNL     1       0.941   5.325  -9.947  0.00  0.00    -0.268 OA
ATOM     16  C   UNL     1       3.463   5.786  -6.010  0.00  0.00    +0.000 A 
ATOM     17  N   UNL     1       0.239   5.305  -7.654  0.00  0.00    -0.167 NA
ATOM     18  O   UNL     1       1.086   3.746  -6.102  0.00  0.00    -0.194 OA
ENDBRANCH   6   8
BRANCH   1  20
ATOM     19  N   UNL     1      -1.261   5.369  -0.999  0.00  0.00    +0.039 NA
ATOM     20  S   UNL     1      -0.437   5.548  -1.495  0.00  0.00    +0.094 S 
ATOM     21  O   UNL     1       0.375   6.696  -0.928  0.00  0.00    -0.150 OA
ATOM     22  O   UNL     1       0.520   4.373  -1.499  0.00  0.00    -0.150 OA
ENDBRANCH   1  20
TORSDOF 2
ENDMDL
MODEL 6
REMARK VINA RESULT:      -8.0      4.993      7.796
REMARK  Name = 
REMARK  2 active torsions:
REMARK  status: ('A' for Active; 'I' for Inactive)
REMARK    1  A    between atoms: S_2  and  C_5
REMARK    2  A    between atoms: C_7  and  C_8
REMARK                            x       y       z     vdW  Elec       q    Type
REMARK                         _______ _______ _______ _____ _____    ______ ____
ROOT
ATOM      1  C   UNL     1      -0.237   6.672  -4.411  0.00  0.00    +0.135 A 
ATOM      2  C   UNL     1       0.472   5.774  -3.640  0.00  0.00    +0.076 A 
ATOM      3 CL   UNL     1      -0.158   5.396  -2.061  0.00  0.00    -0.081 Cl
ATOM      4  C   UNL     1       1.642   5.179  -4.095  0.00  0.00    +0.013 A 
ATOM      5  C   UNL     1       1.970   5.325  -5.433  0.00  0.00    +0.001 A 
ATOM      6  C   UNL     1       1.274   6.204  -6.254  0.00  0.00    +0.030 A 
ATOM      7  C   UNL     1       0.305   6.972  -5.648  0.00  0.00    +0.021 A 
ENDROOT
BRANCH   6   8
ATOM      8  C   UNL     1       2.021   6.756  -7.411  0.00  0.00    +0.242 C 
ATOM      9  C   UNL     1       1.553   6.025  -8.628  0.00  0.00    +0.033 A 
ATOM     10  C   UNL     1       2.622   5.775  -9.462  0.00  0.00    +0.055 A 
ATOM     11  C   UNL     1       2.387   5.756 -10.829  0.00  0.00    +0.004 A 
ATOM     12  C   UNL     1       1.117   5.851 -11.350  0.00  0.00    +0.000 A 
ATOM     13  C   UNL     1       0.057   5.641 -10.482  0.00  0.00    -0.000 A 
ATOM     14  C   UNL     1       3.808   5.963  -8.643  0.00  0.00    +0.267 C 
ATOM     15  O   UNL     1       4.980   5.908  -9.102  0.00  0.00    -0.268 OA
ATOM     16  C   UNL     1       0.282   5.909  -9.154  0.00  0.00    +0.000 A 
ATOM     17  N   UNL     1       3.418   6.413  -7.354  0.00  0.00    -0.167 NA
ATOM     18  O   UNL     1       1.819   8.131  -7.566  0.00  0.00    -0.194 OA
ENDBRANCH   6   8
BRANCH   1  20
ATOM     19  N   UNL     1      -2.085   7.558  -3.289  0.00  0.00    +0.039 NA
ATOM     20  S   UNL     1      -1.936   7.027  -4.097  0.00  0.00    +0.094 S 
ATOM     21  O   UNL     1      -2.642   5.686  -4.080  0.00  0.00    -0.150 OA
ATOM     22  O   UNL     1      -2.441   7.705  -5.354  0.00  0.00    -0.150 OA
ENDBRANCH   1  20
TORSDOF 2
ENDMDL
MODEL 7
REMARK VINA RESULT:      -8.0      3.224      5.950
REMARK  Name = 
REMARK  2 active torsions:
REMARK  status: ('A' for Active; 'I' for Inactive)
REMARK    1  A    between atoms: S_2  and  C_5
REMARK    2  A    between atoms: C_7  and  C_8
REMARK                            x       y       z     vdW  Elec       q    Type
REMARK                         _______ _______ _______ _____ _____    ______ ____
ROOT
ATOM      1  C   UNL     1       3.299   6.171  -9.226  0.00  0.00    +0.135 A 
ATOM      2  C   UNL     1       3.824   5.577  -8.097  0.00  0.00    +0.076 A 
ATOM      3 CL   UNL     1       2.714   5.136  -6.829  0.00  0.00    -0.081 Cl
ATOM      4  C   UNL     1       5.184   5.326  -7.965  0.00  0.00    +0.013 A 
ATOM      5  C   UNL     1       5.986   5.473  -9.084  0.00  0.00    +0.001 A 
ATOM      6  C   UNL     1       5.498   6.048 -10.251  0.00  0.00    +0.030 A 
ATOM      7  C   UNL     1       4.210   6.534 -10.202  0.00  0.00    +0.021 A 
ENDROOT
BRANCH   6   8
ATOM      8  C   UNL     1       6.495   6.718 -11.122  0.00  0.00    +0.242 C 
ATOM      9  C   UNL     1       6.274   6.215 -12.512  0.00  0.00    +0.033 A 
ATOM     10  C   UNL     1       7.488   6.022 -13.137  0.00  0.00    +0.055 A 
ATOM     11  C   UNL     1       7.551   6.228 -14.508  0.00  0.00    +0.004 A 
ATOM     12  C   UNL     1       6.426   6.489 -15.257  0.00  0.00    +0.000 A 
ATOM     13  C   UNL     1       5.198   6.223 -14.672  0.00  0.00    -0.000 A 
ATOM     14  C   UNL     1       8.476   6.000 -12.072  0.00  0.00    +0.267 C 
ATOM     15  O   UNL     1       9.716   5.936 -12.282  0.00  0.00    -0.268 OA
ATOM     16  C   UNL     1       5.142   6.269 -13.301  0.00  0.00    +0.000 A 
ATOM     17  N   UNL     1       7.835   6.274 -10.835  0.00  0.00    -0.167 NA
ATOM     18  O   UNL     1       6.379   8.111 -11.088  0.00  0.00    -0.194 OA
ENDBRANCH   6   8
BRANCH   1  20
ATOM     19  N   UNL     1       0.992   6.478  -9.013  0.00  0.00    +0.039 NA
ATOM     20  S   UNL     1       1.591   6.028  -9.642  0.00  0.00    +0.094 S 
ATOM     21  O   UNL     1       1.323   4.542  -9.779  0.00  0.00    -0.150 OA
ATOM     22  O   UNL     1       1.478   6.564 -11.055  0.00  0.00    -0.150 OA
ENDBRANCH   1  20
TORSDOF 2
ENDMDL
MODEL 8
REMARK VINA RESULT:      -8.0      7.182      9.607
REMARK  Name = 
REMARK  2 active torsions:
REMARK  status: ('A' for Active; 'I' for Inactive)
REMARK    1  A    between atoms: S_2  and  C_5
REMARK    2  A    between atoms: C_7  and  C_8
REMARK                            x       y       z     vdW  Elec       q    Type
REMARK                         _______ _______ _______ _____ _____    ______ ____
ROOT
ATOM      1  C   UNL     1      -1.096   5.553  -4.226  0.00  0.00    +0.135 A 
ATOM      2  C   UNL     1      -1.258   5.920  -5.546  0.00  0.00    +0.076 A 
ATOM      3 CL   UNL     1      -2.855   5.788  -6.229  0.00  0.00    -0.081 Cl
ATOM      4  C   UNL     1      -0.198   6.390  -6.312  0.00  0.00    +0.013 A 
ATOM      5  C   UNL     1       0.986   6.701  -5.665  0.00  0.00    +0.001 A 
ATOM      6  C   UNL     1       1.190   6.367  -4.332  0.00  0.00    +0.030 A 
ATOM      7  C   UNL     1       0.189   5.643  -3.722  0.00  0.00    +0.021 A 
ENDROOT
BRANCH   6   8
ATOM      8  C   UNL     1       2.597   6.158  -3.913  0.00  0.00    +0.242 C 
ATOM      9  C   UNL     1       2.773   6.849  -2.598  0.00  0.00    +0.033 A 
ATOM     10  C   UNL     1       4.007   7.463  -2.556  0.00  0.00    +0.055 A 
ATOM     11  C   UNL     1       4.645   7.552  -1.327  0.00  0.00    +0.004 A 
ATOM     12  C   UNL     1       4.030   7.163  -0.159  0.00  0.00    +0.000 A 
ATOM     13  C   UNL     1       2.656   6.988  -0.192  0.00  0.00    -0.000 A 
ATOM     14  C   UNL     1       4.457   7.529  -3.936  0.00  0.00    +0.267 C 
ATOM     15  O   UNL     1       5.598   7.948  -4.271  0.00  0.00    -0.268 OA
ATOM     16  C   UNL     1       2.102   6.662  -1.406  0.00  0.00    +0.000 A 
ATOM     17  N   UNL     1       3.517   6.864  -4.766  0.00  0.00    -0.167 NA
ATOM     18  O   UNL     1       2.919   4.803  -3.793  0.00  0.00    -0.194 OA
ENDBRANCH   6   8
BRANCH   1  20
ATOM     19  N   UNL     1      -3.192   4.893  -3.430  0.00  0.00    +0.039 NA
ATOM     20  S   UNL     1      -2.461   5.462  -3.113  0.00  0.00    +0.094 S 
ATOM     21  O   UNL     1      -2.879   6.897  -2.855  0.00  0.00    -0.150 OA
ATOM     22  O   UNL     1      -1.873   4.997  -1.797  0.00  0.00    -0.150 OA
ENDBRANCH   1  20
TORSDOF 2
ENDMDL
MODEL 9
REMARK VINA RESULT:      -7.9      3.253      4.634
REMARK  Name = 
REMARK  2 active torsions:
REMARK  status: ('A' for Active; 'I' for Inactive)
REMARK    1  A    between atoms: S_2  and  C_5
REMARK    2  A    between atoms: C_7  and  C_8
REMARK                            x       y       z     vdW  Elec       q    Type
REMARK                         _______ _______ _______ _____ _____    ______ ____
ROOT
ATOM      1  C   UNL     1       1.740   5.454 -12.666  0.00  0.00    +0.135 A 
ATOM      2  C   UNL     1       0.606   4.691 -12.846  0.00  0.00    +0.076 A 
ATOM      3 CL   UNL     1       0.249   4.147 -14.461  0.00  0.00    -0.081 Cl
ATOM      4  C   UNL     1      -0.226   4.352 -11.786  0.00  0.00    +0.013 A 
ATOM      5  C   UNL     1       0.222   4.601 -10.500  0.00  0.00    +0.001 A 
ATOM      6  C   UNL     1       1.369   5.350 -10.267  0.00  0.00    +0.030 A 
ATOM      7  C   UNL     1       1.981   5.893 -11.376  0.00  0.00    +0.021 A 
ENDROOT
BRANCH   6   8
ATOM      8  C   UNL     1       1.434   6.073  -8.974  0.00  0.00    +0.242 C 
ATOM      9  C   UNL     1       2.589   5.510  -8.210  0.00  0.00    +0.033 A 
ATOM     10  C   UNL     1       2.257   5.401  -6.876  0.00  0.00    +0.055 A 
ATOM     11  C   UNL     1       3.269   5.568  -5.941  0.00  0.00    +0.004 A 
ATOM     12  C   UNL     1       4.586   5.709  -6.313  0.00  0.00    +0.000 A 
ATOM     13  C   UNL     1       4.921   5.358  -7.611  0.00  0.00    -0.000 A 
ATOM     14  C   UNL     1       0.808   5.497  -6.826  0.00  0.00    +0.267 C 
ATOM     15  O   UNL     1       0.156   5.531  -5.748  0.00  0.00    -0.268 OA
ATOM     16  C   UNL     1       3.924   5.442  -8.553  0.00  0.00    +0.000 A 
ATOM     17  N   UNL     1       0.311   5.755  -8.130  0.00  0.00    -0.167 NA
ATOM     18  O   UNL     1       1.594   7.452  -9.145  0.00  0.00    -0.194 OA
ENDBRANCH   6   8
BRANCH   1  20
ATOM     19  N   UNL     1       3.245   4.577 -14.224  0.00  0.00    +0.039 NA
ATOM     20  S   UNL     1       3.054   5.458 -13.843  0.00  0.00    +0.094 S 
ATOM     21  O   UNL     1       4.240   6.084 -13.137  0.00  0.00    -0.150 OA
ATOM     22  O   UNL     1       2.652   6.480 -14.886  0.00  0.00    -0.150 OA
ENDBRANCH   1  20
TORSDOF 2
ENDMDL
