MODEL 1
REMARK VINA RESULT:     -11.7      0.000      0.000
REMARK  Name = 
REMARK  0 active torsions:
REMARK  status: ('A' for Active; 'I' for Inactive)
REMARK                            x       y       z     vdW  Elec       q    Type
REMARK                         _______ _______ _______ _____ _____    ______ ____
ROOT
ATOM      1  C   UNL     1       0.756   5.646 -10.804  0.00  0.00    +0.003 C 
ATOM      2  C   UNL     1       1.711   5.579  -9.650  0.00  0.00    +0.034 C 
ATOM      3  C   UNL     1       2.684   5.618 -10.791  0.00  0.00    +0.136 C 
ATOM      4  O   UNL     1       3.655   5.657 -11.933  0.00  0.00    -0.456 OA
ATOM      5  C   UNL     1       2.870   5.727 -13.209  0.00  0.00    +0.317 C 
ATOM      6  O   UNL     1       3.441   5.782 -14.595  0.00  0.00    -0.250 OA
ATOM      7  C   UNL     1       1.412   5.731 -12.855  0.00  0.00    +0.113 C 
ATOM      8  C   UNL     1       1.297   5.664 -11.362  0.00  0.00    +0.052 C 
ATOM      9  C   UNL     1       4.070   5.572 -10.221  0.00  0.00    +0.037 C 
ATOM     10  C   UNL     1       3.955   5.505  -8.727  0.00  0.00    +0.004 C 
ATOM     11  C   UNL     1       5.308   5.516  -9.375  0.00  0.00    +0.004 C 
ATOM     12  C   UNL     1       2.497   5.510  -8.374  0.00  0.00    +0.003 C 
ATOM     13  C   UNL     1       1.784   5.459  -7.056  0.00  0.00    +0.001 C 
ATOM     14  C   UNL     1       2.570   5.389  -5.779  0.00  0.00    +0.004 C 
ATOM     15  C   UNL     1       1.856   5.339  -4.461  0.00  0.00    +0.018 C 
ATOM     16  C   UNL     1       0.356   5.358  -4.419  0.00  0.00    -0.042 C 
ATOM     17  C   UNL     1      -0.429   5.428  -5.694  0.00  0.00    +0.016 C 
ATOM     18  C   UNL     1      -1.215   5.498  -6.971  0.00  0.00    +0.004 C 
ATOM     19  C   UNL     1      -1.929   5.447  -5.652  0.00  0.00    +0.012 C 
ATOM     20  C   UNL     1      -2.642   5.397  -4.333  0.00  0.00    +0.069 C 
ATOM     21  C   UNL     1      -1.856   5.327  -3.058  0.00  0.00    +0.173 C 
ATOM     22  O   UNL     1      -2.570   5.276  -1.739  0.00  0.00    -0.291 OA
ATOM     23  C   UNL     1      -0.357   5.308  -3.100  0.00  0.00    +0.029 C 
ATOM     24  C   UNL     1       3.355   5.320  -4.504  0.00  0.00    +0.004 C 
ATOM     25  C   UNL     1       0.284   5.478  -7.013  0.00  0.00    +0.003 C 
ATOM     26  C   UNL     1      -0.501   5.548  -8.289  0.00  0.00    +0.000 C 
ATOM     27  C   UNL     1       0.212   5.599  -9.607  0.00  0.00    +0.003 C 
ENDROOT
TORSDOF 0
ENDMDL
MODEL 2
REMARK VINA RESULT:     -11.7      1.501      7.973
REMARK  Name = 
REMARK  0 active torsions:
REMARK  status: ('A' for Active; 'I' for Inactive)
REMARK                            x       y       z     vdW  Elec       q    Type
REMARK                         _______ _______ _______ _____ _____    ______ ____
ROOT
ATOM      1  C   UNL     1       1.288   5.334  -4.051  0.00  0.00    +0.003 C 
ATOM      2  C   UNL     1       0.687   5.479  -5.418  0.00  0.00    +0.034 C 
ATOM      3  C   UNL     1      -0.560   5.469  -4.584  0.00  0.00    +0.136 C 
ATOM      4  O   UNL     1      -1.806   5.460  -3.751  0.00  0.00    -0.456 OA
ATOM      5  C   UNL     1      -1.403   5.319  -2.313  0.00  0.00    +0.317 C 
ATOM      6  O   UNL     1      -2.331   5.265  -1.137  0.00  0.00    -0.250 OA
ATOM      7  C   UNL     1       0.095   5.241  -2.258  0.00  0.00    +0.113 C 
ATOM      8  C   UNL     1       0.615   5.334  -3.661  0.00  0.00    +0.052 C 
ATOM      9  C   UNL     1      -1.735   5.604  -5.506  0.00  0.00    +0.037 C 
ATOM     10  C   UNL     1      -1.214   5.697  -6.910  0.00  0.00    +0.004 C 
ATOM     11  C   UNL     1      -2.691   5.748  -6.653  0.00  0.00    +0.004 C 
ATOM     12  C   UNL     1       0.283   5.620  -6.855  0.00  0.00    +0.003 C 
ATOM     13  C   UNL     1       1.330   5.659  -7.928  0.00  0.00    +0.001 C 
ATOM     14  C   UNL     1       0.925   5.800  -9.367  0.00  0.00    +0.004 C 
ATOM     15  C   UNL     1       1.973   5.840 -10.440  0.00  0.00    +0.018 C 
ATOM     16  C   UNL     1       3.425   5.738 -10.075  0.00  0.00    -0.042 C 
ATOM     17  C   UNL     1       3.829   5.597  -8.638  0.00  0.00    +0.016 C 
ATOM     18  C   UNL     1       4.233   5.456  -7.200  0.00  0.00    +0.004 C 
ATOM     19  C   UNL     1       5.281   5.496  -8.273  0.00  0.00    +0.012 C 
ATOM     20  C   UNL     1       6.327   5.535  -9.347  0.00  0.00    +0.069 C 
ATOM     21  C   UNL     1       5.923   5.676 -10.784  0.00  0.00    +0.173 C 
ATOM     22  O   UNL     1       6.971   5.716 -11.857  0.00  0.00    -0.291 OA
ATOM     23  C   UNL     1       4.471   5.778 -11.148  0.00  0.00    +0.029 C 
ATOM     24  C   UNL     1       0.521   5.941 -10.804  0.00  0.00    +0.004 C 
ATOM     25  C   UNL     1       2.782   5.558  -7.564  0.00  0.00    +0.003 C 
ATOM     26  C   UNL     1       3.186   5.417  -6.127  0.00  0.00    +0.000 C 
ATOM     27  C   UNL     1       2.139   5.377  -5.053  0.00  0.00    +0.003 C 
ENDROOT
TORSDOF 0
ENDMDL
MODEL 3
REMARK VINA RESULT:     -11.7      0.850      7.329
REMARK  Name = 
REMARK  0 active torsions:
REMARK  status: ('A' for Active; 'I' for Inactive)
REMARK                            x       y       z     vdW  Elec       q    Type
REMARK                         _______ _______ _______ _____ _____    ______ ____
ROOT
ATOM      1  C   UNL     1      -1.374   5.461  -6.344  0.00  0.00    +0.003 C 
ATOM      2  C   UNL     1       0.126   5.444  -6.345  0.00  0.00    +0.034 C 
ATOM      3  C   UNL     1      -0.134   5.382  -4.869  0.00  0.00    +0.136 C 
ATOM      4  O   UNL     1      -0.395   5.320  -3.393  0.00  0.00    -0.456 OA
ATOM      5  C   UNL     1      -1.880   5.328  -3.183  0.00  0.00    +0.317 C 
ATOM      6  O   UNL     1      -2.584   5.278  -1.860  0.00  0.00    -0.250 OA
ATOM      7  C   UNL     1      -2.538   5.395  -4.530  0.00  0.00    +0.113 C 
ATOM      8  C   UNL     1      -1.459   5.428  -5.571  0.00  0.00    +0.052 C 
ATOM      9  C   UNL     1       1.190   5.336  -4.167  0.00  0.00    +0.037 C 
ATOM     10  C   UNL     1       2.269   5.369  -5.208  0.00  0.00    +0.004 C 
ATOM     11  C   UNL     1       2.632   5.301  -3.754  0.00  0.00    +0.004 C 
ATOM     12  C   UNL     1       1.611   5.436  -6.554  0.00  0.00    +0.003 C 
ATOM     13  C   UNL     1       2.172   5.490  -7.944  0.00  0.00    +0.001 C 
ATOM     14  C   UNL     1       3.658   5.482  -8.154  0.00  0.00    +0.004 C 
ATOM     15  C   UNL     1       4.219   5.537  -9.544  0.00  0.00    +0.018 C 
ATOM     16  C   UNL     1       3.295   5.599 -10.724  0.00  0.00    -0.042 C 
ATOM     17  C   UNL     1       1.811   5.607 -10.515  0.00  0.00    +0.016 C 
ATOM     18  C   UNL     1       0.325   5.616 -10.304  0.00  0.00    +0.004 C 
ATOM     19  C   UNL     1       0.886   5.670 -11.695  0.00  0.00    +0.012 C 
ATOM     20  C   UNL     1       1.448   5.725 -13.084  0.00  0.00    +0.069 C 
ATOM     21  C   UNL     1       2.933   5.716 -13.294  0.00  0.00    +0.173 C 
ATOM     22  O   UNL     1       3.495   5.771 -14.685  0.00  0.00    -0.291 OA
ATOM     23  C   UNL     1       3.857   5.654 -12.114  0.00  0.00    +0.029 C 
ATOM     24  C   UNL     1       5.143   5.474  -8.364  0.00  0.00    +0.004 C 
ATOM     25  C   UNL     1       1.248   5.553  -9.124  0.00  0.00    +0.003 C 
ATOM     26  C   UNL     1      -0.236   5.561  -8.915  0.00  0.00    +0.000 C 
ATOM     27  C   UNL     1      -0.799   5.507  -7.525  0.00  0.00    +0.003 C 
ENDROOT
TORSDOF 0
ENDMDL
MODEL 4
REMARK VINA RESULT:     -11.6      2.006      4.442
REMARK  Name = 
REMARK  0 active torsions:
REMARK  status: ('A' for Active; 'I' for Inactive)
REMARK                            x       y       z     vdW  Elec       q    Type
REMARK                         _______ _______ _______ _____ _____    ______ ____
ROOT
ATOM      1  C   UNL     1       6.310   5.749  -9.217  0.00  0.00    +0.003 C 
ATOM      2  C   UNL     1       5.042   5.654 -10.013  0.00  0.00    +0.034 C 
ATOM      3  C   UNL     1       6.048   5.663 -11.126  0.00  0.00    +0.136 C 
ATOM      4  O   UNL     1       7.054   5.672 -12.238  0.00  0.00    -0.456 OA
ATOM      5  C   UNL     1       8.421   5.766 -11.627  0.00  0.00    +0.317 C 
ATOM      6  O   UNL     1       9.720   5.804 -12.374  0.00  0.00    -0.250 OA
ATOM      7  C   UNL     1       8.259   5.815 -10.136  0.00  0.00    +0.113 C 
ATOM      8  C   UNL     1       6.793   5.751  -9.827  0.00  0.00    +0.052 C 
ATOM      9  C   UNL     1       5.304   5.575 -12.425  0.00  0.00    +0.037 C 
ATOM     10  C   UNL     1       3.837   5.511 -12.115  0.00  0.00    +0.004 C 
ATOM     11  C   UNL     1       4.305   5.480 -13.540  0.00  0.00    +0.004 C 
ATOM     12  C   UNL     1       3.676   5.560 -10.625  0.00  0.00    +0.003 C 
ATOM     13  C   UNL     1       2.461   5.531  -9.746  0.00  0.00    +0.001 C 
ATOM     14  C   UNL     1       1.094   5.437 -10.357  0.00  0.00    +0.004 C 
ATOM     15  C   UNL     1      -0.121   5.408  -9.477  0.00  0.00    +0.018 C 
ATOM     16  C   UNL     1       0.031   5.473  -7.986  0.00  0.00    -0.042 C 
ATOM     17  C   UNL     1       1.397   5.567  -7.375  0.00  0.00    +0.016 C 
ATOM     18  C   UNL     1       2.765   5.661  -6.764  0.00  0.00    +0.004 C 
ATOM     19  C   UNL     1       1.549   5.632  -5.884  0.00  0.00    +0.012 C 
ATOM     20  C   UNL     1       0.334   5.603  -5.005  0.00  0.00    +0.069 C 
ATOM     21  C   UNL     1      -1.032   5.509  -5.616  0.00  0.00    +0.173 C 
ATOM     22  O   UNL     1      -2.247   5.480  -4.736  0.00  0.00    -0.291 OA
ATOM     23  C   UNL     1      -1.184   5.444  -7.107  0.00  0.00    +0.029 C 
ATOM     24  C   UNL     1      -0.272   5.343 -10.968  0.00  0.00    +0.004 C 
ATOM     25  C   UNL     1       2.613   5.596  -8.254  0.00  0.00    +0.003 C 
ATOM     26  C   UNL     1       3.979   5.690  -7.643  0.00  0.00    +0.000 C 
ATOM     27  C   UNL     1       5.194   5.719  -8.522  0.00  0.00    +0.003 C 
ENDROOT
TORSDOF 0
ENDMDL
MODEL 5
REMARK VINA RESULT:     -11.5      1.525      2.383
REMARK  Name = 
REMARK  0 active torsions:
REMARK  status: ('A' for Active; 'I' for Inactive)
REMARK                            x       y       z     vdW  Elec       q    Type
REMARK                         _______ _______ _______ _____ _____    ______ ____
ROOT
ATOM      1  C   UNL     1       3.365   5.705 -11.876  0.00  0.00    +0.003 C 
ATOM      2  C   UNL     1       4.026   5.675 -10.530  0.00  0.00    +0.034 C 
ATOM      3  C   UNL     1       5.237   5.708 -11.415  0.00  0.00    +0.136 C 
ATOM      4  O   UNL     1       6.447   5.741 -12.299  0.00  0.00    -0.456 OA
ATOM      5  C   UNL     1       5.981   5.774 -13.724  0.00  0.00    +0.317 C 
ATOM      6  O   UNL     1       6.858   5.812 -14.940  0.00  0.00    -0.250 OA
ATOM      7  C   UNL     1       4.480   5.761 -13.720  0.00  0.00    +0.113 C 
ATOM      8  C   UNL     1       4.021   5.721 -12.293  0.00  0.00    +0.052 C 
ATOM      9  C   UNL     1       6.453   5.695 -10.537  0.00  0.00    +0.037 C 
ATOM     10  C   UNL     1       5.994   5.655  -9.109  0.00  0.00    +0.004 C 
ATOM     11  C   UNL     1       7.460   5.675  -9.425  0.00  0.00    +0.004 C 
ATOM     12  C   UNL     1       4.494   5.642  -9.105  0.00  0.00    +0.003 C 
ATOM     13  C   UNL     1       3.494   5.605  -7.988  0.00  0.00    +0.001 C 
ATOM     14  C   UNL     1       3.961   5.572  -6.563  0.00  0.00    +0.004 C 
ATOM     15  C   UNL     1       2.961   5.536  -5.446  0.00  0.00    +0.018 C 
ATOM     16  C   UNL     1       1.492   5.531  -5.754  0.00  0.00    -0.042 C 
ATOM     17  C   UNL     1       1.025   5.564  -7.178  0.00  0.00    +0.016 C 
ATOM     18  C   UNL     1       0.558   5.597  -8.604  0.00  0.00    +0.004 C 
ATOM     19  C   UNL     1      -0.443   5.560  -7.486  0.00  0.00    +0.012 C 
ATOM     20  C   UNL     1      -1.443   5.523  -6.369  0.00  0.00    +0.069 C 
ATOM     21  C   UNL     1      -0.976   5.490  -4.945  0.00  0.00    +0.173 C 
ATOM     22  O   UNL     1      -1.977   5.453  -3.827  0.00  0.00    -0.291 OA
ATOM     23  C   UNL     1       0.493   5.494  -4.637  0.00  0.00    +0.029 C 
ATOM     24  C   UNL     1       4.429   5.540  -5.139  0.00  0.00    +0.004 C 
ATOM     25  C   UNL     1       2.025   5.601  -8.297  0.00  0.00    +0.003 C 
ATOM     26  C   UNL     1       1.558   5.634  -9.721  0.00  0.00    +0.000 C 
ATOM     27  C   UNL     1       2.558   5.671 -10.838  0.00  0.00    +0.003 C 
ENDROOT
TORSDOF 0
ENDMDL
MODEL 6
REMARK VINA RESULT:     -11.2      1.374      3.520
REMARK  Name = 
REMARK  0 active torsions:
REMARK  status: ('A' for Active; 'I' for Inactive)
REMARK                            x       y       z     vdW  Elec       q    Type
REMARK                         _______ _______ _______ _____ _____    ______ ____
ROOT
ATOM      1  C   UNL     1       3.951   5.587  -7.639  0.00  0.00    +0.003 C 
ATOM      2  C   UNL     1       2.460   5.573  -7.801  0.00  0.00    +0.034 C 
ATOM      3  C   UNL     1       2.880   5.486  -9.239  0.00  0.00    +0.136 C 
ATOM      4  O   UNL     1       3.299   5.400 -10.676  0.00  0.00    -0.456 OA
ATOM      5  C   UNL     1       4.798   5.401 -10.723  0.00  0.00    +0.317 C 
ATOM      6  O   UNL     1       5.643   5.327 -11.960  0.00  0.00    -0.250 OA
ATOM      7  C   UNL     1       5.306   5.488  -9.313  0.00  0.00    +0.113 C 
ATOM      8  C   UNL     1       4.120   5.541  -8.397  0.00  0.00    +0.052 C 
ATOM      9  C   UNL     1       1.640   5.432 -10.081  0.00  0.00    +0.037 C 
ATOM     10  C   UNL     1       0.454   5.485  -9.163  0.00  0.00    +0.004 C 
ATOM     11  C   UNL     1       0.251   5.394 -10.647  0.00  0.00    +0.004 C 
ATOM     12  C   UNL     1       0.961   5.572  -7.755  0.00  0.00    +0.003 C 
ATOM     13  C   UNL     1       0.252   5.650  -6.436  0.00  0.00    +0.001 C 
ATOM     14  C   UNL     1      -1.248   5.649  -6.389  0.00  0.00    +0.004 C 
ATOM     15  C   UNL     1      -1.957   5.728  -5.070  0.00  0.00    +0.018 C 
ATOM     16  C   UNL     1      -1.167   5.808  -3.797  0.00  0.00    -0.042 C 
ATOM     17  C   UNL     1       0.331   5.809  -3.843  0.00  0.00    +0.016 C 
ATOM     18  C   UNL     1       1.831   5.810  -3.890  0.00  0.00    +0.004 C 
ATOM     19  C   UNL     1       1.121   5.888  -2.570  0.00  0.00    +0.012 C 
ATOM     20  C   UNL     1       0.411   5.967  -1.252  0.00  0.00    +0.069 C 
ATOM     21  C   UNL     1      -1.087   5.966  -1.205  0.00  0.00    +0.173 C 
ATOM     22  O   UNL     1      -1.797   6.045   0.115  0.00  0.00    -0.291 OA
ATOM     23  C   UNL     1      -1.877   5.886  -2.478  0.00  0.00    +0.029 C 
ATOM     24  C   UNL     1      -2.747   5.648  -6.343  0.00  0.00    +0.004 C 
ATOM     25  C   UNL     1       1.042   5.730  -5.163  0.00  0.00    +0.003 C 
ATOM     26  C   UNL     1       2.540   5.731  -5.209  0.00  0.00    +0.000 C 
ATOM     27  C   UNL     1       3.251   5.653  -6.528  0.00  0.00    +0.003 C 
ENDROOT
TORSDOF 0
ENDMDL
MODEL 7
REMARK VINA RESULT:     -11.0      1.676      2.269
REMARK  Name = 
REMARK  0 active torsions:
REMARK  status: ('A' for Active; 'I' for Inactive)
REMARK                            x       y       z     vdW  Elec       q    Type
REMARK                         _______ _______ _______ _____ _____    ______ ____
ROOT
ATOM      1  C   UNL     1       0.040   5.354  -9.258  0.00  0.00    +0.003 C 
ATOM      2  C   UNL     1       1.323   5.849  -8.661  0.00  0.00    +0.034 C 
ATOM      3  C   UNL     1       1.686   5.874 -10.116  0.00  0.00    +0.136 C 
ATOM      4  O   UNL     1       2.049   5.900 -11.571  0.00  0.00    -0.456 OA
ATOM      5  C   UNL     1       0.861   5.425 -12.354  0.00  0.00    +0.317 C 
ATOM      6  O   UNL     1       0.782   5.293 -13.846  0.00  0.00    -0.250 OA
ATOM      7  C   UNL     1      -0.237   5.106 -11.382  0.00  0.00    +0.113 C 
ATOM      8  C   UNL     1       0.273   5.384 -10.000  0.00  0.00    +0.052 C 
ATOM      9  C   UNL     1       3.099   6.364 -10.233  0.00  0.00    +0.037 C 
ATOM     10  C   UNL     1       3.609   6.642  -8.850  0.00  0.00    +0.004 C 
ATOM     11  C   UNL     1       4.497   6.871 -10.037  0.00  0.00    +0.004 C 
ATOM     12  C   UNL     1       2.512   6.323  -7.878  0.00  0.00    +0.003 C 
ATOM     13  C   UNL     1       2.441   6.403  -6.383  0.00  0.00    +0.001 C 
ATOM     14  C   UNL     1       3.630   6.878  -5.599  0.00  0.00    +0.004 C 
ATOM     15  C   UNL     1       3.559   6.958  -4.103  0.00  0.00    +0.018 C 
ATOM     16  C   UNL     1       2.300   6.564  -3.390  0.00  0.00    -0.042 C 
ATOM     17  C   UNL     1       1.112   6.090  -4.172  0.00  0.00    +0.016 C 
ATOM     18  C   UNL     1      -0.077   5.615  -4.955  0.00  0.00    +0.004 C 
ATOM     19  C   UNL     1      -0.148   5.696  -3.458  0.00  0.00    +0.012 C 
ATOM     20  C   UNL     1      -0.218   5.776  -1.962  0.00  0.00    +0.069 C 
ATOM     21  C   UNL     1       0.970   6.250  -1.180  0.00  0.00    +0.173 C 
ATOM     22  O   UNL     1       0.900   6.331   0.317  0.00  0.00    -0.291 OA
ATOM     23  C   UNL     1       2.230   6.645  -1.894  0.00  0.00    +0.029 C 
ATOM     24  C   UNL     1       4.818   7.352  -4.817  0.00  0.00    +0.004 C 
ATOM     25  C   UNL     1       1.182   6.009  -5.669  0.00  0.00    +0.003 C 
ATOM     26  C   UNL     1      -0.006   5.535  -6.451  0.00  0.00    +0.000 C 
ATOM     27  C   UNL     1       0.064   5.454  -7.947  0.00  0.00    +0.003 C 
ENDROOT
TORSDOF 0
ENDMDL
MODEL 8
REMARK VINA RESULT:     -10.9      2.108      7.839
REMARK  Name = 
REMARK  0 active torsions:
REMARK  status: ('A' for Active; 'I' for Inactive)
REMARK                            x       y       z     vdW  Elec       q    Type
REMARK                         _______ _______ _______ _____ _____    ______ ____
ROOT
ATOM      1  C   UNL     1       0.853   5.644  -8.372  0.00  0.00    +0.003 C 
ATOM      2  C   UNL     1       2.331   5.636  -8.119  0.00  0.00    +0.034 C 
ATOM      3  C   UNL     1       1.824   5.546  -6.709  0.00  0.00    +0.136 C 
ATOM      4  O   UNL     1       1.317   5.457  -5.301  0.00  0.00    -0.456 OA
ATOM      5  C   UNL     1      -0.182   5.451  -5.346  0.00  0.00    +0.317 C 
ATOM      6  O   UNL     1      -1.100   5.373  -4.164  0.00  0.00    -0.250 OA
ATOM      7  C   UNL     1      -0.602   5.538  -6.785  0.00  0.00    +0.113 C 
ATOM      8  C   UNL     1       0.637   5.597  -7.626  0.00  0.00    +0.052 C 
ATOM      9  C   UNL     1       3.010   5.496  -5.793  0.00  0.00    +0.037 C 
ATOM     10  C   UNL     1       4.250   5.555  -6.635  0.00  0.00    +0.004 C 
ATOM     11  C   UNL     1       4.361   5.463  -5.142  0.00  0.00    +0.004 C 
ATOM     12  C   UNL     1       3.830   5.642  -8.072  0.00  0.00    +0.003 C 
ATOM     13  C   UNL     1       4.619   5.725  -9.345  0.00  0.00    +0.001 C 
ATOM     14  C   UNL     1       6.119   5.730  -9.300  0.00  0.00    +0.004 C 
ATOM     15  C   UNL     1       6.908   5.813 -10.572  0.00  0.00    +0.018 C 
ATOM     16  C   UNL     1       6.197   5.891 -11.892  0.00  0.00    -0.042 C 
ATOM     17  C   UNL     1       4.699   5.886 -11.938  0.00  0.00    +0.016 C 
ATOM     18  C   UNL     1       3.199   5.881 -11.983  0.00  0.00    +0.004 C 
ATOM     19  C   UNL     1       3.988   5.964 -13.257  0.00  0.00    +0.012 C 
ATOM     20  C   UNL     1       4.778   6.047 -14.529  0.00  0.00    +0.069 C 
ATOM     21  C   UNL     1       6.276   6.052 -14.483  0.00  0.00    +0.173 C 
ATOM     22  O   UNL     1       7.065   6.135 -15.757  0.00  0.00    -0.291 OA
ATOM     23  C   UNL     1       6.987   5.974 -13.164  0.00  0.00    +0.029 C 
ATOM     24  C   UNL     1       7.617   5.735  -9.254  0.00  0.00    +0.004 C 
ATOM     25  C   UNL     1       3.908   5.803 -10.665  0.00  0.00    +0.003 C 
ATOM     26  C   UNL     1       2.410   5.797 -10.710  0.00  0.00    +0.000 C 
ATOM     27  C   UNL     1       1.620   5.714  -9.438  0.00  0.00    +0.003 C 
ENDROOT
TORSDOF 0
ENDMDL
MODEL 9
REMARK VINA RESULT:     -10.9      1.838      3.809
REMARK  Name = 
REMARK  0 active torsions:
REMARK  status: ('A' for Active; 'I' for Inactive)
REMARK                            x       y       z     vdW  Elec       q    Type
REMARK                         _______ _______ _______ _____ _____    ______ ____
ROOT
ATOM      1  C   UNL     1       4.440   5.502  -9.998  0.00  0.00    +0.003 C 
ATOM      2  C   UNL     1       3.105   5.843  -9.404  0.00  0.00    +0.034 C 
ATOM      3  C   UNL     1       2.773   5.938 -10.864  0.00  0.00    +0.136 C 
ATOM      4  O   UNL     1       2.441   6.032 -12.323  0.00  0.00    -0.456 OA
ATOM      5  C   UNL     1       3.682   5.716 -13.104  0.00  0.00    +0.317 C 
ATOM      6  O   UNL     1       3.804   5.693 -14.598  0.00  0.00    -0.250 OA
ATOM      7  C   UNL     1       4.783   5.426 -12.125  0.00  0.00    +0.113 C 
ATOM      8  C   UNL     1       4.221   5.563 -10.742  0.00  0.00    +0.052 C 
ATOM      9  C   UNL     1       1.326   6.312 -10.986  0.00  0.00    +0.037 C 
ATOM     10  C   UNL     1       0.764   6.449  -9.602  0.00  0.00    +0.004 C 
ATOM     11  C   UNL     1      -0.115   6.683 -10.796  0.00  0.00    +0.004 C 
ATOM     12  C   UNL     1       1.863   6.159  -8.625  0.00  0.00    +0.003 C 
ATOM     13  C   UNL     1       1.895   6.142  -7.126  0.00  0.00    +0.001 C 
ATOM     14  C   UNL     1       0.652   6.458  -6.345  0.00  0.00    +0.004 C 
ATOM     15  C   UNL     1       0.684   6.441  -4.846  0.00  0.00    +0.018 C 
ATOM     16  C   UNL     1       1.957   6.108  -4.126  0.00  0.00    -0.042 C 
ATOM     17  C   UNL     1       3.199   5.792  -4.905  0.00  0.00    +0.016 C 
ATOM     18  C   UNL     1       4.441   5.476  -5.686  0.00  0.00    +0.004 C 
ATOM     19  C   UNL     1       4.472   5.458  -4.185  0.00  0.00    +0.012 C 
ATOM     20  C   UNL     1       4.503   5.442  -2.686  0.00  0.00    +0.069 C 
ATOM     21  C   UNL     1       3.261   5.758  -1.907  0.00  0.00    +0.173 C 
ATOM     22  O   UNL     1       3.293   5.741  -0.406  0.00  0.00    -0.291 OA
ATOM     23  C   UNL     1       1.988   6.091  -2.627  0.00  0.00    +0.029 C 
ATOM     24  C   UNL     1      -0.589   6.774  -5.566  0.00  0.00    +0.004 C 
ATOM     25  C   UNL     1       3.168   5.809  -6.406  0.00  0.00    +0.003 C 
ATOM     26  C   UNL     1       4.409   5.493  -7.185  0.00  0.00    +0.000 C 
ATOM     27  C   UNL     1       4.379   5.510  -8.684  0.00  0.00    +0.003 C 
ENDROOT
TORSDOF 0
ENDMDL
