MODEL 1
REMARK VINA RESULT:      -7.2      0.000      0.000
REMARK  Name = 
REMARK  5 active torsions:
REMARK  status: ('A' for Active; 'I' for Inactive)
REMARK    1  A    between atoms: N_2  and  C_4
REMARK    2  A    between atoms: C_4  and  C_5
REMARK    3  A    between atoms: C_5  and  C_6
REMARK    4  A    between atoms: C_12  and  C_13
REMARK    5  A    between atoms: C_13  and  C_14
REMARK                            x       y       z     vdW  Elec       q    Type
REMARK                         _______ _______ _______ _____ _____    ______ ____
ROOT
ATOM      1  C   UNL     1       3.328   5.182  -7.206  0.00  0.00    -0.000 A 
ATOM      2  C   UNL     1       1.974   5.355  -7.212  0.00  0.00    +0.015 A 
ATOM      3  C   UNL     1       1.574   5.281  -8.540  0.00  0.00    +0.081 A 
ATOM      4  C   UNL     1       0.238   5.432  -8.866  0.00  0.00    +0.019 A 
ATOM      5  C   UNL     1      -0.645   5.320  -7.800  0.00  0.00    -0.003 A 
ATOM      6  C   UNL     1      -0.253   5.785  -6.551  0.00  0.00    -0.020 A 
ATOM      7  N   UNL     1       2.619   4.907  -9.316  0.00  0.00    -0.244 NA
ATOM      8  C   UNL     1       1.092   5.710  -6.204  0.00  0.00    -0.003 A 
ATOM      9  C   UNL     1       3.656   4.702  -8.468  0.00  0.00    +0.095 A 
ENDROOT
BRANCH   1  10
ATOM     10  C   UNL     1       4.354   5.787  -6.345  0.00  0.00    +0.045 C 
BRANCH  10  11
ATOM     11  C   UNL     1       4.537   5.139  -5.022  0.00  0.00    +0.077 C 
BRANCH  11  13
ATOM     12  C   UNL     1       3.567   6.136  -3.515  0.00  0.00    +0.090 C 
ATOM     13  N   UNL     1       4.351   6.166  -3.998  0.00  0.00    -0.270 NA
ATOM     14  C   UNL     1       4.660   7.427  -4.626  0.00  0.00    +0.090 C 
ENDBRANCH  11  13
ENDBRANCH  10  11
ENDBRANCH   1  10
BRANCH   6  15
ATOM     15  C   UNL     1      -1.340   5.940  -5.546  0.00  0.00    +0.052 C 
BRANCH  15  16
ATOM     16  C   UNL     1      -0.618   6.869  -4.397  0.00  0.00    +0.147 C 
ATOM     17  N   UNL     1      -0.914   5.825  -3.260  0.00  0.00    -0.166 NA
ATOM     18  C   UNL     1      -2.275   5.494  -3.408  0.00  0.00    +0.421 C 
ATOM     19  O   UNL     1      -2.854   4.704  -2.601  0.00  0.00    -0.225 OA
ATOM     20  O   UNL     1      -2.897   6.639  -3.846  0.00  0.00    -0.432 OA
ATOM     21  C   UNL     1      -2.005   7.686  -4.077  0.00  0.00    +0.232 C 
ENDBRANCH  15  16
ENDBRANCH   6  15
TORSDOF 5
ENDMDL
MODEL 2
REMARK VINA RESULT:      -7.1      2.102      4.403
REMARK  Name = 
REMARK  5 active torsions:
REMARK  status: ('A' for Active; 'I' for Inactive)
REMARK    1  A    between atoms: N_2  and  C_4
REMARK    2  A    between atoms: C_4  and  C_5
REMARK    3  A    between atoms: C_5  and  C_6
REMARK    4  A    between atoms: C_12  and  C_13
REMARK    5  A    between atoms: C_13  and  C_14
REMARK                            x       y       z     vdW  Elec       q    Type
REMARK                         _______ _______ _______ _____ _____    ______ ____
ROOT
ATOM      1  C   UNL     1       1.575   5.434  -9.612  0.00  0.00    -0.000 A 
ATOM      2  C   UNL     1       1.171   5.179  -8.334  0.00  0.00    +0.015 A 
ATOM      3  C   UNL     1       2.140   4.358  -7.771  0.00  0.00    +0.081 A 
ATOM      4  C   UNL     1       1.998   3.918  -6.468  0.00  0.00    +0.019 A 
ATOM      5  C   UNL     1       1.053   4.602  -5.714  0.00  0.00    -0.003 A 
ATOM      6  C   UNL     1      -0.096   5.071  -6.342  0.00  0.00    -0.020 A 
ATOM      7  N   UNL     1       3.194   4.246  -8.615  0.00  0.00    -0.244 NA
ATOM      8  C   UNL     1      -0.013   5.467  -7.673  0.00  0.00    -0.003 A 
ATOM      9  C   UNL     1       2.903   5.031  -9.679  0.00  0.00    +0.095 A 
ENDROOT
BRANCH   1  10
ATOM     10  C   UNL     1       0.782   5.606 -10.838  0.00  0.00    +0.045 C 
BRANCH  10  11
ATOM     11  C   UNL     1       1.409   6.447 -11.888  0.00  0.00    +0.077 C 
BRANCH  11  13
ATOM     12  C   UNL     1       0.580   7.688 -13.296  0.00  0.00    +0.090 C 
ATOM     13  N   UNL     1       0.331   7.093 -12.637  0.00  0.00    -0.270 NA
ATOM     14  C   UNL     1      -0.606   7.587 -11.658  0.00  0.00    +0.090 C 
ENDBRANCH  11  13
ENDBRANCH  10  11
ENDBRANCH   1  10
BRANCH   6  15
ATOM     15  C   UNL     1      -1.202   5.493  -5.440  0.00  0.00    +0.052 C 
BRANCH  15  16
ATOM     16  C   UNL     1      -0.465   6.622  -4.497  0.00  0.00    +0.147 C 
ATOM     17  N   UNL     1      -0.773   5.827  -3.176  0.00  0.00    -0.166 NA
ATOM     18  C   UNL     1      -2.139   5.492  -3.257  0.00  0.00    +0.421 C 
ATOM     19  O   UNL     1      -2.726   4.885  -2.309  0.00  0.00    -0.225 OA
ATOM     20  O   UNL     1      -2.746   6.535  -3.913  0.00  0.00    -0.432 OA
ATOM     21  C   UNL     1      -1.841   7.504  -4.346  0.00  0.00    +0.232 C 
ENDBRANCH  15  16
ENDBRANCH   6  15
TORSDOF 5
ENDMDL
MODEL 3
REMARK VINA RESULT:      -7.1      5.000      8.199
REMARK  Name = 
REMARK  5 active torsions:
REMARK  status: ('A' for Active; 'I' for Inactive)
REMARK    1  A    between atoms: N_2  and  C_4
REMARK    2  A    between atoms: C_4  and  C_5
REMARK    3  A    between atoms: C_5  and  C_6
REMARK    4  A    between atoms: C_12  and  C_13
REMARK    5  A    between atoms: C_13  and  C_14
REMARK                            x       y       z     vdW  Elec       q    Type
REMARK                         _______ _______ _______ _____ _____    ______ ____
ROOT
ATOM      1  C   UNL     1       1.232   5.279  -8.430  0.00  0.00    -0.000 A 
ATOM      2  C   UNL     1       2.588   5.430  -8.421  0.00  0.00    +0.015 A 
ATOM      3  C   UNL     1       2.964   5.535  -7.088  0.00  0.00    +0.081 A 
ATOM      4  C   UNL     1       4.296   5.710  -6.760  0.00  0.00    +0.019 A 
ATOM      5  C   UNL     1       5.196   5.439  -7.782  0.00  0.00    -0.003 A 
ATOM      6  C   UNL     1       4.833   5.732  -9.092  0.00  0.00    -0.020 A 
ATOM      7  N   UNL     1       1.899   5.288  -6.289  0.00  0.00    -0.244 NA
ATOM      8  C   UNL     1       3.494   5.629  -9.451  0.00  0.00    -0.003 A 
ATOM      9  C   UNL     1       0.873   4.984  -7.120  0.00  0.00    +0.095 A 
ENDROOT
BRANCH   1  10
ATOM     10  C   UNL     1       0.231   5.774  -9.386  0.00  0.00    +0.045 C 
BRANCH  10  11
ATOM     11  C   UNL     1       0.059   4.950 -10.609  0.00  0.00    +0.077 C 
BRANCH  11  13
ATOM     12  C   UNL     1       0.989   5.809 -12.223  0.00  0.00    +0.090 C 
ATOM     13  N   UNL     1       0.191   5.839 -11.762  0.00  0.00    -0.270 NA
ATOM     14  C   UNL     1      -0.234   7.145 -11.321  0.00  0.00    +0.090 C 
ENDBRANCH  11  13
ENDBRANCH  10  11
ENDBRANCH   1  10
BRANCH   6  15
ATOM     15  C   UNL     1       5.941   5.730 -10.087  0.00  0.00    +0.052 C 
BRANCH  15  16
ATOM     16  C   UNL     1       5.326   6.671 -11.287  0.00  0.00    +0.147 C 
ATOM     17  N   UNL     1       5.783   5.668 -12.408  0.00  0.00    -0.166 NA
ATOM     18  C   UNL     1       7.128   5.371 -12.113  0.00  0.00    +0.421 C 
ATOM     19  O   UNL     1       7.820   4.621 -12.867  0.00  0.00    -0.225 OA
ATOM     20  O   UNL     1       7.659   6.520 -11.578  0.00  0.00    -0.432 OA
ATOM     21  C   UNL     1       6.715   7.535 -11.425  0.00  0.00    +0.232 C 
ENDBRANCH  15  16
ENDBRANCH   6  15
TORSDOF 5
ENDMDL
MODEL 4
REMARK VINA RESULT:      -7.0      4.921      7.127
REMARK  Name = 
REMARK  5 active torsions:
REMARK  status: ('A' for Active; 'I' for Inactive)
REMARK    1  A    between atoms: N_2  and  C_4
REMARK    2  A    between atoms: C_4  and  C_5
REMARK    3  A    between atoms: C_5  and  C_6
REMARK    4  A    between atoms: C_12  and  C_13
REMARK    5  A    between atoms: C_13  and  C_14
REMARK                            x       y       z     vdW  Elec       q    Type
REMARK                         _______ _______ _______ _____ _____    ______ ____
ROOT
ATOM      1  C   UNL     1       3.551   5.507  -5.515  0.00  0.00    -0.000 A 
ATOM      2  C   UNL     1       3.851   5.261  -6.823  0.00  0.00    +0.015 A 
ATOM      3  C   UNL     1       2.857   4.418  -7.304  0.00  0.00    +0.081 A 
ATOM      4  C   UNL     1       2.898   3.981  -8.615  0.00  0.00    +0.019 A 
ATOM      5  C   UNL     1       3.760   4.686  -9.445  0.00  0.00    -0.003 A 
ATOM      6  C   UNL     1       4.946   5.182  -8.915  0.00  0.00    -0.020 A 
ATOM      7  N   UNL     1       1.880   4.282  -6.374  0.00  0.00    -0.244 NA
ATOM      8  C   UNL     1       4.967   5.576  -7.582  0.00  0.00    -0.003 A 
ATOM      9  C   UNL     1       2.242   5.074  -5.337  0.00  0.00    +0.095 A 
ENDROOT
BRANCH   1  10
ATOM     10  C   UNL     1       4.441   5.697  -4.361  0.00  0.00    +0.045 C 
BRANCH  10  11
ATOM     11  C   UNL     1       3.979   5.078  -3.094  0.00  0.00    +0.077 C 
BRANCH  11  13
ATOM     12  C   UNL     1       3.093   6.372  -1.772  0.00  0.00    +0.090 C 
ATOM     13  N   UNL     1       3.927   6.131  -2.081  0.00  0.00    -0.270 NA
ATOM     14  C   UNL     1       4.755   7.207  -2.569  0.00  0.00    +0.090 C 
ENDBRANCH  11  13
ENDBRANCH  10  11
ENDBRANCH   1  10
BRANCH   6  15
ATOM     15  C   UNL     1       5.962   5.629  -9.908  0.00  0.00    +0.052 C 
BRANCH  15  16
ATOM     16  C   UNL     1       5.025   6.309 -11.076  0.00  0.00    +0.147 C 
ATOM     17  N   UNL     1       5.577   5.342 -12.185  0.00  0.00    -0.166 NA
ATOM     18  C   UNL     1       6.978   5.373 -12.040  0.00  0.00    +0.421 C 
ATOM     19  O   UNL     1       7.738   4.733 -12.829  0.00  0.00    -0.225 OA
ATOM     20  O   UNL     1       7.287   6.650 -11.640  0.00  0.00    -0.432 OA
ATOM     21  C   UNL     1       6.158   7.442 -11.431  0.00  0.00    +0.232 C 
ENDBRANCH  15  16
ENDBRANCH   6  15
TORSDOF 5
ENDMDL
MODEL 5
REMARK VINA RESULT:      -6.8      4.406      7.275
REMARK  Name = 
REMARK  5 active torsions:
REMARK  status: ('A' for Active; 'I' for Inactive)
REMARK    1  A    between atoms: N_2  and  C_4
REMARK    2  A    between atoms: C_4  and  C_5
REMARK    3  A    between atoms: C_5  and  C_6
REMARK    4  A    between atoms: C_12  and  C_13
REMARK    5  A    between atoms: C_13  and  C_14
REMARK                            x       y       z     vdW  Elec       q    Type
REMARK                         _______ _______ _______ _____ _____    ______ ____
ROOT
ATOM      1  C   UNL     1       5.411   5.464 -13.069  0.00  0.00    -0.000 A 
ATOM      2  C   UNL     1       5.739   5.485 -11.744  0.00  0.00    +0.015 A 
ATOM      3  C   UNL     1       7.125   5.411 -11.681  0.00  0.00    +0.081 A 
ATOM      4  C   UNL     1       7.759   5.402 -10.452  0.00  0.00    +0.019 A 
ATOM      5  C   UNL     1       6.971   5.798  -9.379  0.00  0.00    -0.003 A 
ATOM      6  C   UNL     1       5.618   5.478  -9.385  0.00  0.00    -0.020 A 
ATOM      7  N   UNL     1       7.649   5.512 -12.926  0.00  0.00    -0.244 NA
ATOM      8  C   UNL     1       4.953   5.415 -10.604  0.00  0.00    -0.003 A 
ATOM      9  C   UNL     1       6.596   5.695 -13.758  0.00  0.00    +0.095 A 
ENDROOT
BRANCH   1  10
ATOM     10  C   UNL     1       4.256   4.859 -13.747  0.00  0.00    +0.045 C 
BRANCH  10  11
ATOM     11  C   UNL     1       3.120   5.778 -14.010  0.00  0.00    +0.077 C 
BRANCH  11  13
ATOM     12  C   UNL     1       1.219   5.013 -13.923  0.00  0.00    +0.090 C 
ATOM     13  N   UNL     1       1.934   5.207 -13.374  0.00  0.00    -0.270 NA
ATOM     14  C   UNL     1       1.646   6.035 -12.229  0.00  0.00    +0.090 C 
ENDBRANCH  11  13
ENDBRANCH  10  11
ENDBRANCH   1  10
BRANCH   6  15
ATOM     15  C   UNL     1       4.909   5.632  -8.084  0.00  0.00    +0.052 C 
BRANCH  15  16
ATOM     16  C   UNL     1       3.339   5.746  -8.559  0.00  0.00    +0.147 C 
ATOM     17  N   UNL     1       3.075   6.996  -7.645  0.00  0.00    -0.166 NA
ATOM     18  C   UNL     1       3.599   6.650  -6.384  0.00  0.00    +0.421 C 
ATOM     19  O   UNL     1       3.497   7.431  -5.389  0.00  0.00    -0.225 OA
ATOM     20  O   UNL     1       3.389   5.299  -6.247  0.00  0.00    -0.432 OA
ATOM     21  C   UNL     1       2.830   4.718  -7.385  0.00  0.00    +0.232 C 
ENDBRANCH  15  16
ENDBRANCH   6  15
TORSDOF 5
ENDMDL
MODEL 6
REMARK VINA RESULT:      -6.7      2.926      5.200
REMARK  Name = 
REMARK  5 active torsions:
REMARK  status: ('A' for Active; 'I' for Inactive)
REMARK    1  A    between atoms: N_2  and  C_4
REMARK    2  A    between atoms: C_4  and  C_5
REMARK    3  A    between atoms: C_5  and  C_6
REMARK    4  A    between atoms: C_12  and  C_13
REMARK    5  A    between atoms: C_13  and  C_14
REMARK                            x       y       z     vdW  Elec       q    Type
REMARK                         _______ _______ _______ _____ _____    ______ ____
ROOT
ATOM      1  C   UNL     1       0.602   6.029  -3.654  0.00  0.00    -0.000 A 
ATOM      2  C   UNL     1      -0.093   5.825  -4.810  0.00  0.00    +0.015 A 
ATOM      3  C   UNL     1      -1.420   5.637  -4.444  0.00  0.00    +0.081 A 
ATOM      4  C   UNL     1      -2.374   5.394  -5.415  0.00  0.00    +0.019 A 
ATOM      5  C   UNL     1      -1.981   5.683  -6.715  0.00  0.00    -0.003 A 
ATOM      6  C   UNL     1      -0.655   5.472  -7.078  0.00  0.00    -0.020 A 
ATOM      7  N   UNL     1      -1.571   5.884  -3.121  0.00  0.00    -0.244 NA
ATOM      8  C   UNL     1       0.334   5.645  -6.117  0.00  0.00    -0.003 A 
ATOM      9  C   UNL     1      -0.353   6.270  -2.673  0.00  0.00    +0.095 A 
ENDROOT
BRANCH   1  10
ATOM     10  C   UNL     1       1.967   5.623  -3.287  0.00  0.00    +0.045 C 
BRANCH  10  11
ATOM     11  C   UNL     1       3.007   6.668  -3.455  0.00  0.00    +0.077 C 
BRANCH  11  13
ATOM     12  C   UNL     1       3.868   6.625  -5.316  0.00  0.00    +0.090 C 
ATOM     13  N   UNL     1       3.927   6.211  -4.495  0.00  0.00    -0.270 NA
ATOM     14  C   UNL     1       3.848   4.771  -4.506  0.00  0.00    +0.090 C 
ENDBRANCH  11  13
ENDBRANCH  10  11
ENDBRANCH   1  10
BRANCH   6  15
ATOM     15  C   UNL     1      -0.374   5.483  -8.540  0.00  0.00    +0.052 C 
BRANCH  15  16
ATOM     16  C   UNL     1       1.251   5.731  -8.576  0.00  0.00    +0.147 C 
ATOM     17  N   UNL     1       1.112   6.998  -9.495  0.00  0.00    -0.166 NA
ATOM     18  C   UNL     1       0.250   6.606 -10.538  0.00  0.00    +0.421 C 
ATOM     19  O   UNL     1      -0.029   7.392 -11.494  0.00  0.00    -0.225 OA
ATOM     20  O   UNL     1       0.516   5.278 -10.768  0.00  0.00    -0.432 OA
ATOM     21  C   UNL     1       1.449   4.749  -9.876  0.00  0.00    +0.232 C 
ENDBRANCH  15  16
ENDBRANCH   6  15
TORSDOF 5
ENDMDL
MODEL 7
REMARK VINA RESULT:      -6.7      1.900      4.277
REMARK  Name = 
REMARK  5 active torsions:
REMARK  status: ('A' for Active; 'I' for Inactive)
REMARK    1  A    between atoms: N_2  and  C_4
REMARK    2  A    between atoms: C_4  and  C_5
REMARK    3  A    between atoms: C_5  and  C_6
REMARK    4  A    between atoms: C_12  and  C_13
REMARK    5  A    between atoms: C_13  and  C_14
REMARK                            x       y       z     vdW  Elec       q    Type
REMARK                         _______ _______ _______ _____ _____    ______ ____
ROOT
ATOM      1  C   UNL     1       1.220   6.642  -7.756  0.00  0.00    -0.000 A 
ATOM      2  C   UNL     1       1.128   6.439  -6.410  0.00  0.00    +0.015 A 
ATOM      3  C   UNL     1       2.346   6.829  -5.868  0.00  0.00    +0.081 A 
ATOM      4  C   UNL     1       2.559   6.726  -4.506  0.00  0.00    +0.019 A 
ATOM      5  C   UNL     1       1.413   6.544  -3.742  0.00  0.00    -0.003 A 
ATOM      6  C   UNL     1       0.367   5.794  -4.268  0.00  0.00    -0.020 A 
ATOM      7  N   UNL     1       3.108   7.413  -6.824  0.00  0.00    -0.244 NA
ATOM      8  C   UNL     1       0.154   5.819  -5.642  0.00  0.00    -0.003 A 
ATOM      9  C   UNL     1       2.350   7.430  -7.945  0.00  0.00    +0.095 A 
ENDROOT
BRANCH   1  10
ATOM     10  C   UNL     1       0.649   5.872  -8.870  0.00  0.00    +0.045 C 
BRANCH  10  11
ATOM     11  C   UNL     1       1.603   4.991  -9.589  0.00  0.00    +0.077 C 
BRANCH  11  13
ATOM     12  C   UNL     1       1.691   5.919 -11.416  0.00  0.00    +0.090 C 
ATOM     13  N   UNL     1       1.360   5.154 -11.022  0.00  0.00    -0.270 NA
ATOM     14  C   UNL     1      -0.042   4.892 -11.230  0.00  0.00    +0.090 C 
ENDBRANCH  11  13
ENDBRANCH  10  11
ENDBRANCH   1  10
BRANCH   6  15
ATOM     15  C   UNL     1      -0.675   5.364  -3.295  0.00  0.00    +0.052 C 
BRANCH  15  16
ATOM     16  C   UNL     1      -1.899   6.414  -3.615  0.00  0.00    +0.147 C 
ATOM     17  N   UNL     1      -1.842   7.035  -2.172  0.00  0.00    -0.166 NA
ATOM     18  C   UNL     1      -1.824   5.932  -1.295  0.00  0.00    +0.421 C 
ATOM     19  O   UNL     1      -1.834   6.090  -0.036  0.00  0.00    -0.225 OA
ATOM     20  O   UNL     1      -2.592   4.962  -1.894  0.00  0.00    -0.432 OA
ATOM     21  C   UNL     1      -3.047   5.334  -3.159  0.00  0.00    +0.232 C 
ENDBRANCH  15  16
ENDBRANCH   6  15
TORSDOF 5
ENDMDL
MODEL 8
REMARK VINA RESULT:      -6.4      3.142      5.695
REMARK  Name = 
REMARK  5 active torsions:
REMARK  status: ('A' for Active; 'I' for Inactive)
REMARK    1  A    between atoms: N_2  and  C_4
REMARK    2  A    between atoms: C_4  and  C_5
REMARK    3  A    between atoms: C_5  and  C_6
REMARK    4  A    between atoms: C_12  and  C_13
REMARK    5  A    between atoms: C_13  and  C_14
REMARK                            x       y       z     vdW  Elec       q    Type
REMARK                         _______ _______ _______ _____ _____    ______ ____
ROOT
ATOM      1  C   UNL     1      -1.242   6.118  -2.521  0.00  0.00    -0.000 A 
ATOM      2  C   UNL     1      -1.028   5.819  -3.835  0.00  0.00    +0.015 A 
ATOM      3  C   UNL     1      -2.261   5.915  -4.466  0.00  0.00    +0.081 A 
ATOM      4  C   UNL     1      -2.365   5.653  -5.820  0.00  0.00    +0.019 A 
ATOM      5  C   UNL     1      -1.159   5.631  -6.510  0.00  0.00    -0.003 A 
ATOM      6  C   UNL     1      -0.026   5.148  -5.867  0.00  0.00    -0.020 A 
ATOM      7  N   UNL     1      -3.179   6.422  -3.608  0.00  0.00    -0.244 NA
ATOM      8  C   UNL     1       0.092   5.335  -4.494  0.00  0.00    -0.003 A 
ATOM      9  C   UNL     1      -2.510   6.685  -2.461  0.00  0.00    +0.095 A 
ENDROOT
BRANCH   1  10
ATOM     10  C   UNL     1      -0.606   5.575  -1.312  0.00  0.00    +0.045 C 
BRANCH  10  11
ATOM     11  C   UNL     1       0.513   6.382  -0.764  0.00  0.00    +0.077 C 
BRANCH  11  13
ATOM     12  C   UNL     1       1.858   4.863  -1.064  0.00  0.00    +0.090 C 
ATOM     13  N   UNL     1       1.761   5.767  -1.214  0.00  0.00    -0.270 NA
ATOM     14  C   UNL     1       2.827   6.608  -0.728  0.00  0.00    +0.090 C 
ENDBRANCH  11  13
ENDBRANCH  10  11
ENDBRANCH   1  10
BRANCH   6  15
ATOM     15  C   UNL     1       1.138   4.845  -6.744  0.00  0.00    +0.052 C 
BRANCH  15  16
ATOM     16  C   UNL     1       1.022   6.019  -7.889  0.00  0.00    +0.147 C 
ATOM     17  N   UNL     1       1.743   5.138  -8.972  0.00  0.00    -0.166 NA
ATOM     18  C   UNL     1       2.892   4.632  -8.332  0.00  0.00    +0.421 C 
ATOM     19  O   UNL     1       3.733   3.916  -8.956  0.00  0.00    -0.225 OA
ATOM     20  O   UNL     1       3.303   5.614  -7.464  0.00  0.00    -0.432 OA
ATOM     21  C   UNL     1       2.440   6.709  -7.434  0.00  0.00    +0.232 C 
ENDBRANCH  15  16
ENDBRANCH   6  15
TORSDOF 5
ENDMDL
MODEL 9
REMARK VINA RESULT:      -6.4      3.318      4.635
REMARK  Name = 
REMARK  5 active torsions:
REMARK  status: ('A' for Active; 'I' for Inactive)
REMARK    1  A    between atoms: N_2  and  C_4
REMARK    2  A    between atoms: C_4  and  C_5
REMARK    3  A    between atoms: C_5  and  C_6
REMARK    4  A    between atoms: C_12  and  C_13
REMARK    5  A    between atoms: C_13  and  C_14
REMARK                            x       y       z     vdW  Elec       q    Type
REMARK                         _______ _______ _______ _____ _____    ______ ____
ROOT
ATOM      1  C   UNL     1       3.849   6.306 -10.961  0.00  0.00    -0.000 A 
ATOM      2  C   UNL     1       2.776   6.321 -10.119  0.00  0.00    +0.015 A 
ATOM      3  C   UNL     1       1.644   6.294 -10.924  0.00  0.00    +0.081 A 
ATOM      4  C   UNL     1       0.387   6.313 -10.347  0.00  0.00    +0.019 A 
ATOM      5  C   UNL     1       0.358   6.026  -8.988  0.00  0.00    -0.003 A 
ATOM      6  C   UNL     1       1.417   6.446  -8.190  0.00  0.00    -0.020 A 
ATOM      7  N   UNL     1       2.002   6.097 -12.216  0.00  0.00    -0.244 NA
ATOM      8  C   UNL     1       2.690   6.502  -8.748  0.00  0.00    -0.003 A 
ATOM      9  C   UNL     1       3.349   5.956 -12.210  0.00  0.00    +0.095 A 
ENDROOT
BRANCH   1  10
ATOM     10  C   UNL     1       5.158   6.964 -10.837  0.00  0.00    +0.045 C 
BRANCH  10  11
ATOM     11  C   UNL     1       6.191   6.512 -11.802  0.00  0.00    +0.077 C 
BRANCH  11  13
ATOM     12  C   UNL     1       7.641   6.902 -10.405  0.00  0.00    +0.090 C 
ATOM     13  N   UNL     1       7.425   6.283 -11.052  0.00  0.00    -0.270 NA
ATOM     14  C   UNL     1       8.449   6.004 -12.029  0.00  0.00    +0.090 C 
ENDBRANCH  11  13
ENDBRANCH  10  11
ENDBRANCH   1  10
BRANCH   6  15
ATOM     15  C   UNL     1       1.178   6.404  -6.721  0.00  0.00    +0.052 C 
BRANCH  15  16
ATOM     16  C   UNL     1       0.211   5.083  -6.567  0.00  0.00    +0.147 C 
ATOM     17  N   UNL     1      -0.248   5.496  -5.121  0.00  0.00    -0.166 NA
ATOM     18  C   UNL     1       0.940   5.813  -4.433  0.00  0.00    +0.421 C 
ATOM     19  O   UNL     1       0.925   6.137  -3.206  0.00  0.00    -0.225 OA
ATOM     20  O   UNL     1       1.902   4.967  -4.930  0.00  0.00    -0.432 OA
ATOM     21  C   UNL     1       1.434   4.165  -5.970  0.00  0.00    +0.232 C 
ENDBRANCH  15  16
ENDBRANCH   6  15
TORSDOF 5
ENDMDL
