MODEL 1
REMARK VINA RESULT:      -7.5      0.000      0.000
REMARK  Name = 
REMARK  7 active torsions:
REMARK  status: ('A' for Active; 'I' for Inactive)
REMARK    1  A    between atoms: N_2  and  C_3
REMARK    2  A    between atoms: C_3  and  C_4
REMARK    3  A    between atoms: C_4  and  C_5
REMARK    4  A    between atoms: C_5  and  O_6
REMARK    5  A    between atoms: C_5  and  C_17
REMARK    6  A    between atoms: O_6  and  C_7
REMARK    7  A    between atoms: C_10  and  C_11
REMARK                            x       y       z     vdW  Elec       q    Type
REMARK                         _______ _______ _______ _____ _____    ______ ____
ROOT
ATOM      1  C   UNL     1       0.922   6.455  -8.806  0.00  0.00    +0.190 C 
ENDROOT
BRANCH   1   2
ATOM      2  C   UNL     1       0.302   6.097 -10.289  0.00  0.00    +0.017 A 
ATOM      3  C   UNL     1       0.450   4.825 -10.721  0.00  0.00    -0.001 A 
ATOM      4  C   UNL     1       0.265   4.609 -12.085  0.00  0.00    -0.000 A 
ATOM      5  C   UNL     1       0.673   5.661 -12.898  0.00  0.00    -0.000 A 
ATOM      6  C   UNL     1       0.257   6.924 -12.488  0.00  0.00    -0.000 A 
ATOM      7  C   UNL     1       0.180   7.180 -11.121  0.00  0.00    -0.001 A 
ENDBRANCH   1   2
BRANCH   1   8
ATOM      8  C   UNL     1      -0.117   5.364  -8.052  0.00  0.00    +0.067 C 
BRANCH   8   9
ATOM      9  C   UNL     1       0.192   5.655  -6.587  0.00  0.00    +0.093 C 
BRANCH   9  11
ATOM     10  C   UNL     1       1.296   4.418  -5.699  0.00  0.00    +0.107 C 
ATOM     11  N   UNL     1       0.720   4.493  -5.915  0.00  0.00    -0.216 NA
ENDBRANCH   9  11
ENDBRANCH   8   9
ENDBRANCH   1   8
BRANCH   1  12
ATOM     12  O   UNL     1       2.070   5.386  -8.931  0.00  0.00    -0.475 OA
BRANCH  12  13
ATOM     13  C   UNL     1       3.345   5.915  -8.893  0.00  0.00    +0.139 A 
ATOM     14  C   UNL     1       3.811   6.476 -10.078  0.00  0.00    +0.037 A 
ATOM     15  C   UNL     1       5.075   6.238 -10.578  0.00  0.00    +0.007 A 
ATOM     16  C   UNL     1       6.026   5.717  -9.747  0.00  0.00    +0.072 A 
ATOM     17  C   UNL     1       5.649   5.243  -8.517  0.00  0.00    +0.007 A 
ATOM     18  C   UNL     1       4.313   5.171  -8.226  0.00  0.00    +0.037 A 
BRANCH  16  19
ATOM     19  C   UNL     1       7.464   5.911  -9.998  0.00  0.00    +0.419 C 
ATOM     20  F   UNL     1       7.689   5.647 -11.346  0.00  0.00    -0.166 F 
ATOM     21  F   UNL     1       7.864   7.193  -9.727  0.00  0.00    -0.166 F 
ATOM     22  F   UNL     1       8.196   5.015  -9.227  0.00  0.00    -0.166 F 
ENDBRANCH  16  19
ENDBRANCH  12  13
ENDBRANCH   1  12
TORSDOF 7
ENDMDL
MODEL 2
REMARK VINA RESULT:      -7.5      1.793      3.978
REMARK  Name = 
REMARK  7 active torsions:
REMARK  status: ('A' for Active; 'I' for Inactive)
REMARK    1  A    between atoms: N_2  and  C_3
REMARK    2  A    between atoms: C_3  and  C_4
REMARK    3  A    between atoms: C_4  and  C_5
REMARK    4  A    between atoms: C_5  and  O_6
REMARK    5  A    between atoms: C_5  and  C_17
REMARK    6  A    between atoms: O_6  and  C_7
REMARK    7  A    between atoms: C_10  and  C_11
REMARK                            x       y       z     vdW  Elec       q    Type
REMARK                         _______ _______ _______ _____ _____    ______ ____
ROOT
ATOM      1  C   UNL     1       1.124   4.987  -7.759  0.00  0.00    +0.190 C 
ENDROOT
BRANCH   1   2
ATOM      2  C   UNL     1      -0.082   5.134  -6.648  0.00  0.00    +0.017 A 
ATOM      3  C   UNL     1      -1.339   5.271  -7.126  0.00  0.00    -0.001 A 
ATOM      4  C   UNL     1      -2.292   5.753  -6.232  0.00  0.00    -0.000 A 
ATOM      5  C   UNL     1      -1.806   6.671  -5.307  0.00  0.00    -0.000 A 
ATOM      6  C   UNL     1      -0.614   6.313  -4.686  0.00  0.00    -0.000 A 
ATOM      7  C   UNL     1       0.332   5.613  -5.432  0.00  0.00    -0.001 A 
ENDBRANCH   1   2
BRANCH   1   8
ATOM      8  C   UNL     1       0.095   5.445  -9.012  0.00  0.00    +0.067 C 
BRANCH   8   9
ATOM      9  C   UNL     1       0.744   4.717 -10.184  0.00  0.00    +0.093 C 
BRANCH   9  11
ATOM     10  C   UNL     1       0.569   5.958 -11.586  0.00  0.00    +0.107 C 
ATOM     11  N   UNL     1       0.987   5.607 -11.293  0.00  0.00    -0.216 NA
ENDBRANCH   9  11
ENDBRANCH   8   9
ENDBRANCH   1   8
BRANCH   1  12
ATOM     12  O   UNL     1       1.626   6.462  -7.537  0.00  0.00    -0.475 OA
BRANCH  12  13
ATOM     13  C   UNL     1       2.963   6.655  -7.825  0.00  0.00    +0.139 A 
ATOM     14  C   UNL     1       3.245   7.269  -9.041  0.00  0.00    +0.037 A 
ATOM     15  C   UNL     1       4.222   6.816  -9.905  0.00  0.00    +0.007 A 
ATOM     16  C   UNL     1       5.172   5.956  -9.433  0.00  0.00    +0.072 A 
ATOM     17  C   UNL     1       5.008   5.398  -8.192  0.00  0.00    +0.007 A 
ATOM     18  C   UNL     1       3.826   5.603  -7.533  0.00  0.00    +0.037 A 
BRANCH  16  19
ATOM     19  C   UNL     1       6.494   5.835 -10.072  0.00  0.00    +0.419 C 
ATOM     20  F   UNL     1       6.946   7.124 -10.336  0.00  0.00    -0.166 F 
ATOM     21  F   UNL     1       7.400   5.207  -9.260  0.00  0.00    -0.166 F 
ATOM     22  F   UNL     1       6.370   5.138 -11.269  0.00  0.00    -0.166 F 
ENDBRANCH  16  19
ENDBRANCH  12  13
ENDBRANCH   1  12
TORSDOF 7
ENDMDL
MODEL 3
REMARK VINA RESULT:      -7.4      4.157      6.378
REMARK  Name = 
REMARK  7 active torsions:
REMARK  status: ('A' for Active; 'I' for Inactive)
REMARK    1  A    between atoms: N_2  and  C_3
REMARK    2  A    between atoms: C_3  and  C_4
REMARK    3  A    between atoms: C_4  and  C_5
REMARK    4  A    between atoms: C_5  and  O_6
REMARK    5  A    between atoms: C_5  and  C_17
REMARK    6  A    between atoms: O_6  and  C_7
REMARK    7  A    between atoms: C_10  and  C_11
REMARK                            x       y       z     vdW  Elec       q    Type
REMARK                         _______ _______ _______ _____ _____    ______ ____
ROOT
ATOM      1  C   UNL     1       3.645   6.624  -9.379  0.00  0.00    +0.190 C 
ENDROOT
BRANCH   1   2
ATOM      2  C   UNL     1       5.135   6.376 -10.034  0.00  0.00    +0.017 A 
ATOM      3  C   UNL     1       6.020   5.676  -9.289  0.00  0.00    -0.001 A 
ATOM      4  C   UNL     1       7.358   5.776  -9.662  0.00  0.00    -0.000 A 
ATOM      5  C   UNL     1       7.725   7.015 -10.178  0.00  0.00    -0.000 A 
ATOM      6  C   UNL     1       6.856   7.542 -11.129  0.00  0.00    -0.000 A 
ATOM      7  C   UNL     1       5.492   7.302 -10.979  0.00  0.00    -0.001 A 
ENDBRANCH   1   2
BRANCH   1   8
ATOM      8  C   UNL     1       2.954   5.460 -10.383  0.00  0.00    +0.067 C 
BRANCH   8   9
ATOM      9  C   UNL     1       1.636   6.143 -10.731  0.00  0.00    +0.093 C 
BRANCH   9  11
ATOM     10  C   UNL     1       0.229   5.056 -10.116  0.00  0.00    +0.107 C 
ATOM     11  N   UNL     1       0.534   5.581  -9.989  0.00  0.00    -0.216 NA
ENDBRANCH   9  11
ENDBRANCH   8   9
ENDBRANCH   1   8
BRANCH   1  12
ATOM     12  O   UNL     1       3.885   5.585  -8.221  0.00  0.00    -0.475 OA
BRANCH  12  13
ATOM     13  C   UNL     1       3.029   5.726  -7.146  0.00  0.00    +0.139 A 
ATOM     14  C   UNL     1       2.300   4.594  -6.792  0.00  0.00    +0.037 A 
ATOM     15  C   UNL     1       0.950   4.628  -6.506  0.00  0.00    +0.007 A 
ATOM     16  C   UNL     1       0.364   5.830  -6.229  0.00  0.00    +0.072 A 
ATOM     17  C   UNL     1       1.070   6.983  -6.455  0.00  0.00    +0.007 A 
ATOM     18  C   UNL     1       2.278   6.896  -7.091  0.00  0.00    +0.037 A 
BRANCH  16  19
ATOM     19  C   UNL     1      -0.871   5.924  -5.431  0.00  0.00    +0.419 C 
ATOM     20  F   UNL     1      -1.121   7.276  -5.215  0.00  0.00    -0.166 F 
ATOM     21  F   UNL     1      -1.944   5.375  -6.081  0.00  0.00    -0.166 F 
ATOM     22  F   UNL     1      -0.685   5.290  -4.208  0.00  0.00    -0.166 F 
ENDBRANCH  16  19
ENDBRANCH  12  13
ENDBRANCH   1  12
TORSDOF 7
ENDMDL
MODEL 4
REMARK VINA RESULT:      -7.4      2.331      4.094
REMARK  Name = 
REMARK  7 active torsions:
REMARK  status: ('A' for Active; 'I' for Inactive)
REMARK    1  A    between atoms: N_2  and  C_3
REMARK    2  A    between atoms: C_3  and  C_4
REMARK    3  A    between atoms: C_4  and  C_5
REMARK    4  A    between atoms: C_5  and  O_6
REMARK    5  A    between atoms: C_5  and  C_17
REMARK    6  A    between atoms: O_6  and  C_7
REMARK    7  A    between atoms: C_10  and  C_11
REMARK                            x       y       z     vdW  Elec       q    Type
REMARK                         _______ _______ _______ _____ _____    ______ ____
ROOT
ATOM      1  C   UNL     1       1.372   6.279  -6.447  0.00  0.00    +0.190 C 
ENDROOT
BRANCH   1   2
ATOM      2  C   UNL     1      -0.143   6.070  -5.836  0.00  0.00    +0.017 A 
ATOM      3  C   UNL     1      -1.050   5.476  -6.643  0.00  0.00    -0.001 A 
ATOM      4  C   UNL     1      -2.388   5.625  -6.286  0.00  0.00    -0.000 A 
ATOM      5  C   UNL     1      -2.696   6.843  -5.689  0.00  0.00    -0.000 A 
ATOM      6  C   UNL     1      -1.819   7.251  -4.688  0.00  0.00    -0.000 A 
ATOM      7  C   UNL     1      -0.468   6.946  -4.833  0.00  0.00    -0.001 A 
ENDBRANCH   1   2
BRANCH   1   8
ATOM      8  C   UNL     1       2.003   5.101  -5.421  0.00  0.00    +0.067 C 
BRANCH   8   9
ATOM      9  C   UNL     1       3.431   5.612  -5.259  0.00  0.00    +0.093 C 
BRANCH   9  11
ATOM     10  C   UNL     1       4.744   4.822  -4.168  0.00  0.00    +0.107 C 
ATOM     11  N   UNL     1       4.243   4.687  -4.507  0.00  0.00    -0.216 NA
ENDBRANCH   9  11
ENDBRANCH   8   9
ENDBRANCH   1   8
BRANCH   1  12
ATOM     12  O   UNL     1       1.140   5.244  -7.610  0.00  0.00    -0.475 OA
BRANCH  12  13
ATOM     13  C   UNL     1       2.035   5.355  -8.656  0.00  0.00    +0.139 A 
ATOM     14  C   UNL     1       2.949   4.316  -8.793  0.00  0.00    +0.037 A 
ATOM     15  C   UNL     1       4.295   4.522  -9.023  0.00  0.00    +0.007 A 
ATOM     16  C   UNL     1       4.708   5.747  -9.464  0.00  0.00    +0.072 A 
ATOM     17  C   UNL     1       3.821   6.792  -9.456  0.00  0.00    +0.007 A 
ATOM     18  C   UNL     1       2.600   6.609  -8.866  0.00  0.00    +0.037 A 
BRANCH  16  19
ATOM     19  C   UNL     1       5.965   5.917 -10.214  0.00  0.00    +0.419 C 
ATOM     20  F   UNL     1       7.000   5.493  -9.387  0.00  0.00    -0.166 F 
ATOM     21  F   UNL     1       5.982   5.169 -11.361  0.00  0.00    -0.166 F 
ATOM     22  F   UNL     1       6.145   7.260 -10.522  0.00  0.00    -0.166 F 
ENDBRANCH  16  19
ENDBRANCH  12  13
ENDBRANCH   1  12
TORSDOF 7
ENDMDL
MODEL 5
REMARK VINA RESULT:      -7.4      5.051      7.708
REMARK  Name = 
REMARK  7 active torsions:
REMARK  status: ('A' for Active; 'I' for Inactive)
REMARK    1  A    between atoms: N_2  and  C_3
REMARK    2  A    between atoms: C_3  and  C_4
REMARK    3  A    between atoms: C_4  and  C_5
REMARK    4  A    between atoms: C_5  and  O_6
REMARK    5  A    between atoms: C_5  and  C_17
REMARK    6  A    between atoms: O_6  and  C_7
REMARK    7  A    between atoms: C_10  and  C_11
REMARK                            x       y       z     vdW  Elec       q    Type
REMARK                         _______ _______ _______ _____ _____    ______ ____
ROOT
ATOM      1  C   UNL     1       3.338   5.965  -6.993  0.00  0.00    +0.190 C 
ENDROOT
BRANCH   1   2
ATOM      2  C   UNL     1       4.186   6.185  -5.599  0.00  0.00    +0.017 A 
ATOM      3  C   UNL     1       4.630   5.073  -4.973  0.00  0.00    -0.001 A 
ATOM      4  C   UNL     1       5.016   5.223  -3.643  0.00  0.00    -0.000 A 
ATOM      5  C   UNL     1       4.280   6.164  -2.929  0.00  0.00    -0.000 A 
ATOM      6  C   UNL     1       4.085   7.380  -3.578  0.00  0.00    -0.000 A 
ATOM      7  C   UNL     1       3.918   7.368  -4.961  0.00  0.00    -0.001 A 
ENDBRANCH   1   2
BRANCH   1   8
ATOM      8  C   UNL     1       4.679   5.296  -7.763  0.00  0.00    +0.067 C 
BRANCH   8   9
ATOM      9  C   UNL     1       4.001   4.586  -8.931  0.00  0.00    +0.093 C 
BRANCH   9  11
ATOM     10  C   UNL     1       4.182   5.387 -10.623  0.00  0.00    +0.107 C 
ATOM     11  N   UNL     1       4.496   5.060 -10.200  0.00  0.00    -0.216 NA
ENDBRANCH   9  11
ENDBRANCH   8   9
ENDBRANCH   1   8
BRANCH   1  12
ATOM     12  O   UNL     1       2.802   4.554  -6.546  0.00  0.00    -0.475 OA
BRANCH  12  13
ATOM     13  C   UNL     1       1.445   4.517  -6.292  0.00  0.00    +0.139 A 
ATOM     14  C   UNL     1       0.618   4.982  -7.311  0.00  0.00    +0.037 A 
ATOM     15  C   UNL     1      -0.444   5.834  -7.088  0.00  0.00    +0.007 A 
ATOM     16  C   UNL     1      -0.924   5.972  -5.817  0.00  0.00    +0.072 A 
ATOM     17  C   UNL     1      -0.210   5.441  -4.774  0.00  0.00    +0.007 A 
ATOM     18  C   UNL     1       1.032   4.925  -5.027  0.00  0.00    +0.037 A 
BRANCH  16  19
ATOM     19  C   UNL     1      -2.307   6.406  -5.553  0.00  0.00    +0.419 C 
ATOM     20  F   UNL     1      -3.023   6.248  -6.735  0.00  0.00    -0.166 F 
ATOM     21  F   UNL     1      -2.901   5.656  -4.573  0.00  0.00    -0.166 F 
ATOM     22  F   UNL     1      -2.312   7.748  -5.189  0.00  0.00    -0.166 F 
ENDBRANCH  16  19
ENDBRANCH  12  13
ENDBRANCH   1  12
TORSDOF 7
ENDMDL
MODEL 6
REMARK VINA RESULT:      -7.3      2.355      4.722
REMARK  Name = 
REMARK  7 active torsions:
REMARK  status: ('A' for Active; 'I' for Inactive)
REMARK    1  A    between atoms: N_2  and  C_3
REMARK    2  A    between atoms: C_3  and  C_4
REMARK    3  A    between atoms: C_4  and  C_5
REMARK    4  A    between atoms: C_5  and  O_6
REMARK    5  A    between atoms: C_5  and  C_17
REMARK    6  A    between atoms: O_6  and  C_7
REMARK    7  A    between atoms: C_10  and  C_11
REMARK                            x       y       z     vdW  Elec       q    Type
REMARK                         _______ _______ _______ _____ _____    ______ ____
ROOT
ATOM      1  C   UNL     1       2.572   5.190  -6.741  0.00  0.00    +0.190 C 
ENDROOT
BRANCH   1   2
ATOM      2  C   UNL     1       3.246   5.795  -5.366  0.00  0.00    +0.017 A 
ATOM      3  C   UNL     1       3.525   7.118  -5.355  0.00  0.00    -0.001 A 
ATOM      4  C   UNL     1       4.407   7.555  -4.369  0.00  0.00    -0.000 A 
ATOM      5  C   UNL     1       5.401   6.641  -4.034  0.00  0.00    -0.000 A 
ATOM      6  C   UNL     1       4.963   5.337  -3.829  0.00  0.00    -0.000 A 
ATOM      7  C   UNL     1       3.913   4.864  -4.613  0.00  0.00    -0.001 A 
ENDBRANCH   1   2
BRANCH   1   8
ATOM      8  C   UNL     1       1.186   6.124  -6.534  0.00  0.00    +0.067 C 
BRANCH   8   9
ATOM      9  C   UNL     1       0.345   5.637  -7.709  0.00  0.00    +0.093 C 
BRANCH   9  11
ATOM     10  C   UNL     1      -1.215   5.274  -6.723  0.00  0.00    +0.107 C 
ATOM     11  N   UNL     1      -1.004   5.324  -7.304  0.00  0.00    -0.216 NA
ENDBRANCH   9  11
ENDBRANCH   8   9
ENDBRANCH   1   8
BRANCH   1  12
ATOM     12  O   UNL     1       3.253   6.276  -7.656  0.00  0.00    -0.475 OA
BRANCH  12  13
ATOM     13  C   UNL     1       4.013   5.755  -8.685  0.00  0.00    +0.139 A 
ATOM     14  C   UNL     1       5.235   5.197  -8.321  0.00  0.00    +0.037 A 
ATOM     15  C   UNL     1       6.409   5.444  -9.004  0.00  0.00    +0.007 A 
ATOM     16  C   UNL     1       6.341   5.971 -10.262  0.00  0.00    +0.072 A 
ATOM     17  C   UNL     1       5.139   6.442 -10.724  0.00  0.00    +0.007 A 
ATOM     18  C   UNL     1       4.085   6.506  -9.854  0.00  0.00    +0.037 A 
BRANCH  16  19
ATOM     19  C   UNL     1       7.429   5.787 -11.239  0.00  0.00    +0.419 C 
ATOM     20  F   UNL     1       6.949   4.948 -12.239  0.00  0.00    -0.166 F 
ATOM     21  F   UNL     1       7.815   6.973 -11.805  0.00  0.00    -0.166 F 
ATOM     22  F   UNL     1       8.516   5.184 -10.617  0.00  0.00    -0.166 F 
ENDBRANCH  16  19
ENDBRANCH  12  13
ENDBRANCH   1  12
TORSDOF 7
ENDMDL
MODEL 7
REMARK VINA RESULT:      -7.1      4.155      6.015
REMARK  Name = 
REMARK  7 active torsions:
REMARK  status: ('A' for Active; 'I' for Inactive)
REMARK    1  A    between atoms: N_2  and  C_3
REMARK    2  A    between atoms: C_3  and  C_4
REMARK    3  A    between atoms: C_4  and  C_5
REMARK    4  A    between atoms: C_5  and  O_6
REMARK    5  A    between atoms: C_5  and  C_17
REMARK    6  A    between atoms: O_6  and  C_7
REMARK    7  A    between atoms: C_10  and  C_11
REMARK                            x       y       z     vdW  Elec       q    Type
REMARK                         _______ _______ _______ _____ _____    ______ ____
ROOT
ATOM      1  C   UNL     1       3.819   6.155  -8.537  0.00  0.00    +0.190 C 
ENDROOT
BRANCH   1   2
ATOM      2  C   UNL     1       5.072   6.110  -9.604  0.00  0.00    +0.017 A 
ATOM      3  C   UNL     1       6.233   5.580  -9.160  0.00  0.00    -0.001 A 
ATOM      4  C   UNL     1       7.371   5.865  -9.911  0.00  0.00    -0.000 A 
ATOM      5  C   UNL     1       7.374   7.125 -10.501  0.00  0.00    -0.000 A 
ATOM      6  C   UNL     1       6.195   7.480 -11.149  0.00  0.00    -0.000 A 
ATOM      7  C   UNL     1       4.989   7.044 -10.605  0.00  0.00    -0.001 A 
ENDBRANCH   1   2
BRANCH   1   8
ATOM      8  C   UNL     1       3.234   4.672  -9.081  0.00  0.00    +0.067 C 
BRANCH   8   9
ATOM      9  C   UNL     1       1.732   4.916  -8.990  0.00  0.00    +0.093 C 
BRANCH   9  11
ATOM     10  C   UNL     1       0.563   4.730 -10.452  0.00  0.00    +0.107 C 
ATOM     11  N   UNL     1       1.047   4.459 -10.174  0.00  0.00    -0.216 NA
ENDBRANCH   9  11
ENDBRANCH   8   9
ENDBRANCH   1   8
BRANCH   1  12
ATOM     12  O   UNL     1       4.659   5.483  -7.388  0.00  0.00    -0.475 OA
BRANCH  12  13
ATOM     13  C   UNL     1       4.100   5.604  -6.131  0.00  0.00    +0.139 A 
ATOM     14  C   UNL     1       3.820   6.900  -5.707  0.00  0.00    +0.037 A 
ATOM     15  C   UNL     1       4.134   7.363  -4.445  0.00  0.00    +0.007 A 
ATOM     16  C   UNL     1       4.417   6.458  -3.462  0.00  0.00    +0.072 A 
ATOM     17  C   UNL     1       4.598   5.142  -3.800  0.00  0.00    +0.007 A 
ATOM     18  C   UNL     1       4.639   4.807  -5.126  0.00  0.00    +0.037 A 
BRANCH  16  19
ATOM     19  C   UNL     1       4.247   6.785  -2.036  0.00  0.00    +0.419 C 
ATOM     20  F   UNL     1       5.363   7.518  -1.643  0.00  0.00    -0.166 F 
ATOM     21  F   UNL     1       3.125   7.538  -1.813  0.00  0.00    -0.166 F 
ATOM     22  F   UNL     1       4.184   5.612  -1.293  0.00  0.00    -0.166 F 
ENDBRANCH  16  19
ENDBRANCH  12  13
ENDBRANCH   1  12
TORSDOF 7
ENDMDL
MODEL 8
REMARK VINA RESULT:      -7.0      4.716      7.015
REMARK  Name = 
REMARK  7 active torsions:
REMARK  status: ('A' for Active; 'I' for Inactive)
REMARK    1  A    between atoms: N_2  and  C_3
REMARK    2  A    between atoms: C_3  and  C_4
REMARK    3  A    between atoms: C_4  and  C_5
REMARK    4  A    between atoms: C_5  and  O_6
REMARK    5  A    between atoms: C_5  and  C_17
REMARK    6  A    between atoms: O_6  and  C_7
REMARK    7  A    between atoms: C_10  and  C_11
REMARK                            x       y       z     vdW  Elec       q    Type
REMARK                         _______ _______ _______ _____ _____    ______ ____
ROOT
ATOM      1  C   UNL     1       2.205   6.264  -8.556  0.00  0.00    +0.190 C 
ENDROOT
BRANCH   1   2
ATOM      2  C   UNL     1       3.621   5.542  -8.984  0.00  0.00    +0.017 A 
ATOM      3  C   UNL     1       4.567   5.437  -8.024  0.00  0.00    -0.001 A 
ATOM      4  C   UNL     1       5.864   5.171  -8.459  0.00  0.00    -0.000 A 
ATOM      5  C   UNL     1       6.191   5.742  -9.685  0.00  0.00    -0.000 A 
ATOM      6  C   UNL     1       5.240   5.580 -10.687  0.00  0.00    -0.000 A 
ATOM      7  C   UNL     1       3.895   5.596 -10.326  0.00  0.00    -0.001 A 
ENDBRANCH   1   2
BRANCH   1   8
ATOM      8  C   UNL     1       1.488   5.843 -10.022  0.00  0.00    +0.067 C 
BRANCH   8   9
ATOM      9  C   UNL     1       0.347   6.854 -10.072  0.00  0.00    +0.093 C 
BRANCH   9  11
ATOM     10  C   UNL     1      -0.569   7.442 -11.606  0.00  0.00    +0.107 C 
ATOM     11  N   UNL     1      -0.082   7.103 -11.426  0.00  0.00    -0.216 NA
ENDBRANCH   9  11
ENDBRANCH   8   9
ENDBRANCH   1   8
BRANCH   1  12
ATOM     12  O   UNL     1       1.662   4.972  -7.839  0.00  0.00    -0.475 OA
BRANCH  12  13
ATOM     13  C   UNL     1       0.821   5.226  -6.773  0.00  0.00    +0.139 A 
ATOM     14  C   UNL     1      -0.517   4.892  -6.956  0.00  0.00    +0.037 A 
ATOM     15  C   UNL     1      -1.556   5.727  -6.598  0.00  0.00    +0.007 A 
ATOM     16  C   UNL     1      -1.308   6.759  -5.739  0.00  0.00    +0.072 A 
ATOM     17  C   UNL     1      -0.009   7.072  -5.432  0.00  0.00    +0.007 A 
ATOM     18  C   UNL     1       0.995   6.438  -6.112  0.00  0.00    +0.037 A 
BRANCH  16  19
ATOM     19  C   UNL     1      -2.373   7.352  -4.912  0.00  0.00    +0.419 C 
ATOM     20  F   UNL     1      -1.791   8.358  -4.147  0.00  0.00    -0.166 F 
ATOM     21  F   UNL     1      -3.369   7.900  -5.676  0.00  0.00    -0.166 F 
ATOM     22  F   UNL     1      -2.903   6.382  -4.069  0.00  0.00    -0.166 F 
ENDBRANCH  16  19
ENDBRANCH  12  13
ENDBRANCH   1  12
TORSDOF 7
ENDMDL
MODEL 9
REMARK VINA RESULT:      -7.0      5.256      7.176
REMARK  Name = 
REMARK  7 active torsions:
REMARK  status: ('A' for Active; 'I' for Inactive)
REMARK    1  A    between atoms: N_2  and  C_3
REMARK    2  A    between atoms: C_3  and  C_4
REMARK    3  A    between atoms: C_4  and  C_5
REMARK    4  A    between atoms: C_5  and  O_6
REMARK    5  A    between atoms: C_5  and  C_17
REMARK    6  A    between atoms: O_6  and  C_7
REMARK    7  A    between atoms: C_10  and  C_11
REMARK                            x       y       z     vdW  Elec       q    Type
REMARK                         _______ _______ _______ _____ _____    ______ ____
ROOT
ATOM      1  C   UNL     1       1.705   5.008  -7.971  0.00  0.00    +0.190 C 
ENDROOT
BRANCH   1   2
ATOM      2  C   UNL     1       1.351   5.423  -9.525  0.00  0.00    +0.017 A 
ATOM      3  C   UNL     1       1.104   6.729  -9.767  0.00  0.00    -0.001 A 
ATOM      4  C   UNL     1       0.461   7.026 -10.966  0.00  0.00    -0.000 A 
ATOM      5  C   UNL     1      -0.455   6.066 -11.385  0.00  0.00    -0.000 A 
ATOM      6  C   UNL     1      -0.006   4.750 -11.322  0.00  0.00    -0.000 A 
ATOM      7  C   UNL     1       0.844   4.395 -10.276  0.00  0.00    -0.001 A 
ENDBRANCH   1   2
BRANCH   1   8
ATOM      8  C   UNL     1       2.931   6.162  -7.889  0.00  0.00    +0.067 C 
BRANCH   8   9
ATOM      9  C   UNL     1       4.055   5.329  -7.281  0.00  0.00    +0.093 C 
BRANCH   9  11
ATOM     10  C   UNL     1       5.253   5.257  -8.729  0.00  0.00    +0.107 C 
ATOM     11  N   UNL     1       5.232   5.337  -8.115  0.00  0.00    -0.216 NA
ENDBRANCH   9  11
ENDBRANCH   8   9
ENDBRANCH   1   8
BRANCH   1  12
ATOM     12  O   UNL     1       0.637   5.997  -7.372  0.00  0.00    -0.475 OA
BRANCH  12  13
ATOM     13  C   UNL     1      -0.150   5.448  -6.378  0.00  0.00    +0.139 A 
ATOM     14  C   UNL     1      -1.524   5.611  -6.525  0.00  0.00    +0.037 A 
ATOM     15  C   UNL     1      -2.350   5.999  -5.489  0.00  0.00    +0.007 A 
ATOM     16  C   UNL     1      -1.892   5.900  -4.207  0.00  0.00    +0.072 A 
ATOM     17  C   UNL     1      -0.564   5.633  -3.992  0.00  0.00    +0.007 A 
ATOM     18  C   UNL     1       0.283   5.624  -5.067  0.00  0.00    +0.037 A 
BRANCH  16  19
ATOM     19  C   UNL     1      -2.811   5.778  -3.062  0.00  0.00    +0.419 C 
ATOM     20  F   UNL     1      -3.920   5.060  -3.497  0.00  0.00    -0.166 F 
ATOM     21  F   UNL     1      -2.237   5.111  -2.012  0.00  0.00    -0.166 F 
ATOM     22  F   UNL     1      -3.216   7.044  -2.653  0.00  0.00    -0.166 F 
ENDBRANCH  16  19
ENDBRANCH  12  13
ENDBRANCH   1  12
TORSDOF 7
ENDMDL
