MODEL 1
REMARK VINA RESULT:      -8.3      0.000      0.000
REMARK  Name = 
REMARK  13 active torsions:
REMARK  status: ('A' for Active; 'I' for Inactive)
REMARK    1  A    between atoms: O_2  and  C_3
REMARK    2  A    between atoms: C_3  and  C_4
REMARK    3  A    between atoms: C_6  and  C_7
REMARK    4  A    between atoms: C_10  and  C_11
REMARK    5  A    between atoms: C_24  and  C_25
REMARK    6  A    between atoms: C_31  and  C_33
REMARK    7  A    between atoms: C_33  and  N_34
REMARK    8  A    between atoms: C_33  and  C_39
REMARK    9  A    between atoms: C_35  and  O_37
REMARK   10  A    between atoms: C_51  and  C_53
REMARK   11  A    between atoms: C_53  and  N_54
REMARK   12  A    between atoms: C_53  and  C_59
REMARK   13  A    between atoms: C_55  and  O_57
REMARK                            x       y       z     vdW  Elec       q    Type
REMARK                         _______ _______ _______ _____ _____    ______ ____
ROOT
ATOM      1  C   UNL     1       0.479   7.470 -12.951  0.00  0.00    +0.019 A 
ATOM      2  C   UNL     1       1.546   6.689 -12.511  0.00  0.00    +0.001 A 
ATOM      3  C   UNL     1       1.531   6.001 -11.306  0.00  0.00    +0.021 A 
ATOM      4  C   UNL     1       2.397   4.780 -11.143  0.00  0.00    +0.232 C 
ATOM      5  O   UNL     1       2.551   4.589  -9.756  0.00  0.00    -0.471 OA
ATOM      6  C   UNL     1       1.698   5.124  -8.818  0.00  0.00    +0.139 A 
ATOM      7  C   UNL     1       0.427   5.511  -9.227  0.00  0.00    +0.034 A 
ATOM      8  C   UNL     1      -0.521   5.767  -8.266  0.00  0.00    +0.003 A 
ATOM      9  C   UNL     1      -0.151   5.613  -6.935  0.00  0.00    +0.002 A 
ATOM     10  C   UNL     1       1.183   5.677  -6.594  0.00  0.00    +0.022 A 
ATOM     11  C   UNL     1       1.634   6.091  -5.358  0.00  0.00    +0.100 A 
ATOM     12  C   UNL     1       0.680   6.235  -4.356  0.00  0.00    +0.100 A 
ATOM     13  C   UNL     1      -0.596   5.758  -4.590  0.00  0.00    +0.021 A 
ATOM     14  N   UNL     1       1.376   6.571  -3.272  0.00  0.00    -0.228 NA
ATOM     15  C   UNL     1       2.641   6.853  -3.571  0.00  0.00    +0.157 A 
ATOM     16  N   UNL     1       2.672   6.861  -4.933  0.00  0.00    -0.228 NA
ATOM     17  C   UNL     1      -1.052   5.646  -5.895  0.00  0.00    +0.002 A 
ATOM     18  C   UNL     1       2.151   5.366  -7.523  0.00  0.00    +0.038 A 
ATOM     19  C   UNL     1       0.326   5.979 -10.615  0.00  0.00    +0.002 A 
ATOM     20  C   UNL     1      -0.684   6.866 -10.931  0.00  0.00    -0.000 A 
ATOM     21  C   UNL     1      -0.705   7.350 -12.222  0.00  0.00    +0.002 A 
ENDROOT
BRANCH  15  22
ATOM     22  C   UNL     1       3.248   8.150  -2.800  0.00  0.00    +0.134 C 
ATOM     23  N   UNL     1       3.338   7.372  -1.431  0.00  0.00    -0.275 N 
ATOM     24  C   UNL     1       2.403   7.492  -0.402  0.00  0.00    +0.246 C 
ATOM     25  O   UNL     1       1.998   6.395   0.103  0.00  0.00    -0.273 OA
ATOM     26  C   UNL     1       4.867   7.236  -1.174  0.00  0.00    +0.076 C 
ATOM     27  C   UNL     1       4.660   5.818  -0.356  0.00  0.00    +0.022 C 
ATOM     28  C   UNL     1       5.011   6.458  -2.611  0.00  0.00    +0.022 C 
ATOM     29  C   UNL     1       4.775   7.782  -3.300  0.00  0.00    +0.029 C 
BRANCH  24  30
ATOM     30  C   UNL     1       2.730   8.448   0.864  0.00  0.00    +0.175 C 
BRANCH  30  31
ATOM     31  C   UNL     1       1.178   8.417   1.410  0.00  0.00    +0.029 C 
ATOM     32  C   UNL     1       1.071   7.831   2.696  0.00  0.00    +0.002 C 
ATOM     33  C   UNL     1       0.568   9.735   1.128  0.00  0.00    +0.002 C 
ENDBRANCH  30  31
BRANCH  30  34
ATOM     34  N   UNL     1       2.539   9.778   0.031  0.00  0.00    -0.161 NA
ATOM     35  C   UNL     1       3.563  10.715   0.068  0.00  0.00    +0.422 C 
ATOM     36  O   UNL     1       4.508  10.528   0.896  0.00  0.00    -0.225 OA
BRANCH  35  37
ATOM     37  O   UNL     1       3.274  12.004  -0.396  0.00  0.00    -0.429 OA
ATOM     38  C   UNL     1       4.300  12.619  -1.184  0.00  0.00    +0.257 C 
ENDBRANCH  35  37
ENDBRANCH  30  34
ENDBRANCH  24  30
ENDBRANCH  15  22
BRANCH   1  41
ATOM     39  C   UNL     1       0.298   8.824 -16.182  0.00  0.00    +0.157 A 
ATOM     40  N   UNL     1       0.329   8.782 -14.881  0.00  0.00    -0.227 NA
ATOM     41  C   UNL     1       0.295   7.504 -14.410  0.00  0.00    +0.102 A 
ATOM     42  C   UNL     1       0.907   6.771 -15.408  0.00  0.00    +0.119 A 
ATOM     43  N   UNL     1       0.653   7.527 -16.500  0.00  0.00    -0.226 NA
BRANCH  39  49
ATOM     44  C   UNL     1       2.955   9.852 -17.166  0.00  0.00    +0.052 C 
ATOM     45  C   UNL     1       2.212  10.929 -18.197  0.00  0.00    +0.096 C 
ATOM     46  N   UNL     1       0.805  10.677 -17.816  0.00  0.00    -0.273 N 
ATOM     47  C   UNL     1      -0.151  11.384 -17.150  0.00  0.00    +0.250 C 
ATOM     48  O   UNL     1      -0.585  11.478 -16.016  0.00  0.00    -0.273 OA
ATOM     49  C   UNL     1       1.484   9.464 -17.061  0.00  0.00    +0.134 C 
ATOM     50  C   UNL     1       2.114  10.586 -15.955  0.00  0.00    +0.032 C 
BRANCH  47  51
ATOM     51  C   UNL     1      -0.645  12.517 -18.205  0.00  0.00    +0.197 C 
BRANCH  51  52
ATOM     52  C   UNL     1      -2.222  12.344 -17.851  0.00  0.00    +0.006 A 
ATOM     53  C   UNL     1      -2.941  11.504 -18.628  0.00  0.00    -0.002 A 
ATOM     54  C   UNL     1      -4.322  11.666 -18.627  0.00  0.00    -0.000 A 
ATOM     55  C   UNL     1      -4.739  12.987 -18.750  0.00  0.00    -0.000 A 
ATOM     56  C   UNL     1      -3.828  14.014 -18.531  0.00  0.00    -0.000 A 
ATOM     57  C   UNL     1      -2.748  13.635 -17.733  0.00  0.00    -0.002 A 
ENDBRANCH  51  52
BRANCH  51  58
ATOM     58  N   UNL     1      -0.433  13.681 -17.149  0.00  0.00    -0.157 NA
ATOM     59  C   UNL     1      -0.132  14.858 -17.815  0.00  0.00    +0.422 C 
ATOM     60  O   UNL     1       0.729  14.855 -18.741  0.00  0.00    -0.225 OA
BRANCH  59  61
ATOM     61  O   UNL     1      -0.587  16.103 -17.400  0.00  0.00    -0.429 OA
ATOM     62  C   UNL     1      -0.354  17.263 -18.184  0.00  0.00    +0.257 C 
ENDBRANCH  59  61
ENDBRANCH  51  58
ENDBRANCH  47  51
BRANCH  44  63
ATOM     63  C   UNL     1       4.441  10.515 -17.149  0.00  0.00    +0.144 C 
BRANCH  63  65
ATOM     64  C   UNL     1       5.231   8.651 -17.267  0.00  0.00    +0.174 C 
ATOM     65  O   UNL     1       4.785   9.216 -17.648  0.00  0.00    -0.351 OA
ENDBRANCH  63  65
ENDBRANCH  44  63
ENDBRANCH  39  49
ENDBRANCH   1  41
TORSDOF 13
ENDMDL
MODEL 2
REMARK VINA RESULT:      -6.9      2.904     15.819
REMARK  Name = 
REMARK  13 active torsions:
REMARK  status: ('A' for Active; 'I' for Inactive)
REMARK    1  A    between atoms: O_2  and  C_3
REMARK    2  A    between atoms: C_3  and  C_4
REMARK    3  A    between atoms: C_6  and  C_7
REMARK    4  A    between atoms: C_10  and  C_11
REMARK    5  A    between atoms: C_24  and  C_25
REMARK    6  A    between atoms: C_31  and  C_33
REMARK    7  A    between atoms: C_33  and  N_34
REMARK    8  A    between atoms: C_33  and  C_39
REMARK    9  A    between atoms: C_35  and  O_37
REMARK   10  A    between atoms: C_51  and  C_53
REMARK   11  A    between atoms: C_53  and  N_54
REMARK   12  A    between atoms: C_53  and  C_59
REMARK   13  A    between atoms: C_55  and  O_57
REMARK                            x       y       z     vdW  Elec       q    Type
REMARK                         _______ _______ _______ _____ _____    ______ ____
ROOT
ATOM      1  C   UNL     1       4.060   7.634  -2.468  0.00  0.00    +0.019 A 
ATOM      2  C   UNL     1       3.152   6.664  -2.887  0.00  0.00    +0.001 A 
ATOM      3  C   UNL     1       3.291   5.965  -4.077  0.00  0.00    +0.021 A 
ATOM      4  C   UNL     1       2.660   4.604  -4.211  0.00  0.00    +0.232 C 
ATOM      5  O   UNL     1       2.542   4.358  -5.592  0.00  0.00    -0.471 OA
ATOM      6  C   UNL     1       3.283   5.019  -6.546  0.00  0.00    +0.139 A 
ATOM      7  C   UNL     1       4.463   5.639  -6.150  0.00  0.00    +0.034 A 
ATOM      8  C   UNL     1       5.348   6.041  -7.122  0.00  0.00    +0.003 A 
ATOM      9  C   UNL     1       5.011   5.795  -8.448  0.00  0.00    +0.002 A 
ATOM     10  C   UNL     1       3.688   5.608  -8.783  0.00  0.00    +0.022 A 
ATOM     11  C   UNL     1       3.168   5.908 -10.025  0.00  0.00    +0.100 A 
ATOM     12  C   UNL     1       4.079   6.201 -11.034  0.00  0.00    +0.100 A 
ATOM     13  C   UNL     1       5.420   5.968 -10.796  0.00  0.00    +0.021 A 
ATOM     14  N   UNL     1       3.333   6.383 -12.122  0.00  0.00    -0.228 NA
ATOM     15  C   UNL     1       2.037   6.437 -11.823  0.00  0.00    +0.157 A 
ATOM     16  N   UNL     1       2.006   6.467 -10.461  0.00  0.00    -0.228 NA
ATOM     17  C   UNL     1       5.890   5.968  -9.492  0.00  0.00    +0.002 A 
ATOM     18  C   UNL     1       2.793   5.147  -7.843  0.00  0.00    +0.038 A 
ATOM     19  C   UNL     1       4.479   6.146  -4.774  0.00  0.00    +0.002 A 
ATOM     20  C   UNL     1       5.311   7.208  -4.481  0.00  0.00    -0.000 A 
ATOM     21  C   UNL     1       5.246   7.715  -3.200  0.00  0.00    +0.002 A 
ENDROOT
BRANCH  15  22
ATOM     22  C   UNL     1       1.204   7.586 -12.618  0.00  0.00    +0.134 C 
ATOM     23  N   UNL     1       1.270   6.783 -13.974  0.00  0.00    -0.275 N 
ATOM     24  C   UNL     1       2.173   7.058 -15.001  0.00  0.00    +0.246 C 
ATOM     25  O   UNL     1       2.778   6.048 -15.487  0.00  0.00    -0.273 OA
ATOM     26  C   UNL     1      -0.206   6.360 -14.233  0.00  0.00    +0.076 C 
ATOM     27  C   UNL     1       0.267   4.993 -15.027  0.00  0.00    +0.022 C 
ATOM     28  C   UNL     1      -0.211   5.592 -12.784  0.00  0.00    +0.022 C 
ATOM     29  C   UNL     1      -0.230   6.947 -12.117  0.00  0.00    +0.029 C 
BRANCH  24  30
ATOM     30  C   UNL     1       1.682   7.917 -16.285  0.00  0.00    +0.175 C 
BRANCH  30  31
ATOM     31  C   UNL     1       3.191   7.979 -16.940  0.00  0.00    +0.029 C 
ATOM     32  C   UNL     1       3.186   7.693 -18.329  0.00  0.00    +0.002 C 
ATOM     33  C   UNL     1       3.865   9.188 -16.420  0.00  0.00    +0.002 C 
ENDBRANCH  30  31
BRANCH  30  34
ATOM     34  N   UNL     1       1.819   9.300 -15.532  0.00  0.00    -0.161 NA
ATOM     35  C   UNL     1       0.829  10.250 -15.741  0.00  0.00    +0.422 C 
ATOM     36  O   UNL     1      -0.030  10.020 -16.649  0.00  0.00    -0.225 OA
BRANCH  35  37
ATOM     37  O   UNL     1       1.101  11.564 -15.343  0.00  0.00    -0.429 OA
ATOM     38  C   UNL     1       0.035  12.500 -15.541  0.00  0.00    +0.257 C 
ENDBRANCH  35  37
ENDBRANCH  30  34
ENDBRANCH  24  30
ENDBRANCH  15  22
BRANCH   1  41
ATOM     39  C   UNL     1       3.887   9.020   0.750  0.00  0.00    +0.157 A 
ATOM     40  N   UNL     1       3.861   8.958  -0.551  0.00  0.00    -0.227 NA
ATOM     41  C   UNL     1       4.237   7.733  -1.011  0.00  0.00    +0.102 A 
ATOM     42  C   UNL     1       3.851   6.871  -0.001  0.00  0.00    +0.119 A 
ATOM     43  N   UNL     1       3.898   7.680   1.082  0.00  0.00    -0.226 NA
BRANCH  39  49
ATOM     44  C   UNL     1       1.059   9.455   1.697  0.00  0.00    +0.052 C 
ATOM     45  C   UNL     1       1.571  10.468   2.916  0.00  0.00    +0.096 C 
ATOM     46  N   UNL     1       3.015  10.502   2.594  0.00  0.00    -0.273 N 
ATOM     47  C   UNL     1       3.866  11.445   2.098  0.00  0.00    +0.250 C 
ATOM     48  O   UNL     1       4.323  11.775   1.018  0.00  0.00    -0.273 OA
ATOM     49  C   UNL     1       2.576   9.325   1.632  0.00  0.00    +0.134 C 
ATOM     50  C   UNL     1       1.814  10.486   0.659  0.00  0.00    +0.032 C 
BRANCH  47  51
ATOM     51  C   UNL     1       4.121  12.470   3.332  0.00  0.00    +0.197 C 
BRANCH  51  52
ATOM     52  C   UNL     1       5.714  12.158   3.430  0.00  0.00    +0.006 A 
ATOM     53  C   UNL     1       6.490  12.576   2.405  0.00  0.00    -0.002 A 
ATOM     54  C   UNL     1       7.728  11.962   2.256  0.00  0.00    -0.000 A 
ATOM     55  C   UNL     1       7.692  10.577   2.361  0.00  0.00    -0.000 A 
ATOM     56  C   UNL     1       6.573   9.962   2.911  0.00  0.00    -0.000 A 
ATOM     57  C   UNL     1       5.836  10.801   3.747  0.00  0.00    -0.002 A 
ENDBRANCH  51  52
BRANCH  51  58
ATOM     58  N   UNL     1       4.322  13.699   2.350  0.00  0.00    -0.157 NA
ATOM     59  C   UNL     1       4.041  14.877   3.025  0.00  0.00    +0.422 C 
ATOM     60  O   UNL     1       2.998  14.963   3.733  0.00  0.00    -0.225 OA
BRANCH  59  61
ATOM     61  O   UNL     1       4.746  16.055   2.820  0.00  0.00    -0.429 OA
ATOM     62  C   UNL     1       5.799  16.436   3.692  0.00  0.00    +0.257 C 
ENDBRANCH  59  61
ENDBRANCH  51  58
ENDBRANCH  47  51
BRANCH  44  63
ATOM     63  C   UNL     1      -0.514   9.868   1.680  0.00  0.00    +0.144 C 
BRANCH  63  65
ATOM     64  C   UNL     1      -1.102   8.317   0.514  0.00  0.00    +0.174 C 
ATOM     65  O   UNL     1      -0.534   8.887   0.636  0.00  0.00    -0.351 OA
ENDBRANCH  63  65
ENDBRANCH  44  63
ENDBRANCH  39  49
ENDBRANCH   1  41
TORSDOF 13
ENDMDL
MODEL 3
REMARK VINA RESULT:      -6.5      2.944      4.617
REMARK  Name = 
REMARK  13 active torsions:
REMARK  status: ('A' for Active; 'I' for Inactive)
REMARK    1  A    between atoms: O_2  and  C_3
REMARK    2  A    between atoms: C_3  and  C_4
REMARK    3  A    between atoms: C_6  and  C_7
REMARK    4  A    between atoms: C_10  and  C_11
REMARK    5  A    between atoms: C_24  and  C_25
REMARK    6  A    between atoms: C_31  and  C_33
REMARK    7  A    between atoms: C_33  and  N_34
REMARK    8  A    between atoms: C_33  and  C_39
REMARK    9  A    between atoms: C_35  and  O_37
REMARK   10  A    between atoms: C_51  and  C_53
REMARK   11  A    between atoms: C_53  and  N_54
REMARK   12  A    between atoms: C_53  and  C_59
REMARK   13  A    between atoms: C_55  and  O_57
REMARK                            x       y       z     vdW  Elec       q    Type
REMARK                         _______ _______ _______ _____ _____    ______ ____
ROOT
ATOM      1  C   UNL     1       0.593   5.999  -9.193  0.00  0.00    +0.019 A 
ATOM      2  C   UNL     1       1.680   5.343  -8.618  0.00  0.00    +0.001 A 
ATOM      3  C   UNL     1       1.699   4.937  -7.291  0.00  0.00    +0.021 A 
ATOM      4  C   UNL     1       2.584   3.789  -6.883  0.00  0.00    +0.232 C 
ATOM      5  O   UNL     1       2.770   3.909  -5.493  0.00  0.00    -0.471 OA
ATOM      6  C   UNL     1       1.930   4.631  -4.676  0.00  0.00    +0.139 A 
ATOM      7  C   UNL     1       0.645   4.907  -5.130  0.00  0.00    +0.034 A 
ATOM      8  C   UNL     1      -0.286   5.360  -4.227  0.00  0.00    +0.003 A 
ATOM      9  C   UNL     1       0.114   5.506  -2.903  0.00  0.00    +0.002 A 
ATOM     10  C   UNL     1       1.453   5.654  -2.616  0.00  0.00    +0.022 A 
ATOM     11  C   UNL     1       1.924   6.335  -1.513  0.00  0.00    +0.100 A 
ATOM     12  C   UNL     1       0.989   6.687  -0.545  0.00  0.00    +0.100 A 
ATOM     13  C   UNL     1      -0.284   6.160  -0.639  0.00  0.00    +0.021 A 
ATOM     14  N   UNL     1       1.703   7.260   0.422  0.00  0.00    -0.228 NA
ATOM     15  C   UNL     1       2.958   7.480   0.040  0.00  0.00    +0.157 A 
ATOM     16  N   UNL     1       2.961   7.188  -1.291  0.00  0.00    -0.228 NA
ATOM     17  C   UNL     1      -0.766   5.759  -1.876  0.00  0.00    +0.002 A 
ATOM     18  C   UNL     1       2.406   5.155  -3.476  0.00  0.00    +0.038 A 
ATOM     19  C   UNL     1       0.509   5.057  -6.584  0.00  0.00    +0.002 A 
ATOM     20  C   UNL     1      -0.519   5.844  -7.064  0.00  0.00    -0.000 A 
ATOM     21  C   UNL     1      -0.573   6.032  -8.429  0.00  0.00    +0.002 A 
ENDROOT
BRANCH  15  22
ATOM     22  C   UNL     1       3.564   8.920   0.492  0.00  0.00    +0.134 C 
ATOM     23  N   UNL     1       3.344   8.602   2.021  0.00  0.00    -0.275 N 
ATOM     24  C   UNL     1       2.271   9.082   2.772  0.00  0.00    +0.246 C 
ATOM     25  O   UNL     1       1.674   8.218   3.494  0.00  0.00    -0.273 OA
ATOM     26  C   UNL     1       4.788   8.475   2.591  0.00  0.00    +0.076 C 
ATOM     27  C   UNL     1       4.300   7.394   3.737  0.00  0.00    +0.022 C 
ATOM     28  C   UNL     1       5.082   7.283   1.503  0.00  0.00    +0.022 C 
ATOM     29  C   UNL     1       5.104   8.338   0.422  0.00  0.00    +0.029 C 
BRANCH  24  30
ATOM     30  C   UNL     1       2.484  10.366   3.737  0.00  0.00    +0.175 C 
BRANCH  30  31
ATOM     31  C   UNL     1       0.901  10.810   3.656  0.00  0.00    +0.029 C 
ATOM     32  C   UNL     1       0.730  12.214   3.749  0.00  0.00    +0.002 C 
ATOM     33  C   UNL     1       0.266  10.042   2.563  0.00  0.00    +0.002 C 
ENDBRANCH  30  31
BRANCH  30  34
ATOM     34  N   UNL     1       2.933  11.305   2.547  0.00  0.00    -0.161 NA
ATOM     35  C   UNL     1       4.172  11.923   2.644  0.00  0.00    +0.422 C 
ATOM     36  O   UNL     1       4.793  11.835   3.750  0.00  0.00    -0.225 OA
BRANCH  35  37
ATOM     37  O   UNL     1       4.435  12.982   1.768  0.00  0.00    -0.429 OA
ATOM     38  C   UNL     1       4.355  14.291   2.345  0.00  0.00    +0.257 C 
ENDBRANCH  35  37
ENDBRANCH  30  34
ENDBRANCH  24  30
ENDBRANCH  15  22
BRANCH   1  41
ATOM     39  C   UNL     1       1.102   6.144 -12.661  0.00  0.00    +0.157 A 
ATOM     40  N   UNL     1       1.183   6.477 -11.405  0.00  0.00    -0.227 NA
ATOM     41  C   UNL     1       0.378   5.709 -10.620  0.00  0.00    +0.102 A 
ATOM     42  C   UNL     1       0.321   4.502 -11.291  0.00  0.00    +0.119 A 
ATOM     43  N   UNL     1       0.533   4.889 -12.570  0.00  0.00    -0.226 NA
BRANCH  39  49
ATOM     44  C   UNL     1       3.867   5.358 -13.567  0.00  0.00    +0.052 C 
ATOM     45  C   UNL     1       3.463   5.594 -15.166  0.00  0.00    +0.096 C 
ATOM     46  N   UNL     1       2.088   6.109 -14.982  0.00  0.00    -0.273 N 
ATOM     47  C   UNL     1       1.488   7.322 -15.143  0.00  0.00    +0.250 C 
ATOM     48  O   UNL     1       1.201   8.289 -14.461  0.00  0.00    -0.273 OA
ATOM     49  C   UNL     1       2.365   5.614 -13.505  0.00  0.00    +0.134 C 
ATOM     50  C   UNL     1       3.424   6.927 -13.329  0.00  0.00    +0.032 C 
BRANCH  47  51
ATOM     51  C   UNL     1       1.335   7.503 -16.751  0.00  0.00    +0.197 C 
BRANCH  51  52
ATOM     52  C   UNL     1      -0.239   7.906 -16.685  0.00  0.00    +0.006 A 
ATOM     53  C   UNL     1      -1.138   6.927 -16.936  0.00  0.00    -0.002 A 
ATOM     54  C   UNL     1      -2.417   7.323 -17.308  0.00  0.00    -0.000 A 
ATOM     55  C   UNL     1      -2.446   8.327 -18.269  0.00  0.00    -0.000 A 
ATOM     56  C   UNL     1      -1.292   9.059 -18.526  0.00  0.00    -0.000 A 
ATOM     57  C   UNL     1      -0.389   9.058 -17.463  0.00  0.00    -0.002 A 
ENDBRANCH  51  52
BRANCH  51  58
ATOM     58  N   UNL     1       1.825   9.011 -16.689  0.00  0.00    -0.157 NA
ATOM     59  C   UNL     1       2.987   9.147 -17.431  0.00  0.00    +0.422 C 
ATOM     60  O   UNL     1       3.923   8.308 -17.297  0.00  0.00    -0.225 OA
BRANCH  59  61
ATOM     61  O   UNL     1       3.274  10.273 -18.191  0.00  0.00    -0.429 OA
ATOM     62  C   UNL     1       4.594  10.791 -18.257  0.00  0.00    +0.257 C 
ENDBRANCH  59  61
ENDBRANCH  51  58
ENDBRANCH  47  51
BRANCH  44  63
ATOM     63  C   UNL     1       5.486   5.364 -13.721  0.00  0.00    +0.144 C 
BRANCH  63  65
ATOM     64  C   UNL     1       5.973   6.640 -12.222  0.00  0.00    +0.174 C 
ATOM     65  O   UNL     1       5.365   6.286 -12.630  0.00  0.00    -0.351 OA
ENDBRANCH  63  65
ENDBRANCH  44  63
ENDBRANCH  39  49
ENDBRANCH   1  41
TORSDOF 13
ENDMDL
MODEL 4
REMARK VINA RESULT:      -6.4      2.260     15.592
REMARK  Name = 
REMARK  13 active torsions:
REMARK  status: ('A' for Active; 'I' for Inactive)
REMARK    1  A    between atoms: O_2  and  C_3
REMARK    2  A    between atoms: C_3  and  C_4
REMARK    3  A    between atoms: C_6  and  C_7
REMARK    4  A    between atoms: C_10  and  C_11
REMARK    5  A    between atoms: C_24  and  C_25
REMARK    6  A    between atoms: C_31  and  C_33
REMARK    7  A    between atoms: C_33  and  N_34
REMARK    8  A    between atoms: C_33  and  C_39
REMARK    9  A    between atoms: C_35  and  O_37
REMARK   10  A    between atoms: C_51  and  C_53
REMARK   11  A    between atoms: C_53  and  N_54
REMARK   12  A    between atoms: C_53  and  C_59
REMARK   13  A    between atoms: C_55  and  O_57
REMARK                            x       y       z     vdW  Elec       q    Type
REMARK                         _______ _______ _______ _____ _____    ______ ____
ROOT
ATOM      1  C   UNL     1       3.575   6.622  -5.343  0.00  0.00    +0.019 A 
ATOM      2  C   UNL     1       2.429   6.008  -5.842  0.00  0.00    +0.001 A 
ATOM      3  C   UNL     1       2.365   5.444  -7.109  0.00  0.00    +0.021 A 
ATOM      4  C   UNL     1       1.371   4.346  -7.379  0.00  0.00    +0.232 C 
ATOM      5  O   UNL     1       1.192   4.310  -8.775  0.00  0.00    -0.471 OA
ATOM      6  C   UNL     1       2.096   4.841  -9.668  0.00  0.00    +0.139 A 
ATOM      7  C   UNL     1       3.403   5.046  -9.241  0.00  0.00    +0.034 A 
ATOM      8  C   UNL     1       4.370   5.291 -10.186  0.00  0.00    +0.003 A 
ATOM      9  C   UNL     1       3.981   5.310 -11.520  0.00  0.00    +0.002 A 
ATOM     10  C   UNL     1       2.661   5.550 -11.835  0.00  0.00    +0.022 A 
ATOM     11  C   UNL     1       2.254   6.131 -13.017  0.00  0.00    +0.100 A 
ATOM     12  C   UNL     1       3.215   6.269 -14.014  0.00  0.00    +0.100 A 
ATOM     13  C   UNL     1       4.432   5.637 -13.845  0.00  0.00    +0.021 A 
ATOM     14  N   UNL     1       2.557   6.784 -15.050  0.00  0.00    -0.228 NA
ATOM     15  C   UNL     1       1.330   7.170 -14.708  0.00  0.00    +0.157 A 
ATOM     16  N   UNL     1       1.304   7.046 -13.351  0.00  0.00    -0.228 NA
ATOM     17  C   UNL     1       4.877   5.348 -12.564  0.00  0.00    +0.002 A 
ATOM     18  C   UNL     1       1.668   5.256 -10.927  0.00  0.00    +0.038 A 
ATOM     19  C   UNL     1       3.558   5.360  -7.816  0.00  0.00    +0.002 A 
ATOM     20  C   UNL     1       4.659   6.098  -7.428  0.00  0.00    -0.000 A 
ATOM     21  C   UNL     1       4.737   6.447  -6.096  0.00  0.00    +0.002 A 
ENDROOT
BRANCH  15  22
ATOM     22  C   UNL     1       0.865   8.595 -15.340  0.00  0.00    +0.134 C 
ATOM     23  N   UNL     1       1.311   8.167 -16.791  0.00  0.00    -0.275 N 
ATOM     24  C   UNL     1       2.509   8.560 -17.388  0.00  0.00    +0.246 C 
ATOM     25  O   UNL     1       3.175   7.631 -17.949  0.00  0.00    -0.273 OA
ATOM     26  C   UNL     1      -0.028   8.048 -17.577  0.00  0.00    +0.076 C 
ATOM     27  C   UNL     1       0.589   6.877 -18.561  0.00  0.00    +0.022 C 
ATOM     28  C   UNL     1      -0.542   6.943 -16.479  0.00  0.00    +0.022 C 
ATOM     29  C   UNL     1      -0.690   8.069 -15.483  0.00  0.00    +0.029 C 
BRANCH  24  30
ATOM     30  C   UNL     1       2.505   9.783 -18.452  0.00  0.00    +0.175 C 
BRANCH  30  31
ATOM     31  C   UNL     1       4.100  10.116 -18.218  0.00  0.00    +0.029 C 
ATOM     32  C   UNL     1       4.469  11.379 -18.747  0.00  0.00    +0.002 C 
ATOM     33  C   UNL     1       4.446   9.749 -16.828  0.00  0.00    +0.002 C 
ENDBRANCH  30  31
BRANCH  30  34
ATOM     34  N   UNL     1       2.004  10.836 -17.385  0.00  0.00    -0.161 NA
ATOM     35  C   UNL     1       0.764  11.424 -17.591  0.00  0.00    +0.422 C 
ATOM     36  O   UNL     1       0.186  11.213 -18.703  0.00  0.00    -0.225 OA
BRANCH  35  37
ATOM     37  O   UNL     1       0.460  12.567 -16.842  0.00  0.00    -0.429 OA
ATOM     38  C   UNL     1      -0.871  12.620 -16.314  0.00  0.00    +0.257 C 
ENDBRANCH  35  37
ENDBRANCH  30  34
ENDBRANCH  24  30
ENDBRANCH  15  22
BRANCH   1  41
ATOM     39  C   UNL     1       2.922   7.027  -1.921  0.00  0.00    +0.157 A 
ATOM     40  N   UNL     1       2.852   7.232  -3.205  0.00  0.00    -0.227 NA
ATOM     41  C   UNL     1       3.767   6.492  -3.890  0.00  0.00    +0.102 A 
ATOM     42  C   UNL     1       3.932   5.366  -3.105  0.00  0.00    +0.119 A 
ATOM     43  N   UNL     1       3.630   5.842  -1.876  0.00  0.00    -0.226 NA
BRANCH  39  49
ATOM     44  C   UNL     1       0.242   5.974  -1.031  0.00  0.00    +0.052 C 
ATOM     45  C   UNL     1       0.508   6.480   0.534  0.00  0.00    +0.096 C 
ATOM     46  N   UNL     1       1.806   7.162   0.337  0.00  0.00    -0.273 N 
ATOM     47  C   UNL     1       2.220   8.461   0.348  0.00  0.00    +0.250 C 
ATOM     48  O   UNL     1       2.412   9.359  -0.452  0.00  0.00    -0.273 OA
ATOM     49  C   UNL     1       1.695   6.437  -1.065  0.00  0.00    +0.134 C 
ATOM     50  C   UNL     1       0.476   7.544  -1.472  0.00  0.00    +0.032 C 
BRANCH  47  51
ATOM     51  C   UNL     1       2.244   8.878   1.919  0.00  0.00    +0.197 C 
BRANCH  51  52
ATOM     52  C   UNL     1       3.030  10.279   1.667  0.00  0.00    +0.006 A 
ATOM     53  C   UNL     1       4.331  10.201   1.304  0.00  0.00    -0.002 A 
ATOM     54  C   UNL     1       5.113  11.333   1.505  0.00  0.00    -0.000 A 
ATOM     55  C   UNL     1       4.945  11.926   2.751  0.00  0.00    -0.000 A 
ATOM     56  C   UNL     1       3.842  11.587   3.526  0.00  0.00    -0.000 A 
ATOM     57  C   UNL     1       2.775  11.086   2.780  0.00  0.00    -0.002 A 
ENDBRANCH  51  52
BRANCH  51  58
ATOM     58  N   UNL     1       0.811   9.552   1.825  0.00  0.00    -0.157 NA
ATOM     59  C   UNL     1       0.113   9.312   2.998  0.00  0.00    +0.422 C 
ATOM     60  O   UNL     1       0.092   8.149   3.492  0.00  0.00    -0.225 OA
BRANCH  59  61
ATOM     61  O   UNL     1      -0.737  10.244   3.578  0.00  0.00    -0.429 OA
ATOM     62  C   UNL     1      -1.946  10.624   2.940  0.00  0.00    +0.257 C 
ENDBRANCH  59  61
ENDBRANCH  51  58
ENDBRANCH  47  51
BRANCH  44  63
ATOM     63  C   UNL     1      -1.369   5.763  -0.950  0.00  0.00    +0.144 C 
BRANCH  63  65
ATOM     64  C   UNL     1      -1.606   5.411  -2.933  0.00  0.00    +0.174 C 
ATOM     65  O   UNL     1      -1.232   5.868  -2.373  0.00  0.00    -0.351 OA
ENDBRANCH  63  65
ENDBRANCH  44  63
ENDBRANCH  39  49
ENDBRANCH   1  41
TORSDOF 13
ENDMDL
MODEL 5
REMARK VINA RESULT:      -5.6      2.213     15.255
REMARK  Name = 
REMARK  13 active torsions:
REMARK  status: ('A' for Active; 'I' for Inactive)
REMARK    1  A    between atoms: O_2  and  C_3
REMARK    2  A    between atoms: C_3  and  C_4
REMARK    3  A    between atoms: C_6  and  C_7
REMARK    4  A    between atoms: C_10  and  C_11
REMARK    5  A    between atoms: C_24  and  C_25
REMARK    6  A    between atoms: C_31  and  C_33
REMARK    7  A    between atoms: C_33  and  N_34
REMARK    8  A    between atoms: C_33  and  C_39
REMARK    9  A    between atoms: C_35  and  O_37
REMARK   10  A    between atoms: C_51  and  C_53
REMARK   11  A    between atoms: C_53  and  N_54
REMARK   12  A    between atoms: C_53  and  C_59
REMARK   13  A    between atoms: C_55  and  O_57
REMARK                            x       y       z     vdW  Elec       q    Type
REMARK                         _______ _______ _______ _____ _____    ______ ____
ROOT
ATOM      1  C   UNL     1       2.066   6.469  -7.053  0.00  0.00    +0.019 A 
ATOM      2  C   UNL     1       1.138   5.640  -7.680  0.00  0.00    +0.001 A 
ATOM      3  C   UNL     1       1.252   5.247  -9.006  0.00  0.00    +0.021 A 
ATOM      4  C   UNL     1       0.598   3.967  -9.455  0.00  0.00    +0.232 C 
ATOM      5  O   UNL     1       0.461   4.064 -10.853  0.00  0.00    -0.471 OA
ATOM      6  C   UNL     1       1.202   4.925 -11.629  0.00  0.00    +0.139 A 
ATOM      7  C   UNL     1       2.397   5.415 -11.113  0.00  0.00    +0.034 A 
ATOM      8  C   UNL     1       3.278   6.028 -11.972  0.00  0.00    +0.003 A 
ATOM      9  C   UNL     1       2.923   6.113 -13.313  0.00  0.00    +0.002 A 
ATOM     10  C   UNL     1       1.593   6.031 -13.664  0.00  0.00    +0.022 A 
ATOM     11  C   UNL     1       1.065   6.629 -14.789  0.00  0.00    +0.100 A 
ATOM     12  C   UNL     1       1.970   7.144 -15.712  0.00  0.00    +0.100 A 
ATOM     13  C   UNL     1       3.309   6.843 -15.556  0.00  0.00    +0.021 A 
ATOM     14  N   UNL     1       1.215   7.593 -16.712  0.00  0.00    -0.228 NA
ATOM     15  C   UNL     1      -0.076   7.591 -16.391  0.00  0.00    +0.157 A 
ATOM     16  N   UNL     1      -0.092   7.292 -15.061  0.00  0.00    -0.228 NA
ATOM     17  C   UNL     1       3.793   6.522 -14.297  0.00  0.00    +0.002 A 
ATOM     18  C   UNL     1       0.701   5.369 -12.850  0.00  0.00    +0.038 A 
ATOM     19  C   UNL     1       2.436   5.575  -9.655  0.00  0.00    +0.002 A 
ATOM     20  C   UNL     1       3.289   6.524  -9.127  0.00  0.00    -0.000 A 
ATOM     21  C   UNL     1       3.245   6.708  -7.761  0.00  0.00    +0.002 A 
ENDROOT
BRANCH  15  22
ATOM     22  C   UNL     1      -0.898   8.909 -16.873  0.00  0.00    +0.134 C 
ATOM     23  N   UNL     1       0.419   9.770 -16.974  0.00  0.00    -0.275 N 
ATOM     24  C   UNL     1       0.836  10.676 -15.999  0.00  0.00    +0.246 C 
ATOM     25  O   UNL     1       2.062  10.594 -15.660  0.00  0.00    -0.273 OA
ATOM     26  C   UNL     1       0.581  10.033 -18.500  0.00  0.00    +0.076 C 
ATOM     27  C   UNL     1       2.225  10.093 -18.372  0.00  0.00    +0.022 C 
ATOM     28  C   UNL     1       0.598   8.412 -18.750  0.00  0.00    +0.022 C 
ATOM     29  C   UNL     1      -0.880   8.395 -18.439  0.00  0.00    +0.029 C 
BRANCH  24  30
ATOM     30  C   UNL     1       0.559  12.258 -16.211  0.00  0.00    +0.175 C 
BRANCH  30  31
ATOM     31  C   UNL     1       0.218  12.509 -14.620  0.00  0.00    +0.029 C 
ATOM     32  C   UNL     1       1.350  12.952 -13.891  0.00  0.00    +0.002 C 
ATOM     33  C   UNL     1      -1.066  13.238 -14.537  0.00  0.00    +0.002 C 
ENDBRANCH  30  31
BRANCH  30  34
ATOM     34  N   UNL     1      -0.950  12.036 -16.625  0.00  0.00    -0.161 NA
ATOM     35  C   UNL     1      -1.426  12.728 -17.730  0.00  0.00    +0.422 C 
ATOM     36  O   UNL     1      -0.677  13.621 -18.236  0.00  0.00    -0.225 OA
BRANCH  35  37
ATOM     37  O   UNL     1      -2.813  12.784 -17.908  0.00  0.00    -0.429 OA
ATOM     38  C   UNL     1      -3.461  13.926 -17.336  0.00  0.00    +0.257 C 
ENDBRANCH  35  37
ENDBRANCH  30  34
ENDBRANCH  24  30
ENDBRANCH  15  22
BRANCH   1  41
ATOM     39  C   UNL     1       1.415   6.563  -3.608  0.00  0.00    +0.157 A 
ATOM     40  N   UNL     1       1.342   6.881  -4.868  0.00  0.00    -0.227 NA
ATOM     41  C   UNL     1       2.260   6.210  -5.618  0.00  0.00    +0.102 A 
ATOM     42  C   UNL     1       2.432   5.020  -4.937  0.00  0.00    +0.119 A 
ATOM     43  N   UNL     1       2.129   5.382  -3.670  0.00  0.00    -0.226 NA
BRANCH  39  49
ATOM     44  C   UNL     1      -1.315   5.698  -2.667  0.00  0.00    +0.052 C 
ATOM     45  C   UNL     1      -0.766   5.491  -1.108  0.00  0.00    +0.096 C 
ATOM     46  N   UNL     1       0.622   5.972  -1.288  0.00  0.00    -0.273 N 
ATOM     47  C   UNL     1       1.317   7.072  -0.882  0.00  0.00    +0.250 C 
ATOM     48  O   UNL     1       1.615   8.169  -1.320  0.00  0.00    -0.273 OA
ATOM     49  C   UNL     1       0.191   5.891  -2.808  0.00  0.00    +0.134 C 
ATOM     50  C   UNL     1      -0.785   7.253  -2.540  0.00  0.00    +0.032 C 
BRANCH  47  51
ATOM     51  C   UNL     1       1.613   6.822   0.696  0.00  0.00    +0.197 C 
BRANCH  51  52
ATOM     52  C   UNL     1       3.072   7.541   0.667  0.00  0.00    +0.006 A 
ATOM     53  C   UNL     1       4.105   6.822   0.176  0.00  0.00    -0.002 A 
ATOM     54  C   UNL     1       5.386   7.228   0.532  0.00  0.00    -0.000 A 
ATOM     55  C   UNL     1       5.536   7.513   1.885  0.00  0.00    -0.000 A 
ATOM     56  C   UNL     1       4.406   7.698   2.673  0.00  0.00    -0.000 A 
ATOM     57  C   UNL     1       3.278   8.075   1.943  0.00  0.00    -0.002 A 
ENDBRANCH  51  52
BRANCH  51  58
ATOM     58  N   UNL     1       0.856   8.153   1.111  0.00  0.00    -0.157 NA
ATOM     59  C   UNL     1      -0.085   7.861   2.086  0.00  0.00    +0.422 C 
ATOM     60  O   UNL     1      -0.853   6.868   1.942  0.00  0.00    -0.225 OA
BRANCH  59  61
ATOM     61  O   UNL     1      -0.371   8.714   3.143  0.00  0.00    -0.429 OA
ATOM     62  C   UNL     1      -0.840  10.033   2.909  0.00  0.00    +0.257 C 
ENDBRANCH  59  61
ENDBRANCH  51  58
ENDBRANCH  47  51
BRANCH  44  63
ATOM     63  C   UNL     1      -2.912   5.740  -2.360  0.00  0.00    +0.144 C 
BRANCH  63  65
ATOM     64  C   UNL     1      -3.237   5.022  -4.228  0.00  0.00    +0.174 C 
ATOM     65  O   UNL     1      -2.928   4.862  -3.493  0.00  0.00    -0.351 OA
ENDBRANCH  63  65
ENDBRANCH  44  63
ENDBRANCH  39  49
ENDBRANCH   1  41
TORSDOF 13
ENDMDL
MODEL 6
REMARK VINA RESULT:      -5.5      3.755      7.856
REMARK  Name = 
REMARK  13 active torsions:
REMARK  status: ('A' for Active; 'I' for Inactive)
REMARK    1  A    between atoms: O_2  and  C_3
REMARK    2  A    between atoms: C_3  and  C_4
REMARK    3  A    between atoms: C_6  and  C_7
REMARK    4  A    between atoms: C_10  and  C_11
REMARK    5  A    between atoms: C_24  and  C_25
REMARK    6  A    between atoms: C_31  and  C_33
REMARK    7  A    between atoms: C_33  and  N_34
REMARK    8  A    between atoms: C_33  and  C_39
REMARK    9  A    between atoms: C_35  and  O_37
REMARK   10  A    between atoms: C_51  and  C_53
REMARK   11  A    between atoms: C_53  and  N_54
REMARK   12  A    between atoms: C_53  and  C_59
REMARK   13  A    between atoms: C_55  and  O_57
REMARK                            x       y       z     vdW  Elec       q    Type
REMARK                         _______ _______ _______ _____ _____    ______ ____
ROOT
ATOM      1  C   UNL     1       3.582   6.250  -6.535  0.00  0.00    +0.019 A 
ATOM      2  C   UNL     1       4.341   5.531  -5.613  0.00  0.00    +0.001 A 
ATOM      3  C   UNL     1       4.148   5.623  -4.242  0.00  0.00    +0.021 A 
ATOM      4  C   UNL     1       4.556   4.472  -3.361  0.00  0.00    +0.232 C 
ATOM      5  O   UNL     1       4.699   5.001  -2.064  0.00  0.00    -0.471 OA
ATOM      6  C   UNL     1       4.121   6.183  -1.659  0.00  0.00    +0.139 A 
ATOM      7  C   UNL     1       3.038   6.669  -2.384  0.00  0.00    +0.034 A 
ATOM      8  C   UNL     1       2.277   7.670  -1.831  0.00  0.00    +0.003 A 
ATOM      9  C   UNL     1       2.632   8.132  -0.569  0.00  0.00    +0.002 A 
ATOM     10  C   UNL     1       3.923   7.948  -0.122  0.00  0.00    +0.022 A 
ATOM     11  C   UNL     1       4.543   8.786   0.781  0.00  0.00    +0.100 A 
ATOM     12  C   UNL     1       3.739   9.721   1.425  0.00  0.00    +0.100 A 
ATOM     13  C   UNL     1       2.369   9.617   1.286  0.00  0.00    +0.021 A 
ATOM     14  N   UNL     1       4.556  10.341   2.274  0.00  0.00    -0.228 NA
ATOM     15  C   UNL     1       5.828  10.016   2.057  0.00  0.00    +0.157 A 
ATOM     16  N   UNL     1       5.798   9.296   0.900  0.00  0.00    -0.228 NA
ATOM     17  C   UNL     1       1.844   8.984   0.170  0.00  0.00    +0.002 A 
ATOM     18  C   UNL     1       4.686   6.913  -0.617  0.00  0.00    +0.038 A 
ATOM     19  C   UNL     1       3.039   6.342  -3.814  0.00  0.00    +0.002 A 
ATOM     20  C   UNL     1       2.376   7.192  -4.677  0.00  0.00    -0.000 A 
ATOM     21  C   UNL     1       2.462   6.904  -6.023  0.00  0.00    +0.002 A 
ENDROOT
BRANCH  15  22
ATOM     22  C   UNL     1       6.872  11.260   2.140  0.00  0.00    +0.134 C 
ATOM     23  N   UNL     1       5.780  12.290   1.655  0.00  0.00    -0.275 N 
ATOM     24  C   UNL     1       5.681  12.766   0.348  0.00  0.00    +0.246 C 
ATOM     25  O   UNL     1       4.510  12.753  -0.155  0.00  0.00    -0.273 OA
ATOM     26  C   UNL     1       5.524  13.183   2.904  0.00  0.00    +0.076 C 
ATOM     27  C   UNL     1       3.959  13.454   2.459  0.00  0.00    +0.022 C 
ATOM     28  C   UNL     1       5.116  11.838   3.749  0.00  0.00    +0.022 C 
ATOM     29  C   UNL     1       6.576  11.451   3.750  0.00  0.00    +0.029 C 
BRANCH  24  30
ATOM     30  C   UNL     1       6.284  14.224  -0.017  0.00  0.00    +0.175 C 
BRANCH  30  31
ATOM     31  C   UNL     1       5.287  14.420  -1.312  0.00  0.00    +0.029 C 
ATOM     32  C   UNL     1       4.396  15.510  -1.146  0.00  0.00    +0.002 C 
ATOM     33  C   UNL     1       6.101  14.289  -2.540  0.00  0.00    +0.002 C 
ENDBRANCH  30  31
BRANCH  30  34
ATOM     34  N   UNL     1       7.473  13.625  -0.869  0.00  0.00    -0.161 NA
ATOM     35  C   UNL     1       8.712  13.505  -0.254  0.00  0.00    +0.422 C 
ATOM     36  O   UNL     1       8.859  14.037   0.891  0.00  0.00    -0.225 OA
BRANCH  35  37
ATOM     37  O   UNL     1       9.821  13.281  -1.077  0.00  0.00    -0.429 OA
ATOM     38  C   UNL     1      10.660  14.421  -1.302  0.00  0.00    +0.257 C 
ENDBRANCH  35  37
ENDBRANCH  30  34
ENDBRANCH  24  30
ENDBRANCH  15  22
BRANCH   1  41
ATOM     39  C   UNL     1       3.596   5.750 -10.007  0.00  0.00    +0.157 A 
ATOM     40  N   UNL     1       3.666   6.378  -8.868  0.00  0.00    -0.227 NA
ATOM     41  C   UNL     1       3.355   5.568  -7.819  0.00  0.00    +0.102 A 
ATOM     42  C   UNL     1       3.742   4.312  -8.248  0.00  0.00    +0.119 A 
ATOM     43  N   UNL     1       3.628   4.433  -9.590  0.00  0.00    -0.226 NA
BRANCH  39  49
ATOM     44  C   UNL     1       6.288   5.976 -11.342  0.00  0.00    +0.052 C 
ATOM     45  C   UNL     1       5.658   5.490 -12.806  0.00  0.00    +0.096 C 
ATOM     46  N   UNL     1       4.232   5.397 -12.422  0.00  0.00    -0.273 N 
ATOM     47  C   UNL     1       3.110   6.115 -12.714  0.00  0.00    +0.250 C 
ATOM     48  O   UNL     1       2.467   7.029 -12.230  0.00  0.00    -0.273 OA
ATOM     49  C   UNL     1       4.863   5.570 -10.982  0.00  0.00    +0.134 C 
ATOM     50  C   UNL     1       5.175   7.189 -11.380  0.00  0.00    +0.032 C 
BRANCH  47  51
ATOM     51  C   UNL     1       2.724   5.688 -14.233  0.00  0.00    +0.197 C 
BRANCH  51  52
ATOM     52  C   UNL     1       1.662   4.544 -13.779  0.00  0.00    +0.006 A 
ATOM     53  C   UNL     1       1.889   3.283 -14.211  0.00  0.00    -0.002 A 
ATOM     54  C   UNL     1       0.809   2.408 -14.208  0.00  0.00    -0.000 A 
ATOM     55  C   UNL     1      -0.359   2.946 -14.736  0.00  0.00    -0.000 A 
ATOM     56  C   UNL     1      -0.465   4.322 -14.899  0.00  0.00    -0.000 A 
ATOM     57  C   UNL     1       0.388   5.045 -14.064  0.00  0.00    -0.002 A 
ENDBRANCH  51  52
BRANCH  51  58
ATOM     58  N   UNL     1       1.614   6.817 -14.334  0.00  0.00    -0.157 NA
ATOM     59  C   UNL     1       1.641   7.376 -15.602  0.00  0.00    +0.422 C 
ATOM     60  O   UNL     1       2.744   7.706 -16.122  0.00  0.00    -0.225 OA
BRANCH  59  61
ATOM     61  O   UNL     1       0.496   7.777 -16.278  0.00  0.00    -0.429 OA
ATOM     62  C   UNL     1       0.509   8.922 -17.117  0.00  0.00    +0.257 C 
ENDBRANCH  59  61
ENDBRANCH  51  58
ENDBRANCH  47  51
BRANCH  44  63
ATOM     63  C   UNL     1       7.681   6.623 -11.879  0.00  0.00    +0.144 C 
BRANCH  63  65
ATOM     64  C   UNL     1       8.369   5.038 -10.818  0.00  0.00    +0.174 C 
ATOM     65  O   UNL     1       8.158   5.311 -11.555  0.00  0.00    -0.351 OA
ENDBRANCH  63  65
ENDBRANCH  44  63
ENDBRANCH  39  49
ENDBRANCH   1  41
TORSDOF 13
ENDMDL
