MODEL 1
REMARK VINA RESULT:       2.1      0.000      0.000
REMARK  Name = 
REMARK  3 active torsions:
REMARK  status: ('A' for Active; 'I' for Inactive)
REMARK    1  A    between atoms: O_2  and  C_3
REMARK    2  A    between atoms: C_49  and  O_50
REMARK    3  A    between atoms: O_50  and  C_51
REMARK                            x       y       z     vdW  Elec       q    Type
REMARK                         _______ _______ _______ _____ _____    ______ ____
ROOT
ATOM      1  C   UNL     1       3.347   5.342  -9.065  0.00  0.00    +0.144 C 
ATOM      2  C   UNL     1       1.708   5.048  -9.434  0.00  0.00    +0.072 C 
ATOM      3  C   UNL     1       1.623   3.737  -8.520  0.00  0.00    +0.007 C 
ATOM      4  C   UNL     1       1.075   6.101  -8.283  0.00  0.00    +0.174 C 
ATOM      5  C   UNL     1      -0.465   5.401  -8.397  0.00  0.00    +0.071 C 
ATOM      6  C   UNL     1      -1.286   6.770  -8.551  0.00  0.00    +0.006 C 
ATOM      7  C   UNL     1      -0.460   5.342  -6.705  0.00  0.00    +0.158 C 
ATOM      8  O   UNL     1      -0.800   3.876  -6.708  0.00  0.00    -0.223 OA
ATOM      9  C   UNL     1      -2.083   5.734  -6.452  0.00  0.00    +0.061 C 
ATOM     10  C   UNL     1      -1.878   7.293  -6.129  0.00  0.00    +0.005 C 
ATOM     11  C   UNL     1      -1.952   5.193  -4.849  0.00  0.00    +0.158 C 
ATOM     12  O   UNL     1      -0.721   5.996  -4.559  0.00  0.00    -0.223 OA
ATOM     13  C   UNL     1      -3.045   6.343  -4.209  0.00  0.00    +0.053 C 
ATOM     14  C   UNL     1      -4.086   5.171  -3.781  0.00  0.00    +0.007 C 
ATOM     15  C   UNL     1      -2.451   6.409  -2.738  0.00  0.00    -0.024 C 
ATOM     16  C   UNL     1      -1.401   7.151  -2.775  0.00  0.00    -0.005 C 
ATOM     17  C   UNL     1      -0.910   7.822  -1.688  0.00  0.00    -0.000 C 
ATOM     18  C   UNL     1      -1.123   7.577  -0.451  0.00  0.00    +0.033 C 
ATOM     19  C   UNL     1      -1.788   8.484   0.554  0.00  0.00    +0.036 C 
ATOM     20  C   UNL     1      -1.413   6.133  -0.442  0.00  0.00    +0.265 C 
ATOM     21  O   UNL     1      -2.251   5.621   0.378  0.00  0.00    -0.268 OA
ATOM     22  N   UNL     1      -0.381   5.460  -1.100  0.00  0.00    -0.171 NA
ATOM     23  C   UNL     1       0.919   5.921  -0.812  0.00  0.00    +0.130 A 
ATOM     24  C   UNL     1       1.739   4.788  -1.023  0.00  0.00    +0.215 A 
ATOM     25  C   UNL     1       3.048   4.936  -1.461  0.00  0.00    +0.081 A 
ATOM     26  C   UNL     1       3.229   6.143  -2.161  0.00  0.00    +0.031 A 
ATOM     27  C   UNL     1       2.557   7.251  -1.650  0.00  0.00    +0.101 A 
ATOM     28  N   UNL     1       2.610   8.614  -1.698  0.00  0.00    -0.226 NA
ATOM     29  C   UNL     1       2.425   9.100  -0.444  0.00  0.00    +0.147 A 
ATOM     30  N   UNL     1       1.933   8.026   0.227  0.00  0.00    -0.288 N 
ATOM     31  C   UNL     1       1.913   8.038   1.582  0.00  0.00    +0.081 A 
ATOM     32  C   UNL     1       2.272   9.234   2.192  0.00  0.00    +0.015 A 
ATOM     33  C   UNL     1       3.096  10.155   1.556  0.00  0.00    -0.017 A 
ATOM     34  C   UNL     1       4.282  10.778   2.211  0.00  0.00    +0.031 C 
ATOM     35  C   UNL     1       2.866  10.244   0.188  0.00  0.00    +0.033 A 
ATOM     36  C   UNL     1       4.361   6.125  -2.944  0.00  0.00    +0.077 A 
ATOM     37  C   UNL     1       4.460   6.528  -4.360  0.00  0.00    +0.251 C 
ATOM     38  C   UNL     1       4.678   5.231  -5.017  0.00  0.00    +0.326 C 
ATOM     39  O   UNL     1       5.728   4.761  -4.168  0.00  0.00    -0.443 OA
ATOM     40  C   UNL     1       3.459   4.398  -4.710  0.00  0.00    +0.100 C 
ATOM     41  O   UNL     1       5.125   5.206  -6.306  0.00  0.00    -0.440 OA
ATOM     42  C   UNL     1       4.280   4.474  -7.157  0.00  0.00    +0.174 C 
ATOM     43  O   UNL     1       4.820   7.632  -4.874  0.00  0.00    -0.284 OA
ATOM     44  C   UNL     1       5.247   5.033  -2.879  0.00  0.00    +0.145 A 
ATOM     45  C   UNL     1       5.279   4.329  -1.674  0.00  0.00    +0.051 A 
ATOM     46  C   UNL     1       6.383   3.384  -1.444  0.00  0.00    +0.038 C 
ATOM     47  C   UNL     1       4.112   4.219  -0.920  0.00  0.00    +0.198 A 
ATOM     48  O   UNL     1       3.818   3.092  -0.160  0.00  0.00    -0.287 OA
ATOM     49  O   UNL     1       1.436   3.512  -0.556  0.00  0.00    -0.285 OA
ATOM     50  C   UNL     1       1.499   7.099  -0.699  0.00  0.00    +0.101 A 
ATOM     51  C   UNL     1       3.209   5.221  -7.453  0.00  0.00    +0.043 C 
ENDROOT
BRANCH   1  53
ATOM     52  C   UNL     1       4.195   7.342  -9.759  0.00  0.00    +0.174 C 
ATOM     53  O   UNL     1       3.193   6.850  -9.026  0.00  0.00    -0.349 OA
ENDBRANCH   1  53
BRANCH   4  54
ATOM     54  O   UNL     1       0.883   7.198  -9.314  0.00  0.00    -0.452 OA
BRANCH  54  55
ATOM     55  C   UNL     1       0.670   6.929 -10.615  0.00  0.00    +0.317 C 
ATOM     56  O   UNL     1       1.315   6.003 -11.166  0.00  0.00    -0.250 OA
ATOM     57  C   UNL     1      -0.464   7.637 -11.285  0.00  0.00    +0.121 C 
ENDBRANCH  54  55
ENDBRANCH   4  54
TORSDOF 3
ENDMDL
