MODEL 1
REMARK VINA RESULT:      -5.1      0.000      0.000
REMARK  Name = 
REMARK  12 active torsions:
REMARK  status: ('A' for Active; 'I' for Inactive)
REMARK    1  A    between atoms: C_2  and  C_3
REMARK    2  A    between atoms: C_3  and  C_4
REMARK    3  A    between atoms: C_4  and  C_5
REMARK    4  A    between atoms: C_5  and  C_6
REMARK    5  A    between atoms: C_6  and  C_7
REMARK    6  A    between atoms: C_7  and  C_8
REMARK    7  A    between atoms: C_8  and  C_9
REMARK    8  A    between atoms: C_9  and  C_10
REMARK    9  A    between atoms: C_10  and  C_11
REMARK   10  A    between atoms: C_11  and  C_12
REMARK   11  A    between atoms: C_12  and  O_13
REMARK   12  A    between atoms: O_13  and  S_14
REMARK                            x       y       z     vdW  Elec       q    Type
REMARK                         _______ _______ _______ _____ _____    ______ ____
ROOT
ATOM      1  C   UNL     1      -0.019   5.840  -6.484  0.00  0.00    +0.000 C 
ENDROOT
BRANCH   1   2
ATOM      2  C   UNL     1       0.704   4.776  -5.681  0.00  0.00    +0.003 C 
BRANCH   2   3
ATOM      3  C   UNL     1       0.950   5.216  -4.262  0.00  0.00    +0.035 C 
BRANCH   3   4
ATOM      4  C   UNL     1       1.318   6.674  -4.258  0.00  0.00    +0.172 C 
BRANCH   4   5
ATOM      5  O   UNL     1       2.613   6.830  -3.780  0.00  0.00    -0.241 OA
BRANCH   5   6
ATOM      6  S   UNL     1       3.748   6.985  -4.989  0.00  0.00    -0.000 S 
ATOM      7  O   UNL     1       3.081   7.526  -6.433  0.00  0.00    -0.268 OA
ATOM      8  O   UNL     1       4.779   8.012  -4.580  0.00  0.00    -0.345 OA
ATOM      9  O   UNL     1       4.488   5.686  -5.169  0.00  0.00    -0.345 OA
ENDBRANCH   5   6
ENDBRANCH   4   5
ENDBRANCH   3   4
ENDBRANCH   2   3
ENDBRANCH   1   2
BRANCH   1  10
ATOM     10  C   UNL     1      -1.291   5.316  -7.081  0.00  0.00    +0.000 C 
BRANCH  10  11
ATOM     11  C   UNL     1      -2.441   5.470  -6.098  0.00  0.00    +0.000 C 
BRANCH  11  12
ATOM     12  C   UNL     1      -2.390   6.894  -5.588  0.00  0.00    +0.000 C 
BRANCH  12  13
ATOM     13  C   UNL     1      -2.553   6.968  -4.095  0.00  0.00    +0.000 C 
BRANCH  13  14
ATOM     14  C   UNL     1      -2.877   5.624  -3.478  0.00  0.00    +0.000 C 
BRANCH  14  15
ATOM     15  C   UNL     1      -2.388   5.528  -2.059  0.00  0.00    +0.000 C 
BRANCH  15  17
ATOM     16  C   UNL     1      -0.347   6.245  -0.841  0.00  0.00    +0.000 C 
ATOM     17  C   UNL     1      -1.543   6.709  -1.645  0.00  0.00    +0.000 C 
ENDBRANCH  15  17
ENDBRANCH  14  15
ENDBRANCH  13  14
ENDBRANCH  12  13
ENDBRANCH  11  12
ENDBRANCH  10  11
ENDBRANCH   1  10
TORSDOF 12
ENDMDL
MODEL 2
REMARK VINA RESULT:      -4.9      3.463      6.018
REMARK  Name = 
REMARK  12 active torsions:
REMARK  status: ('A' for Active; 'I' for Inactive)
REMARK    1  A    between atoms: C_2  and  C_3
REMARK    2  A    between atoms: C_3  and  C_4
REMARK    3  A    between atoms: C_4  and  C_5
REMARK    4  A    between atoms: C_5  and  C_6
REMARK    5  A    between atoms: C_6  and  C_7
REMARK    6  A    between atoms: C_7  and  C_8
REMARK    7  A    between atoms: C_8  and  C_9
REMARK    8  A    between atoms: C_9  and  C_10
REMARK    9  A    between atoms: C_10  and  C_11
REMARK   10  A    between atoms: C_11  and  C_12
REMARK   11  A    between atoms: C_12  and  O_13
REMARK   12  A    between atoms: O_13  and  S_14
REMARK                            x       y       z     vdW  Elec       q    Type
REMARK                         _______ _______ _______ _____ _____    ______ ____
ROOT
ATOM      1  C   UNL     1      -1.355   5.189  -6.835  0.00  0.00    +0.000 C 
ENDROOT
BRANCH   1   2
ATOM      2  C   UNL     1      -2.448   5.768  -5.959  0.00  0.00    +0.003 C 
BRANCH   2   3
ATOM      3  C   UNL     1      -2.015   7.052  -5.300  0.00  0.00    +0.035 C 
BRANCH   3   4
ATOM      4  C   UNL     1      -2.421   7.020  -3.853  0.00  0.00    +0.172 C 
BRANCH   4   5
ATOM      5  O   UNL     1      -1.298   6.848  -3.054  0.00  0.00    -0.241 OA
BRANCH   5   6
ATOM      6  S   UNL     1      -1.474   5.639  -1.921  0.00  0.00    -0.000 S 
ATOM      7  O   UNL     1      -1.792   6.237  -0.385  0.00  0.00    -0.268 OA
ATOM      8  O   UNL     1      -2.651   4.768  -2.297  0.00  0.00    -0.345 OA
ATOM      9  O   UNL     1      -0.262   4.744  -1.931  0.00  0.00    -0.345 OA
ENDBRANCH   5   6
ENDBRANCH   4   5
ENDBRANCH   3   4
ENDBRANCH   2   3
ENDBRANCH   1   2
BRANCH   1  10
ATOM     10  C   UNL     1       0.001   5.687  -6.434  0.00  0.00    +0.000 C 
BRANCH  10  11
ATOM     11  C   UNL     1       0.818   4.562  -5.816  0.00  0.00    +0.000 C 
BRANCH  11  12
ATOM     12  C   UNL     1       1.749   5.202  -4.808  0.00  0.00    +0.000 C 
BRANCH  12  13
ATOM     13  C   UNL     1       3.196   4.986  -5.155  0.00  0.00    +0.000 C 
BRANCH  13  14
ATOM     14  C   UNL     1       3.742   6.063  -6.068  0.00  0.00    +0.000 C 
BRANCH  14  15
ATOM     15  C   UNL     1       4.526   5.481  -7.211  0.00  0.00    +0.000 C 
BRANCH  15  17
ATOM     16  C   UNL     1       3.142   4.118  -8.759  0.00  0.00    +0.000 C 
ATOM     17  C   UNL     1       3.759   5.479  -8.512  0.00  0.00    +0.000 C 
ENDBRANCH  15  17
ENDBRANCH  14  15
ENDBRANCH  13  14
ENDBRANCH  12  13
ENDBRANCH  11  12
ENDBRANCH  10  11
ENDBRANCH   1  10
TORSDOF 12
ENDMDL
MODEL 3
REMARK VINA RESULT:      -4.8      5.165      6.210
REMARK  Name = 
REMARK  12 active torsions:
REMARK  status: ('A' for Active; 'I' for Inactive)
REMARK    1  A    between atoms: C_2  and  C_3
REMARK    2  A    between atoms: C_3  and  C_4
REMARK    3  A    between atoms: C_4  and  C_5
REMARK    4  A    between atoms: C_5  and  C_6
REMARK    5  A    between atoms: C_6  and  C_7
REMARK    6  A    between atoms: C_7  and  C_8
REMARK    7  A    between atoms: C_8  and  C_9
REMARK    8  A    between atoms: C_9  and  C_10
REMARK    9  A    between atoms: C_10  and  C_11
REMARK   10  A    between atoms: C_11  and  C_12
REMARK   11  A    between atoms: C_12  and  O_13
REMARK   12  A    between atoms: O_13  and  S_14
REMARK                            x       y       z     vdW  Elec       q    Type
REMARK                         _______ _______ _______ _____ _____    ______ ____
ROOT
ATOM      1  C   UNL     1       3.863   5.670  -7.261  0.00  0.00    +0.000 C 
ENDROOT
BRANCH   1   2
ATOM      2  C   UNL     1       5.005   5.304  -8.189  0.00  0.00    +0.003 C 
BRANCH   2   3
ATOM      3  C   UNL     1       4.793   5.848  -9.579  0.00  0.00    +0.035 C 
BRANCH   3   4
ATOM      4  C   UNL     1       6.076   5.727 -10.353  0.00  0.00    +0.172 C 
BRANCH   4   5
ATOM      5  O   UNL     1       5.978   6.441 -11.540  0.00  0.00    -0.241 OA
BRANCH   5   6
ATOM      6  S   UNL     1       6.469   5.573 -12.874  0.00  0.00    -0.000 S 
ATOM      7  O   UNL     1       7.116   6.551 -14.077  0.00  0.00    -0.268 OA
ATOM      8  O   UNL     1       7.560   4.608 -12.470  0.00  0.00    -0.345 OA
ATOM      9  O   UNL     1       5.328   4.735 -13.390  0.00  0.00    -0.345 OA
ENDBRANCH   5   6
ENDBRANCH   4   5
ENDBRANCH   3   4
ENDBRANCH   2   3
ENDBRANCH   1   2
BRANCH   1  10
ATOM     10  C   UNL     1       3.086   6.846  -7.774  0.00  0.00    +0.000 C 
BRANCH  10  11
ATOM     11  C   UNL     1       1.624   6.732  -7.370  0.00  0.00    +0.000 C 
BRANCH  11  12
ATOM     12  C   UNL     1       1.362   5.268  -7.092  0.00  0.00    +0.000 C 
BRANCH  12  13
ATOM     13  C   UNL     1       0.124   5.060  -6.264  0.00  0.00    +0.000 C 
BRANCH  13  14
ATOM     14  C   UNL     1      -1.148   5.203  -7.072  0.00  0.00    +0.000 C 
BRANCH  14  15
ATOM     15  C   UNL     1      -2.210   5.952  -6.317  0.00  0.00    +0.000 C 
BRANCH  15  17
ATOM     16  C   UNL     1      -1.965   7.783  -4.657  0.00  0.00    +0.000 C 
ATOM     17  C   UNL     1      -1.797   6.299  -4.907  0.00  0.00    +0.000 C 
ENDBRANCH  15  17
ENDBRANCH  14  15
ENDBRANCH  13  14
ENDBRANCH  12  13
ENDBRANCH  11  12
ENDBRANCH  10  11
ENDBRANCH   1  10
TORSDOF 12
ENDMDL
MODEL 4
REMARK VINA RESULT:      -4.8      6.193      7.993
REMARK  Name = 
REMARK  12 active torsions:
REMARK  status: ('A' for Active; 'I' for Inactive)
REMARK    1  A    between atoms: C_2  and  C_3
REMARK    2  A    between atoms: C_3  and  C_4
REMARK    3  A    between atoms: C_4  and  C_5
REMARK    4  A    between atoms: C_5  and  C_6
REMARK    5  A    between atoms: C_6  and  C_7
REMARK    6  A    between atoms: C_7  and  C_8
REMARK    7  A    between atoms: C_8  and  C_9
REMARK    8  A    between atoms: C_9  and  C_10
REMARK    9  A    between atoms: C_10  and  C_11
REMARK   10  A    between atoms: C_11  and  C_12
REMARK   11  A    between atoms: C_12  and  O_13
REMARK   12  A    between atoms: O_13  and  S_14
REMARK                            x       y       z     vdW  Elec       q    Type
REMARK                         _______ _______ _______ _____ _____    ______ ____
ROOT
ATOM      1  C   UNL     1       4.039   6.248 -10.111  0.00  0.00    +0.000 C 
ENDROOT
BRANCH   1   2
ATOM      2  C   UNL     1       5.420   5.829  -9.646  0.00  0.00    +0.003 C 
BRANCH   2   3
ATOM      3  C   UNL     1       6.506   6.572 -10.379  0.00  0.00    +0.035 C 
BRANCH   3   4
ATOM      4  C   UNL     1       5.928   7.176 -11.629  0.00  0.00    +0.172 C 
BRANCH   4   5
ATOM      5  O   UNL     1       6.835   7.052 -12.674  0.00  0.00    -0.241 OA
BRANCH   5   6
ATOM      6  S   UNL     1       6.742   5.584 -13.456  0.00  0.00    -0.000 S 
ATOM      7  O   UNL     1       5.246   4.846 -13.266  0.00  0.00    -0.268 OA
ATOM      8  O   UNL     1       6.934   5.794 -14.940  0.00  0.00    -0.345 OA
ATOM      9  O   UNL     1       7.867   4.689 -13.003  0.00  0.00    -0.345 OA
ENDBRANCH   5   6
ENDBRANCH   4   5
ENDBRANCH   3   4
ENDBRANCH   2   3
ENDBRANCH   1   2
BRANCH   1  10
ATOM     10  C   UNL     1       3.265   6.921  -9.017  0.00  0.00    +0.000 C 
BRANCH  10  11
ATOM     11  C   UNL     1       3.179   6.019  -7.795  0.00  0.00    +0.000 C 
BRANCH  11  12
ATOM     12  C   UNL     1       2.186   4.926  -8.131  0.00  0.00    +0.000 C 
BRANCH  12  13
ATOM     13  C   UNL     1       0.777   5.311  -7.773  0.00  0.00    +0.000 C 
BRANCH  13  14
ATOM     14  C   UNL     1      -0.063   5.641  -8.988  0.00  0.00    +0.000 C 
BRANCH  14  15
ATOM     15  C   UNL     1       0.322   4.806 -10.177  0.00  0.00    +0.000 C 
BRANCH  15  17
ATOM     16  C   UNL     1      -0.050   7.024 -11.231  0.00  0.00    +0.000 C 
ATOM     17  C   UNL     1       0.450   5.611 -11.448  0.00  0.00    +0.000 C 
ENDBRANCH  15  17
ENDBRANCH  14  15
ENDBRANCH  13  14
ENDBRANCH  12  13
ENDBRANCH  11  12
ENDBRANCH  10  11
ENDBRANCH   1  10
TORSDOF 12
ENDMDL
MODEL 5
REMARK VINA RESULT:      -4.8      2.530      3.842
REMARK  Name = 
REMARK  12 active torsions:
REMARK  status: ('A' for Active; 'I' for Inactive)
REMARK    1  A    between atoms: C_2  and  C_3
REMARK    2  A    between atoms: C_3  and  C_4
REMARK    3  A    between atoms: C_4  and  C_5
REMARK    4  A    between atoms: C_5  and  C_6
REMARK    5  A    between atoms: C_6  and  C_7
REMARK    6  A    between atoms: C_7  and  C_8
REMARK    7  A    between atoms: C_8  and  C_9
REMARK    8  A    between atoms: C_9  and  C_10
REMARK    9  A    between atoms: C_10  and  C_11
REMARK   10  A    between atoms: C_11  and  C_12
REMARK   11  A    between atoms: C_12  and  O_13
REMARK   12  A    between atoms: O_13  and  S_14
REMARK                            x       y       z     vdW  Elec       q    Type
REMARK                         _______ _______ _______ _____ _____    ______ ____
ROOT
ATOM      1  C   UNL     1       3.089   7.032  -5.179  0.00  0.00    +0.000 C 
ENDROOT
BRANCH   1   2
ATOM      2  C   UNL     1       4.007   5.933  -5.678  0.00  0.00    +0.003 C 
BRANCH   2   3
ATOM      3  C   UNL     1       4.184   4.842  -4.653  0.00  0.00    +0.035 C 
BRANCH   3   4
ATOM      4  C   UNL     1       4.519   5.467  -3.327  0.00  0.00    +0.172 C 
BRANCH   4   5
ATOM      5  O   UNL     1       3.911   4.750  -2.304  0.00  0.00    -0.241 OA
BRANCH   5   6
ATOM      6  S   UNL     1       3.298   5.720  -1.096  0.00  0.00    -0.000 S 
ATOM      7  O   UNL     1       2.804   7.221  -1.663  0.00  0.00    -0.268 OA
ATOM      8  O   UNL     1       2.075   5.062  -0.497  0.00  0.00    -0.345 OA
ATOM      9  O   UNL     1       4.302   5.847   0.020  0.00  0.00    -0.345 OA
ENDBRANCH   5   6
ENDBRANCH   4   5
ENDBRANCH   3   4
ENDBRANCH   2   3
ENDBRANCH   1   2
BRANCH   1  10
ATOM     10  C   UNL     1       1.671   6.558  -5.058  0.00  0.00    +0.000 C 
BRANCH  10  11
ATOM     11  C   UNL     1       1.098   6.245  -6.432  0.00  0.00    +0.000 C 
BRANCH  11  12
ATOM     12  C   UNL     1       0.048   5.174  -6.232  0.00  0.00    +0.000 C 
BRANCH  12  13
ATOM     13  C   UNL     1      -1.141   5.369  -7.132  0.00  0.00    +0.000 C 
BRANCH  13  14
ATOM     14  C   UNL     1      -2.408   5.678  -6.364  0.00  0.00    +0.000 C 
BRANCH  14  15
ATOM     15  C   UNL     1      -2.170   5.703  -4.880  0.00  0.00    +0.000 C 
BRANCH  15  17
ATOM     16  C   UNL     1      -1.735   8.132  -4.592  0.00  0.00    +0.000 C 
ATOM     17  C   UNL     1      -2.647   6.979  -4.228  0.00  0.00    +0.000 C 
ENDBRANCH  15  17
ENDBRANCH  14  15
ENDBRANCH  13  14
ENDBRANCH  12  13
ENDBRANCH  11  12
ENDBRANCH  10  11
ENDBRANCH   1  10
TORSDOF 12
ENDMDL
MODEL 6
REMARK VINA RESULT:      -4.8      5.721      8.241
REMARK  Name = 
REMARK  12 active torsions:
REMARK  status: ('A' for Active; 'I' for Inactive)
REMARK    1  A    between atoms: C_2  and  C_3
REMARK    2  A    between atoms: C_3  and  C_4
REMARK    3  A    between atoms: C_4  and  C_5
REMARK    4  A    between atoms: C_5  and  C_6
REMARK    5  A    between atoms: C_6  and  C_7
REMARK    6  A    between atoms: C_7  and  C_8
REMARK    7  A    between atoms: C_8  and  C_9
REMARK    8  A    between atoms: C_9  and  C_10
REMARK    9  A    between atoms: C_10  and  C_11
REMARK   10  A    between atoms: C_11  and  C_12
REMARK   11  A    between atoms: C_12  and  O_13
REMARK   12  A    between atoms: O_13  and  S_14
REMARK                            x       y       z     vdW  Elec       q    Type
REMARK                         _______ _______ _______ _____ _____    ______ ____
ROOT
ATOM      1  C   UNL     1       1.897   7.155  -7.773  0.00  0.00    +0.000 C 
ENDROOT
BRANCH   1   2
ATOM      2  C   UNL     1       1.142   6.018  -7.114  0.00  0.00    +0.003 C 
BRANCH   2   3
ATOM      3  C   UNL     1       0.617   6.408  -5.756  0.00  0.00    +0.035 C 
BRANCH   3   4
ATOM      4  C   UNL     1      -0.341   5.352  -5.280  0.00  0.00    +0.172 C 
BRANCH   4   5
ATOM      5  O   UNL     1      -1.416   5.949  -4.633  0.00  0.00    -0.241 OA
BRANCH   5   6
ATOM      6  S   UNL     1      -1.495   5.580  -3.011  0.00  0.00    -0.000 S 
ATOM      7  O   UNL     1      -0.082   4.876  -2.440  0.00  0.00    -0.268 OA
ATOM      8  O   UNL     1      -1.696   6.851  -2.217  0.00  0.00    -0.345 OA
ATOM      9  O   UNL     1      -2.698   4.714  -2.739  0.00  0.00    -0.345 OA
ENDBRANCH   5   6
ENDBRANCH   4   5
ENDBRANCH   3   4
ENDBRANCH   2   3
ENDBRANCH   1   2
BRANCH   1  10
ATOM     10  C   UNL     1       3.136   6.671  -8.467  0.00  0.00    +0.000 C 
BRANCH  10  11
ATOM     11  C   UNL     1       4.056   5.968  -7.480  0.00  0.00    +0.000 C 
BRANCH  11  12
ATOM     12  C   UNL     1       5.036   5.157  -8.300  0.00  0.00    +0.000 C 
BRANCH  12  13
ATOM     13  C   UNL     1       5.519   5.907  -9.511  0.00  0.00    +0.000 C 
BRANCH  13  14
ATOM     14  C   UNL     1       7.028   5.905  -9.633  0.00  0.00    +0.000 C 
BRANCH  14  15
ATOM     15  C   UNL     1       7.515   6.984 -10.559  0.00  0.00    +0.000 C 
BRANCH  15  17
ATOM     16  C   UNL     1       8.852   5.734 -12.238  0.00  0.00    +0.000 C 
ATOM     17  C   UNL     1       7.591   6.536 -11.999  0.00  0.00    +0.000 C 
ENDBRANCH  15  17
ENDBRANCH  14  15
ENDBRANCH  13  14
ENDBRANCH  12  13
ENDBRANCH  11  12
ENDBRANCH  10  11
ENDBRANCH   1  10
TORSDOF 12
ENDMDL
MODEL 7
REMARK VINA RESULT:      -4.8      3.282      5.337
REMARK  Name = 
REMARK  12 active torsions:
REMARK  status: ('A' for Active; 'I' for Inactive)
REMARK    1  A    between atoms: C_2  and  C_3
REMARK    2  A    between atoms: C_3  and  C_4
REMARK    3  A    between atoms: C_4  and  C_5
REMARK    4  A    between atoms: C_5  and  C_6
REMARK    5  A    between atoms: C_6  and  C_7
REMARK    6  A    between atoms: C_7  and  C_8
REMARK    7  A    between atoms: C_8  and  C_9
REMARK    8  A    between atoms: C_9  and  C_10
REMARK    9  A    between atoms: C_10  and  C_11
REMARK   10  A    between atoms: C_11  and  C_12
REMARK   11  A    between atoms: C_12  and  O_13
REMARK   12  A    between atoms: O_13  and  S_14
REMARK                            x       y       z     vdW  Elec       q    Type
REMARK                         _______ _______ _______ _____ _____    ______ ____
ROOT
ATOM      1  C   UNL     1      -1.425   5.405  -6.884  0.00  0.00    +0.000 C 
ENDROOT
BRANCH   1   2
ATOM      2  C   UNL     1      -2.102   5.685  -5.556  0.00  0.00    +0.003 C 
BRANCH   2   3
ATOM      3  C   UNL     1      -1.869   7.101  -5.097  0.00  0.00    +0.035 C 
BRANCH   3   4
ATOM      4  C   UNL     1      -2.192   7.200  -3.632  0.00  0.00    +0.172 C 
BRANCH   4   5
ATOM      5  O   UNL     1      -1.058   6.919  -2.881  0.00  0.00    -0.241 OA
BRANCH   5   6
ATOM      6  S   UNL     1      -1.276   5.671  -1.799  0.00  0.00    -0.000 S 
ATOM      7  O   UNL     1      -2.634   4.746  -2.149  0.00  0.00    -0.268 OA
ATOM      8  O   UNL     1      -0.089   4.737  -1.865  0.00  0.00    -0.345 OA
ATOM      9  O   UNL     1      -1.316   6.210  -0.393  0.00  0.00    -0.345 OA
ENDBRANCH   5   6
ENDBRANCH   4   5
ENDBRANCH   3   4
ENDBRANCH   2   3
ENDBRANCH   1   2
BRANCH   1  10
ATOM     10  C   UNL     1       0.062   5.579  -6.797  0.00  0.00    +0.000 C 
BRANCH  10  11
ATOM     11  C   UNL     1       0.662   4.553  -5.848  0.00  0.00    +0.000 C 
BRANCH  11  12
ATOM     12  C   UNL     1       1.708   5.278  -5.029  0.00  0.00    +0.000 C 
BRANCH  12  13
ATOM     13  C   UNL     1       3.088   4.723  -5.252  0.00  0.00    +0.000 C 
BRANCH  13  14
ATOM     14  C   UNL     1       3.968   4.842  -4.026  0.00  0.00    +0.000 C 
BRANCH  14  15
ATOM     15  C   UNL     1       3.590   6.026  -3.180  0.00  0.00    +0.000 C 
BRANCH  15  17
ATOM     16  C   UNL     1       5.019   7.770  -4.220  0.00  0.00    +0.000 C 
ATOM     17  C   UNL     1       4.737   6.983  -2.958  0.00  0.00    +0.000 C 
ENDBRANCH  15  17
ENDBRANCH  14  15
ENDBRANCH  13  14
ENDBRANCH  12  13
ENDBRANCH  11  12
ENDBRANCH  10  11
ENDBRANCH   1  10
TORSDOF 12
ENDMDL
MODEL 8
REMARK VINA RESULT:      -4.7      5.591      7.009
REMARK  Name = 
REMARK  12 active torsions:
REMARK  status: ('A' for Active; 'I' for Inactive)
REMARK    1  A    between atoms: C_2  and  C_3
REMARK    2  A    between atoms: C_3  and  C_4
REMARK    3  A    between atoms: C_4  and  C_5
REMARK    4  A    between atoms: C_5  and  C_6
REMARK    5  A    between atoms: C_6  and  C_7
REMARK    6  A    between atoms: C_7  and  C_8
REMARK    7  A    between atoms: C_8  and  C_9
REMARK    8  A    between atoms: C_9  and  C_10
REMARK    9  A    between atoms: C_10  and  C_11
REMARK   10  A    between atoms: C_11  and  C_12
REMARK   11  A    between atoms: C_12  and  O_13
REMARK   12  A    between atoms: O_13  and  S_14
REMARK                            x       y       z     vdW  Elec       q    Type
REMARK                         _______ _______ _______ _____ _____    ______ ____
ROOT
ATOM      1  C   UNL     1       5.348   5.411  -9.001  0.00  0.00    +0.000 C 
ENDROOT
BRANCH   1   2
ATOM      2  C   UNL     1       4.465   6.027 -10.068  0.00  0.00    +0.003 C 
BRANCH   2   3
ATOM      3  C   UNL     1       5.096   7.252 -10.677  0.00  0.00    +0.035 C 
BRANCH   3   4
ATOM      4  C   UNL     1       5.861   6.848 -11.908  0.00  0.00    +0.172 C 
BRANCH   4   5
ATOM      5  O   UNL     1       7.216   7.089 -11.718  0.00  0.00    -0.241 OA
BRANCH   5   6
ATOM      6  S   UNL     1       8.150   5.713 -11.815  0.00  0.00    -0.000 S 
ATOM      7  O   UNL     1       7.535   4.593 -12.906  0.00  0.00    -0.268 OA
ATOM      8  O   UNL     1       9.532   6.078 -12.305  0.00  0.00    -0.345 OA
ATOM      9  O   UNL     1       8.328   5.115 -10.444  0.00  0.00    -0.345 OA
ENDBRANCH   5   6
ENDBRANCH   4   5
ENDBRANCH   3   4
ENDBRANCH   2   3
ENDBRANCH   1   2
BRANCH   1  10
ATOM     10  C   UNL     1       4.831   5.692  -7.621  0.00  0.00    +0.000 C 
BRANCH  10  11
ATOM     11  C   UNL     1       3.381   5.250  -7.498  0.00  0.00    +0.000 C 
BRANCH  11  12
ATOM     12  C   UNL     1       2.637   6.381  -6.820  0.00  0.00    +0.000 C 
BRANCH  12  13
ATOM     13  C   UNL     1       1.479   6.873  -7.643  0.00  0.00    +0.000 C 
BRANCH  13  14
ATOM     14  C   UNL     1       0.910   5.801  -8.547  0.00  0.00    +0.000 C 
BRANCH  14  15
ATOM     15  C   UNL     1      -0.512   5.467  -8.192  0.00  0.00    +0.000 C 
BRANCH  15  17
ATOM     16  C   UNL     1      -2.047   5.776  -6.264  0.00  0.00    +0.000 C 
ATOM     17  C   UNL     1      -0.710   5.226  -6.714  0.00  0.00    +0.000 C 
ENDBRANCH  15  17
ENDBRANCH  14  15
ENDBRANCH  13  14
ENDBRANCH  12  13
ENDBRANCH  11  12
ENDBRANCH  10  11
ENDBRANCH   1  10
TORSDOF 12
ENDMDL
MODEL 9
REMARK VINA RESULT:      -4.7      5.108      7.659
REMARK  Name = 
REMARK  12 active torsions:
REMARK  status: ('A' for Active; 'I' for Inactive)
REMARK    1  A    between atoms: C_2  and  C_3
REMARK    2  A    between atoms: C_3  and  C_4
REMARK    3  A    between atoms: C_4  and  C_5
REMARK    4  A    between atoms: C_5  and  C_6
REMARK    5  A    between atoms: C_6  and  C_7
REMARK    6  A    between atoms: C_7  and  C_8
REMARK    7  A    between atoms: C_8  and  C_9
REMARK    8  A    between atoms: C_9  and  C_10
REMARK    9  A    between atoms: C_10  and  C_11
REMARK   10  A    between atoms: C_11  and  C_12
REMARK   11  A    between atoms: C_12  and  O_13
REMARK   12  A    between atoms: O_13  and  S_14
REMARK                            x       y       z     vdW  Elec       q    Type
REMARK                         _______ _______ _______ _____ _____    ______ ____
ROOT
ATOM      1  C   UNL     1       0.419   5.099  -6.863  0.00  0.00    +0.000 C 
ENDROOT
BRANCH   1   2
ATOM      2  C   UNL     1      -0.955   5.406  -7.427  0.00  0.00    +0.003 C 
BRANCH   2   3
ATOM      3  C   UNL     1      -1.999   5.487  -6.344  0.00  0.00    +0.035 C 
BRANCH   3   4
ATOM      4  C   UNL     1      -1.609   6.563  -5.368  0.00  0.00    +0.172 C 
BRANCH   4   5
ATOM      5  O   UNL     1      -2.532   6.614  -4.331  0.00  0.00    -0.241 OA
BRANCH   5   6
ATOM      6  S   UNL     1      -1.997   5.880  -2.935  0.00  0.00    -0.000 S 
ATOM      7  O   UNL     1      -2.091   6.892  -1.598  0.00  0.00    -0.268 OA
ATOM      8  O   UNL     1      -2.868   4.683  -2.632  0.00  0.00    -0.345 OA
ATOM      9  O   UNL     1      -0.601   5.350  -3.136  0.00  0.00    -0.345 OA
ENDBRANCH   5   6
ENDBRANCH   4   5
ENDBRANCH   3   4
ENDBRANCH   2   3
ENDBRANCH   1   2
BRANCH   1  10
ATOM     10  C   UNL     1       1.482   5.181  -7.918  0.00  0.00    +0.000 C 
BRANCH  10  11
ATOM     11  C   UNL     1       2.851   4.909  -7.312  0.00  0.00    +0.000 C 
BRANCH  11  12
ATOM     12  C   UNL     1       3.780   4.588  -8.463  0.00  0.00    +0.000 C 
BRANCH  12  13
ATOM     13  C   UNL     1       5.106   5.285  -8.333  0.00  0.00    +0.000 C 
BRANCH  13  14
ATOM     14  C   UNL     1       5.568   5.905  -9.635  0.00  0.00    +0.000 C 
BRANCH  14  15
ATOM     15  C   UNL     1       7.059   5.813  -9.800  0.00  0.00    +0.000 C 
BRANCH  15  17
ATOM     16  C   UNL     1       6.549   7.823 -11.165  0.00  0.00    +0.000 C 
ATOM     17  C   UNL     1       7.647   6.996 -10.531  0.00  0.00    +0.000 C 
ENDBRANCH  15  17
ENDBRANCH  14  15
ENDBRANCH  13  14
ENDBRANCH  12  13
ENDBRANCH  11  12
ENDBRANCH  10  11
ENDBRANCH   1  10
TORSDOF 12
ENDMDL
