MODEL 1
REMARK VINA RESULT:      -8.2      0.000      0.000
REMARK  Name = 
REMARK  6 active torsions:
REMARK  status: ('A' for Active; 'I' for Inactive)
REMARK    1  A    between atoms: C_3  and  O_4
REMARK    2  A    between atoms: O_4  and  C_5
REMARK    3  A    between atoms: C_5  and  C_6
REMARK    4  A    between atoms: C_13  and  C_14
REMARK    5  A    between atoms: C_14  and  S_15
REMARK    6  A    between atoms: S_15  and  C_17
REMARK                            x       y       z     vdW  Elec       q    Type
REMARK                         _______ _______ _______ _____ _____    ______ ____
ROOT
ATOM      1  C   UNL     1       2.126   7.432  -7.770  0.00  0.00    +0.035 C 
ATOM      2  C   UNL     1       3.118   6.621  -8.279  0.00  0.00    +0.027 A 
ATOM      3  C   UNL     1       3.968   5.997  -7.376  0.00  0.00    +0.072 A 
ATOM      4  N   UNL     1       5.025   5.286  -7.829  0.00  0.00    -0.247 NA
ATOM      5  C   UNL     1       5.251   5.217  -9.155  0.00  0.00    +0.102 A 
ATOM      6  C   UNL     1       4.203   5.413 -10.023  0.00  0.00    +0.057 A 
ATOM      7  C   UNL     1       3.168   6.213  -9.605  0.00  0.00    +0.138 A 
ENDROOT
BRANCH   3   8
ATOM      8  C   UNL     1       3.923   6.403  -5.943  0.00  0.00    +0.145 C 
BRANCH   8   9
ATOM      9  S   UNL     1       3.436   4.931  -4.948  0.00  0.00    +0.107 S 
ATOM     10  O   UNL     1       3.796   5.448  -3.523  0.00  0.00    -0.248 OA
BRANCH   9  11
ATOM     11  C   UNL     1       1.636   5.116  -4.969  0.00  0.00    +0.221 A 
ATOM     12  N   UNL     1       0.860   5.848  -4.181  0.00  0.00    -0.218 NA
ATOM     13  C   UNL     1      -0.376   5.934  -4.719  0.00  0.00    +0.101 A 
ATOM     14  C   UNL     1      -0.375   5.140  -5.834  0.00  0.00    +0.101 A 
ATOM     15  C   UNL     1      -1.480   5.189  -6.673  0.00  0.00    +0.021 A 
ATOM     16  C   UNL     1      -2.571   5.982  -6.386  0.00  0.00    +0.002 A 
ATOM     17  C   UNL     1      -2.437   6.877  -5.349  0.00  0.00    +0.002 A 
ATOM     18  C   UNL     1      -1.368   6.868  -4.481  0.00  0.00    +0.021 A 
ATOM     19  N   UNL     1       0.867   4.621  -5.958  0.00  0.00    -0.218 NA
ENDBRANCH   9  11
ENDBRANCH   8   9
ENDBRANCH   3   8
BRANCH   7  20
ATOM     20  O   UNL     1       2.144   6.651 -10.422  0.00  0.00    -0.467 OA
BRANCH  20  21
ATOM     21  C   UNL     1       1.440   5.840 -11.328  0.00  0.00    +0.308 C 
BRANCH  21  22
ATOM     22  C   UNL     1       0.378   5.004 -10.660  0.00  0.00    +0.438 C 
ATOM     23  F   UNL     1       0.944   3.875 -10.092  0.00  0.00    -0.166 F 
ATOM     24  F   UNL     1      -0.642   4.648 -11.506  0.00  0.00    -0.166 F 
ATOM     25  F   UNL     1      -0.171   5.765  -9.645  0.00  0.00    -0.166 F 
ENDBRANCH  21  22
ENDBRANCH  20  21
ENDBRANCH   7  20
TORSDOF 6
ENDMDL
MODEL 2
REMARK VINA RESULT:      -7.9      3.242      7.030
REMARK  Name = 
REMARK  6 active torsions:
REMARK  status: ('A' for Active; 'I' for Inactive)
REMARK    1  A    between atoms: C_3  and  O_4
REMARK    2  A    between atoms: O_4  and  C_5
REMARK    3  A    between atoms: C_5  and  C_6
REMARK    4  A    between atoms: C_13  and  C_14
REMARK    5  A    between atoms: C_14  and  S_15
REMARK    6  A    between atoms: S_15  and  C_17
REMARK                            x       y       z     vdW  Elec       q    Type
REMARK                         _______ _______ _______ _____ _____    ______ ____
ROOT
ATOM      1  C   UNL     1       2.574   7.576  -7.705  0.00  0.00    +0.035 C 
ATOM      2  C   UNL     1       1.539   6.726  -7.374  0.00  0.00    +0.027 A 
ATOM      3  C   UNL     1       0.786   6.192  -8.411  0.00  0.00    +0.072 A 
ATOM      4  N   UNL     1      -0.308   5.448  -8.133  0.00  0.00    -0.247 NA
ATOM      5  C   UNL     1      -0.666   5.258  -6.848  0.00  0.00    +0.102 A 
ATOM      6  C   UNL     1       0.290   5.368  -5.866  0.00  0.00    +0.057 A 
ATOM      7  C   UNL     1       1.358   6.198  -6.103  0.00  0.00    +0.138 A 
ENDROOT
BRANCH   3   8
ATOM      8  C   UNL     1       0.972   6.728  -9.789  0.00  0.00    +0.145 C 
BRANCH   8   9
ATOM      9  S   UNL     1       1.443   5.326 -10.887  0.00  0.00    +0.107 S 
ATOM     10  O   UNL     1       0.998   5.910 -12.262  0.00  0.00    -0.248 OA
BRANCH   9  11
ATOM     11  C   UNL     1       3.236   5.559 -10.947  0.00  0.00    +0.221 A 
ATOM     12  N   UNL     1       3.953   6.355 -11.728  0.00  0.00    -0.218 NA
ATOM     13  C   UNL     1       5.212   6.444 -11.249  0.00  0.00    +0.101 A 
ATOM     14  C   UNL     1       5.289   5.586 -10.184  0.00  0.00    +0.101 A 
ATOM     15  C   UNL     1       6.434   5.617  -9.401  0.00  0.00    +0.021 A 
ATOM     16  C   UNL     1       7.489   6.454  -9.695  0.00  0.00    +0.002 A 
ATOM     17  C   UNL     1       7.280   7.403 -10.669  0.00  0.00    +0.002 A 
ATOM     18  C   UNL     1       6.168   7.416 -11.481  0.00  0.00    +0.021 A 
ATOM     19  N   UNL     1       4.067   5.028 -10.028  0.00  0.00    -0.218 NA
ENDBRANCH   9  11
ENDBRANCH   8   9
ENDBRANCH   3   8
BRANCH   7  20
ATOM     20  O   UNL     1       2.294   6.554  -5.151  0.00  0.00    -0.467 OA
BRANCH  20  21
ATOM     21  C   UNL     1       3.144   5.652  -4.488  0.00  0.00    +0.308 C 
BRANCH  21  22
ATOM     22  C   UNL     1       4.504   5.553  -5.130  0.00  0.00    +0.438 C 
ATOM     23  F   UNL     1       5.156   6.773  -5.062  0.00  0.00    -0.166 F 
ATOM     24  F   UNL     1       4.459   5.112  -6.429  0.00  0.00    -0.166 F 
ATOM     25  F   UNL     1       5.238   4.634  -4.405  0.00  0.00    -0.166 F 
ENDBRANCH  21  22
ENDBRANCH  20  21
ENDBRANCH   7  20
TORSDOF 6
ENDMDL
MODEL 3
REMARK VINA RESULT:      -7.9      3.731      7.566
REMARK  Name = 
REMARK  6 active torsions:
REMARK  status: ('A' for Active; 'I' for Inactive)
REMARK    1  A    between atoms: C_3  and  O_4
REMARK    2  A    between atoms: O_4  and  C_5
REMARK    3  A    between atoms: C_5  and  C_6
REMARK    4  A    between atoms: C_13  and  C_14
REMARK    5  A    between atoms: C_14  and  S_15
REMARK    6  A    between atoms: S_15  and  C_17
REMARK                            x       y       z     vdW  Elec       q    Type
REMARK                         _______ _______ _______ _____ _____    ______ ____
ROOT
ATOM      1  C   UNL     1       1.542   6.219  -4.528  0.00  0.00    +0.035 C 
ATOM      2  C   UNL     1       0.386   5.938  -5.226  0.00  0.00    +0.027 A 
ATOM      3  C   UNL     1       0.513   5.514  -6.541  0.00  0.00    +0.072 A 
ATOM      4  N   UNL     1      -0.592   5.339  -7.300  0.00  0.00    -0.247 NA
ATOM      5  C   UNL     1      -1.802   5.605  -6.772  0.00  0.00    +0.102 A 
ATOM      6  C   UNL     1      -1.960   5.559  -5.407  0.00  0.00    +0.057 A 
ATOM      7  C   UNL     1      -0.862   5.831  -4.627  0.00  0.00    +0.138 A 
ENDROOT
BRANCH   3   8
ATOM      8  C   UNL     1       1.845   5.603  -7.202  0.00  0.00    +0.145 C 
BRANCH   8   9
ATOM      9  S   UNL     1       1.731   6.857  -8.548  0.00  0.00    +0.107 S 
ATOM     10  O   UNL     1       2.035   8.148  -7.728  0.00  0.00    -0.248 OA
BRANCH   9  11
ATOM     11  C   UNL     1       3.307   6.567  -9.386  0.00  0.00    +0.221 A 
ATOM     12  N   UNL     1       3.807   7.161 -10.461  0.00  0.00    -0.218 NA
ATOM     13  C   UNL     1       5.119   6.860 -10.574  0.00  0.00    +0.101 A 
ATOM     14  C   UNL     1       5.404   5.965  -9.578  0.00  0.00    +0.101 A 
ATOM     15  C   UNL     1       6.733   5.626  -9.364  0.00  0.00    +0.021 A 
ATOM     16  C   UNL     1       7.745   6.138 -10.149  0.00  0.00    +0.002 A 
ATOM     17  C   UNL     1       7.411   7.154 -11.014  0.00  0.00    +0.002 A 
ATOM     18  C   UNL     1       6.110   7.526 -11.272  0.00  0.00    +0.021 A 
ATOM     19  N   UNL     1       4.268   5.775  -8.870  0.00  0.00    -0.218 NA
ENDBRANCH   9  11
ENDBRANCH   8   9
ENDBRANCH   3   8
BRANCH   7  20
ATOM     20  O   UNL     1      -0.905   6.005  -3.257  0.00  0.00    -0.467 OA
BRANCH  20  21
ATOM     21  C   UNL     1      -1.989   5.647  -2.438  0.00  0.00    +0.308 C 
BRANCH  21  22
ATOM     22  C   UNL     1      -2.824   6.831  -2.023  0.00  0.00    +0.438 C 
ATOM     23  F   UNL     1      -2.686   7.062  -0.665  0.00  0.00    -0.166 F 
ATOM     24  F   UNL     1      -4.151   6.698  -2.349  0.00  0.00    -0.166 F 
ATOM     25  F   UNL     1      -2.340   7.936  -2.697  0.00  0.00    -0.166 F 
ENDBRANCH  21  22
ENDBRANCH  20  21
ENDBRANCH   7  20
TORSDOF 6
ENDMDL
MODEL 4
REMARK VINA RESULT:      -7.8      3.712      7.358
REMARK  Name = 
REMARK  6 active torsions:
REMARK  status: ('A' for Active; 'I' for Inactive)
REMARK    1  A    between atoms: C_3  and  O_4
REMARK    2  A    between atoms: O_4  and  C_5
REMARK    3  A    between atoms: C_5  and  C_6
REMARK    4  A    between atoms: C_13  and  C_14
REMARK    5  A    between atoms: C_14  and  S_15
REMARK    6  A    between atoms: S_15  and  C_17
REMARK                            x       y       z     vdW  Elec       q    Type
REMARK                         _______ _______ _______ _____ _____    ______ ____
ROOT
ATOM      1  C   UNL     1      -1.135   5.265  -7.090  0.00  0.00    +0.035 C 
ATOM      2  C   UNL     1      -0.290   5.390  -6.007  0.00  0.00    +0.027 A 
ATOM      3  C   UNL     1       1.072   5.492  -6.258  0.00  0.00    +0.072 A 
ATOM      4  N   UNL     1       1.946   5.498  -5.228  0.00  0.00    -0.247 NA
ATOM      5  C   UNL     1       1.482   5.379  -3.969  0.00  0.00    +0.102 A 
ATOM      6  C   UNL     1       0.184   5.746  -3.699  0.00  0.00    +0.057 A 
ATOM      7  C   UNL     1      -0.732   5.650  -4.717  0.00  0.00    +0.138 A 
ENDROOT
BRANCH   3   8
ATOM      8  C   UNL     1       1.572   5.233  -7.638  0.00  0.00    +0.145 C 
BRANCH   8   9
ATOM      9  S   UNL     1       1.775   6.858  -8.484  0.00  0.00    +0.107 S 
ATOM     10  O   UNL     1       2.228   7.728  -7.273  0.00  0.00    -0.248 OA
BRANCH   9  11
ATOM     11  C   UNL     1       3.340   6.573  -9.345  0.00  0.00    +0.221 A 
ATOM     12  N   UNL     1       3.824   7.171 -10.424  0.00  0.00    -0.218 NA
ATOM     13  C   UNL     1       5.134   6.873 -10.557  0.00  0.00    +0.101 A 
ATOM     14  C   UNL     1       5.435   5.976  -9.568  0.00  0.00    +0.101 A 
ATOM     15  C   UNL     1       6.767   5.638  -9.374  0.00  0.00    +0.021 A 
ATOM     16  C   UNL     1       7.767   6.154 -10.171  0.00  0.00    +0.002 A 
ATOM     17  C   UNL     1       7.419   7.173 -11.028  0.00  0.00    +0.002 A 
ATOM     18  C   UNL     1       6.115   7.543 -11.266  0.00  0.00    +0.021 A 
ATOM     19  N   UNL     1       4.309   5.780  -8.845  0.00  0.00    -0.218 NA
ENDBRANCH   9  11
ENDBRANCH   8   9
ENDBRANCH   3   8
BRANCH   7  20
ATOM     20  O   UNL     1      -2.096   5.802  -4.553  0.00  0.00    -0.467 OA
BRANCH  20  21
ATOM     21  C   UNL     1      -2.820   5.368  -3.430  0.00  0.00    +0.308 C 
BRANCH  21  22
ATOM     22  C   UNL     1      -3.180   6.495  -2.496  0.00  0.00    +0.438 C 
ATOM     23  F   UNL     1      -2.634   6.270  -1.243  0.00  0.00    -0.166 F 
ATOM     24  F   UNL     1      -4.533   6.702  -2.393  0.00  0.00    -0.166 F 
ATOM     25  F   UNL     1      -2.621   7.651  -3.006  0.00  0.00    -0.166 F 
ENDBRANCH  21  22
ENDBRANCH  20  21
ENDBRANCH   7  20
TORSDOF 6
ENDMDL
MODEL 5
REMARK VINA RESULT:      -7.6      3.234      7.242
REMARK  Name = 
REMARK  6 active torsions:
REMARK  status: ('A' for Active; 'I' for Inactive)
REMARK    1  A    between atoms: C_3  and  O_4
REMARK    2  A    between atoms: O_4  and  C_5
REMARK    3  A    between atoms: C_5  and  C_6
REMARK    4  A    between atoms: C_13  and  C_14
REMARK    5  A    between atoms: C_14  and  S_15
REMARK    6  A    between atoms: S_15  and  C_17
REMARK                            x       y       z     vdW  Elec       q    Type
REMARK                         _______ _______ _______ _____ _____    ______ ____
ROOT
ATOM      1  C   UNL     1       0.505   5.906  -7.127  0.00  0.00    +0.035 C 
ATOM      2  C   UNL     1       1.433   6.365  -6.216  0.00  0.00    +0.027 A 
ATOM      3  C   UNL     1       2.638   6.848  -6.710  0.00  0.00    +0.072 A 
ATOM      4  N   UNL     1       3.622   7.200  -5.852  0.00  0.00    -0.247 NA
ATOM      5  C   UNL     1       3.425   7.051  -4.528  0.00  0.00    +0.102 A 
ATOM      6  C   UNL     1       2.139   7.034  -4.041  0.00  0.00    +0.057 A 
ATOM      7  C   UNL     1       1.145   6.586  -4.877  0.00  0.00    +0.138 A 
ENDROOT
BRANCH   3   8
ATOM      8  C   UNL     1       2.964   6.639  -8.148  0.00  0.00    +0.145 C 
BRANCH   8   9
ATOM      9  S   UNL     1       4.015   5.131  -8.281  0.00  0.00    +0.107 S 
ATOM     10  O   UNL     1       3.014   4.177  -8.999  0.00  0.00    -0.248 OA
BRANCH   9  11
ATOM     11  C   UNL     1       5.103   5.622  -9.639  0.00  0.00    +0.221 A 
ATOM     12  N   UNL     1       6.382   5.968  -9.605  0.00  0.00    -0.218 NA
ATOM     13  C   UNL     1       6.883   5.970 -10.859  0.00  0.00    +0.101 A 
ATOM     14  C   UNL     1       5.836   5.708 -11.701  0.00  0.00    +0.101 A 
ATOM     15  C   UNL     1       6.115   5.481 -13.042  0.00  0.00    +0.021 A 
ATOM     16  C   UNL     1       7.401   5.553 -13.535  0.00  0.00    +0.002 A 
ATOM     17  C   UNL     1       8.418   5.650 -12.613  0.00  0.00    +0.002 A 
ATOM     18  C   UNL     1       8.200   5.884 -11.274  0.00  0.00    +0.021 A 
ATOM     19  N   UNL     1       4.739   5.522 -10.933  0.00  0.00    -0.218 NA
ENDBRANCH   9  11
ENDBRANCH   8   9
ENDBRANCH   3   8
BRANCH   7  20
ATOM     20  O   UNL     1      -0.153   6.337  -4.477  0.00  0.00    -0.467 OA
BRANCH  20  21
ATOM     21  C   UNL     1      -1.142   7.322  -4.310  0.00  0.00    +0.308 C 
BRANCH  21  22
ATOM     22  C   UNL     1      -2.499   6.873  -4.788  0.00  0.00    +0.438 C 
ATOM     23  F   UNL     1      -3.347   6.681  -3.710  0.00  0.00    -0.166 F 
ATOM     24  F   UNL     1      -2.453   5.741  -5.562  0.00  0.00    -0.166 F 
ATOM     25  F   UNL     1      -3.020   7.888  -5.567  0.00  0.00    -0.166 F 
ENDBRANCH  21  22
ENDBRANCH  20  21
ENDBRANCH   7  20
TORSDOF 6
ENDMDL
MODEL 6
REMARK VINA RESULT:      -7.4      3.351      7.302
REMARK  Name = 
REMARK  6 active torsions:
REMARK  status: ('A' for Active; 'I' for Inactive)
REMARK    1  A    between atoms: C_3  and  O_4
REMARK    2  A    between atoms: O_4  and  C_5
REMARK    3  A    between atoms: C_5  and  C_6
REMARK    4  A    between atoms: C_13  and  C_14
REMARK    5  A    between atoms: C_14  and  S_15
REMARK    6  A    between atoms: S_15  and  C_17
REMARK                            x       y       z     vdW  Elec       q    Type
REMARK                         _______ _______ _______ _____ _____    ______ ____
ROOT
ATOM      1  C   UNL     1       2.015   6.653  -5.537  0.00  0.00    +0.035 C 
ATOM      2  C   UNL     1       1.238   6.195  -6.580  0.00  0.00    +0.027 A 
ATOM      3  C   UNL     1       1.847   6.030  -7.816  0.00  0.00    +0.072 A 
ATOM      4  N   UNL     1       1.102   5.695  -8.893  0.00  0.00    -0.247 NA
ATOM      5  C   UNL     1      -0.230   5.552  -8.753  0.00  0.00    +0.102 A 
ATOM      6  C   UNL     1      -0.743   5.254  -7.512  0.00  0.00    +0.057 A 
ATOM      7  C   UNL     1      -0.039   5.675  -6.411  0.00  0.00    +0.138 A 
ENDROOT
BRANCH   3   8
ATOM      8  C   UNL     1       3.224   6.563  -8.018  0.00  0.00    +0.145 C 
BRANCH   8   9
ATOM      9  S   UNL     1       4.382   5.132  -8.107  0.00  0.00    +0.107 S 
ATOM     10  O   UNL     1       3.431   4.065  -8.728  0.00  0.00    -0.248 OA
BRANCH   9  11
ATOM     11  C   UNL     1       5.379   5.620  -9.535  0.00  0.00    +0.221 A 
ATOM     12  N   UNL     1       6.663   5.947  -9.588  0.00  0.00    -0.218 NA
ATOM     13  C   UNL     1       7.074   5.955 -10.874  0.00  0.00    +0.101 A 
ATOM     14  C   UNL     1       5.966   5.715 -11.642  0.00  0.00    +0.101 A 
ATOM     15  C   UNL     1       6.147   5.498 -13.001  0.00  0.00    +0.021 A 
ATOM     16  C   UNL     1       7.396   5.555 -13.583  0.00  0.00    +0.002 A 
ATOM     17  C   UNL     1       8.477   5.629 -12.734  0.00  0.00    +0.002 A 
ATOM     18  C   UNL     1       8.357   5.853 -11.381  0.00  0.00    +0.021 A 
ATOM     19  N   UNL     1       4.923   5.539 -10.800  0.00  0.00    -0.218 NA
ENDBRANCH   9  11
ENDBRANCH   8   9
ENDBRANCH   3   8
BRANCH   7  20
ATOM     20  O   UNL     1      -0.513   5.616  -5.115  0.00  0.00    -0.467 OA
BRANCH  20  21
ATOM     21  C   UNL     1      -1.844   5.864  -4.738  0.00  0.00    +0.308 C 
BRANCH  21  22
ATOM     22  C   UNL     1      -2.136   7.332  -4.559  0.00  0.00    +0.438 C 
ATOM     23  F   UNL     1      -0.986   8.077  -4.756  0.00  0.00    -0.166 F 
ATOM     24  F   UNL     1      -2.690   7.628  -3.338  0.00  0.00    -0.166 F 
ATOM     25  F   UNL     1      -3.052   7.693  -5.528  0.00  0.00    -0.166 F 
ENDBRANCH  21  22
ENDBRANCH  20  21
ENDBRANCH   7  20
TORSDOF 6
ENDMDL
MODEL 7
REMARK VINA RESULT:      -7.4      3.346      4.221
REMARK  Name = 
REMARK  6 active torsions:
REMARK  status: ('A' for Active; 'I' for Inactive)
REMARK    1  A    between atoms: C_3  and  O_4
REMARK    2  A    between atoms: O_4  and  C_5
REMARK    3  A    between atoms: C_5  and  C_6
REMARK    4  A    between atoms: C_13  and  C_14
REMARK    5  A    between atoms: C_14  and  S_15
REMARK    6  A    between atoms: S_15  and  C_17
REMARK                            x       y       z     vdW  Elec       q    Type
REMARK                         _______ _______ _______ _____ _____    ______ ____
ROOT
ATOM      1  C   UNL     1       5.113   5.400  -8.215  0.00  0.00    +0.035 C 
ATOM      2  C   UNL     1       4.085   5.640  -9.102  0.00  0.00    +0.027 A 
ATOM      3  C   UNL     1       2.887   6.116  -8.589  0.00  0.00    +0.072 A 
ATOM      4  N   UNL     1       1.816   6.255  -9.402  0.00  0.00    -0.247 NA
ATOM      5  C   UNL     1       1.923   5.903 -10.697  0.00  0.00    +0.102 A 
ATOM      6  C   UNL     1       3.165   5.892 -11.286  0.00  0.00    +0.057 A 
ATOM      7  C   UNL     1       4.252   5.655 -10.480  0.00  0.00    +0.138 A 
ENDROOT
BRANCH   3   8
ATOM      8  C   UNL     1       2.688   6.126  -7.112  0.00  0.00    +0.145 C 
BRANCH   8   9
ATOM      9  S   UNL     1       1.834   4.563  -6.642  0.00  0.00    +0.107 S 
ATOM     10  O   UNL     1       2.878   3.986  -5.639  0.00  0.00    -0.248 OA
BRANCH   9  11
ATOM     11  C   UNL     1       0.568   5.217  -5.527  0.00  0.00    +0.221 A 
ATOM     12  N   UNL     1      -0.690   5.544  -5.788  0.00  0.00    -0.218 NA
ATOM     13  C   UNL     1      -1.365   5.705  -4.630  0.00  0.00    +0.101 A 
ATOM     14  C   UNL     1      -0.451   5.563  -3.620  0.00  0.00    +0.101 A 
ATOM     15  C   UNL     1      -0.920   5.510  -2.315  0.00  0.00    +0.021 A 
ATOM     16  C   UNL     1      -2.263   5.634  -2.024  0.00  0.00    +0.002 A 
ATOM     17  C   UNL     1      -3.137   5.602  -3.086  0.00  0.00    +0.002 A 
ATOM     18  C   UNL     1      -2.728   5.662  -4.399  0.00  0.00    +0.021 A 
ATOM     19  N   UNL     1       0.743   5.289  -4.193  0.00  0.00    -0.218 NA
ENDBRANCH   9  11
ENDBRANCH   8   9
ENDBRANCH   3   8
BRANCH   7  20
ATOM     20  O   UNL     1       5.533   5.430 -10.947  0.00  0.00    -0.467 OA
BRANCH  20  21
ATOM     21  C   UNL     1       6.353   6.408 -11.537  0.00  0.00    +0.308 C 
BRANCH  21  22
ATOM     22  C   UNL     1       7.749   6.418 -10.968  0.00  0.00    +0.438 C 
ATOM     23  F   UNL     1       7.915   7.507 -10.128  0.00  0.00    -0.166 F 
ATOM     24  F   UNL     1       8.726   6.410 -11.933  0.00  0.00    -0.166 F 
ATOM     25  F   UNL     1       7.899   5.269 -10.216  0.00  0.00    -0.166 F 
ENDBRANCH  21  22
ENDBRANCH  20  21
ENDBRANCH   7  20
TORSDOF 6
ENDMDL
MODEL 8
REMARK VINA RESULT:      -7.1      3.498      4.118
REMARK  Name = 
REMARK  6 active torsions:
REMARK  status: ('A' for Active; 'I' for Inactive)
REMARK    1  A    between atoms: C_3  and  O_4
REMARK    2  A    between atoms: O_4  and  C_5
REMARK    3  A    between atoms: C_5  and  C_6
REMARK    4  A    between atoms: C_13  and  C_14
REMARK    5  A    between atoms: C_14  and  S_15
REMARK    6  A    between atoms: S_15  and  C_17
REMARK                            x       y       z     vdW  Elec       q    Type
REMARK                         _______ _______ _______ _____ _____    ______ ____
ROOT
ATOM      1  C   UNL     1       2.912   5.804 -11.097  0.00  0.00    +0.035 C 
ATOM      2  C   UNL     1       4.188   5.705 -10.583  0.00  0.00    +0.027 A 
ATOM      3  C   UNL     1       4.323   5.289  -9.266  0.00  0.00    +0.072 A 
ATOM      4  N   UNL     1       5.543   5.288  -8.684  0.00  0.00    -0.247 NA
ATOM      5  C   UNL     1       6.608   5.718  -9.387  0.00  0.00    +0.102 A 
ATOM      6  C   UNL     1       6.563   5.673 -10.761  0.00  0.00    +0.057 A 
ATOM      7  C   UNL     1       5.334   5.770 -11.364  0.00  0.00    +0.138 A 
ENDROOT
BRANCH   3   8
ATOM      8  C   UNL     1       3.106   5.195  -8.411  0.00  0.00    +0.145 C 
BRANCH   8   9
ATOM      9  S   UNL     1       3.168   6.564  -7.180  0.00  0.00    +0.107 S 
ATOM     10  O   UNL     1       2.918   7.777  -8.125  0.00  0.00    -0.248 OA
BRANCH   9  11
ATOM     11  C   UNL     1       1.550   6.361  -6.398  0.00  0.00    +0.221 A 
ATOM     12  N   UNL     1       1.023   7.021  -5.376  0.00  0.00    -0.218 NA
ATOM     13  C   UNL     1      -0.300   6.764  -5.305  0.00  0.00    +0.101 A 
ATOM     14  C   UNL     1      -0.571   5.830  -6.269  0.00  0.00    +0.101 A 
ATOM     15  C   UNL     1      -1.899   5.518  -6.524  0.00  0.00    +0.021 A 
ATOM     16  C   UNL     1      -2.927   6.097  -5.809  0.00  0.00    +0.002 A 
ATOM     17  C   UNL     1      -2.599   7.145  -4.981  0.00  0.00    +0.002 A 
ATOM     18  C   UNL     1      -1.299   7.492  -4.685  0.00  0.00    +0.021 A 
ATOM     19  N   UNL     1       0.588   5.572  -6.916  0.00  0.00    -0.218 NA
ENDBRANCH   9  11
ENDBRANCH   8   9
ENDBRANCH   3   8
BRANCH   7  20
ATOM     20  O   UNL     1       5.144   5.926 -12.724  0.00  0.00    -0.467 OA
BRANCH  20  21
ATOM     21  C   UNL     1       5.986   5.395 -13.715  0.00  0.00    +0.308 C 
BRANCH  21  22
ATOM     22  C   UNL     1       6.970   6.404 -14.248  0.00  0.00    +0.438 C 
ATOM     23  F   UNL     1       7.139   6.235 -15.612  0.00  0.00    -0.166 F 
ATOM     24  F   UNL     1       8.186   6.364 -13.612  0.00  0.00    -0.166 F 
ATOM     25  F   UNL     1       6.432   7.660 -14.036  0.00  0.00    -0.166 F 
ENDBRANCH  21  22
ENDBRANCH  20  21
ENDBRANCH   7  20
TORSDOF 6
ENDMDL
MODEL 9
REMARK VINA RESULT:      -7.1      3.766      7.523
REMARK  Name = 
REMARK  6 active torsions:
REMARK  status: ('A' for Active; 'I' for Inactive)
REMARK    1  A    between atoms: C_3  and  O_4
REMARK    2  A    between atoms: O_4  and  C_5
REMARK    3  A    between atoms: C_5  and  C_6
REMARK    4  A    between atoms: C_13  and  C_14
REMARK    5  A    between atoms: C_14  and  S_15
REMARK    6  A    between atoms: S_15  and  C_17
REMARK                            x       y       z     vdW  Elec       q    Type
REMARK                         _______ _______ _______ _____ _____    ______ ____
ROOT
ATOM      1  C   UNL     1       2.576   7.048  -6.194  0.00  0.00    +0.035 C 
ATOM      2  C   UNL     1       1.315   6.515  -6.030  0.00  0.00    +0.027 A 
ATOM      3  C   UNL     1       0.679   6.005  -7.154  0.00  0.00    +0.072 A 
ATOM      4  N   UNL     1      -0.601   5.579  -7.066  0.00  0.00    -0.247 NA
ATOM      5  C   UNL     1      -1.249   5.680  -5.889  0.00  0.00    +0.102 A 
ATOM      6  C   UNL     1      -0.517   5.727  -4.726  0.00  0.00    +0.057 A 
ATOM      7  C   UNL     1       0.752   6.249  -4.790  0.00  0.00    +0.138 A 
ENDROOT
BRANCH   3   8
ATOM      8  C   UNL     1       1.271   6.262  -8.497  0.00  0.00    +0.145 C 
BRANCH   8   9
ATOM      9  S   UNL     1       1.905   4.661  -9.155  0.00  0.00    +0.107 S 
ATOM     10  O   UNL     1       1.017   4.533 -10.429  0.00  0.00    -0.248 OA
BRANCH   9  11
ATOM     11  C   UNL     1       3.482   5.208  -9.852  0.00  0.00    +0.221 A 
ATOM     12  N   UNL     1       3.714   6.117 -10.788  0.00  0.00    -0.218 NA
ATOM     13  C   UNL     1       5.028   6.429 -10.799  0.00  0.00    +0.101 A 
ATOM     14  C   UNL     1       5.636   5.600  -9.894  0.00  0.00    +0.101 A 
ATOM     15  C   UNL     1       6.969   5.833  -9.585  0.00  0.00    +0.021 A 
ATOM     16  C   UNL     1       7.685   6.844 -10.191  0.00  0.00    +0.002 A 
ATOM     17  C   UNL     1       6.975   7.740 -10.956  0.00  0.00    +0.002 A 
ATOM     18  C   UNL     1       5.655   7.554 -11.302  0.00  0.00    +0.021 A 
ATOM     19  N   UNL     1       4.670   4.833  -9.339  0.00  0.00    -0.218 NA
ENDBRANCH   9  11
ENDBRANCH   8   9
ENDBRANCH   3   8
BRANCH   7  20
ATOM     20  O   UNL     1       1.533   6.532  -3.686  0.00  0.00    -0.467 OA
BRANCH  20  21
ATOM     21  C   UNL     1       2.039   5.571  -2.795  0.00  0.00    +0.308 C 
BRANCH  21  22
ATOM     22  C   UNL     1       1.401   5.645  -1.432  0.00  0.00    +0.438 C 
ATOM     23  F   UNL     1       0.231   6.384  -1.490  0.00  0.00    -0.166 F 
ATOM     24  F   UNL     1       2.236   6.157  -0.470  0.00  0.00    -0.166 F 
ATOM     25  F   UNL     1       1.075   4.356  -1.055  0.00  0.00    -0.166 F 
ENDBRANCH  21  22
ENDBRANCH  20  21
ENDBRANCH   7  20
TORSDOF 6
ENDMDL
