MODEL 1
REMARK VINA RESULT:      -8.3      0.000      0.000
REMARK  Name = 
REMARK  2 active torsions:
REMARK  status: ('A' for Active; 'I' for Inactive)
REMARK    1  A    between atoms: C_2  and  C_3
REMARK    2  A    between atoms: C_22  and  C_23
REMARK                            x       y       z     vdW  Elec       q    Type
REMARK                         _______ _______ _______ _____ _____    ______ ____
ROOT
ATOM      1  C   UNL     1       4.263   6.120  -9.988  0.00  0.00    +0.180 C 
ATOM      2  C   UNL     1       3.004   6.025  -9.118  0.00  0.00    +0.037 C 
ATOM      3  C   UNL     1       3.818   6.492  -7.810  0.00  0.00    +0.003 C 
ATOM      4  C   UNL     1       2.749   6.072  -6.559  0.00  0.00    +0.001 C 
ATOM      5  C   UNL     1       1.318   6.100  -7.431  0.00  0.00    +0.004 C 
ATOM      6  C   UNL     1       1.567   7.600  -7.957  0.00  0.00    +0.000 C 
ATOM      7  C   UNL     1       0.446   6.521  -6.054  0.00  0.00    +0.019 C 
ATOM      8  C   UNL     1       0.886   5.212  -5.252  0.00  0.00    -0.043 C 
ATOM      9  C   UNL     1       0.130   5.046  -4.199  0.00  0.00    +0.010 C 
ATOM     10  C   UNL     1      -1.224   5.616  -4.164  0.00  0.00    +0.101 C 
ATOM     11  C   UNL     1      -1.851   5.940  -5.458  0.00  0.00    +0.050 C 
ATOM     12  N   UNL     1      -1.735   5.857  -3.027  0.00  0.00    -0.034 NA
ATOM     13  O   UNL     1      -2.059   4.869  -2.121  0.00  0.00    -0.143 OA
ATOM     14  C   UNL     1       1.471   4.095  -6.023  0.00  0.00    +0.022 C 
ATOM     15  C   UNL     1      -0.901   5.801  -6.610  0.00  0.00    +0.010 C 
ATOM     16  C   UNL     1       2.817   4.463  -6.630  0.00  0.00    +0.004 C 
ATOM     17  C   UNL     1       4.713   5.131  -7.815  0.00  0.00    +0.004 C 
ATOM     18  C   UNL     1       2.081   7.159  -9.334  0.00  0.00    +0.003 C 
ATOM     19  C   UNL     1       5.205   5.217  -9.217  0.00  0.00    +0.043 C 
ATOM     20  O   UNL     1       4.659   7.431 -10.018  0.00  0.00    -0.212 OA
ENDROOT
BRANCH   1  22
ATOM     21  C   UNL     1       3.987   5.255 -12.149  0.00  0.00    -0.012 C 
ATOM     22  C   UNL     1       4.047   5.531 -11.320  0.00  0.00    -0.049 C 
ENDBRANCH   1  22
BRANCH   2  23
ATOM     23  C   UNL     1       2.634   4.673  -9.187  0.00  0.00    +0.003 C 
ATOM     24  C   UNL     1       1.349   4.452  -9.890  0.00  0.00    +0.000 C 
ENDBRANCH   2  23
TORSDOF 2
ENDMDL
MODEL 2
REMARK VINA RESULT:      -8.3      2.931      6.743
REMARK  Name = 
REMARK  2 active torsions:
REMARK  status: ('A' for Active; 'I' for Inactive)
REMARK    1  A    between atoms: C_2  and  C_3
REMARK    2  A    between atoms: C_22  and  C_23
REMARK                            x       y       z     vdW  Elec       q    Type
REMARK                         _______ _______ _______ _____ _____    ______ ____
ROOT
ATOM      1  C   UNL     1      -0.078   6.142  -5.359  0.00  0.00    +0.180 C 
ATOM      2  C   UNL     1       1.240   5.991  -6.127  0.00  0.00    +0.037 C 
ATOM      3  C   UNL     1       0.593   6.632  -7.454  0.00  0.00    +0.003 C 
ATOM      4  C   UNL     1       1.728   6.205  -8.644  0.00  0.00    +0.001 C 
ATOM      5  C   UNL     1       3.071   6.029  -7.658  0.00  0.00    +0.004 C 
ATOM      6  C   UNL     1       2.912   7.502  -7.030  0.00  0.00    +0.000 C 
ATOM      7  C   UNL     1       4.098   6.466  -8.918  0.00  0.00    +0.019 C 
ATOM      8  C   UNL     1       3.616   5.270  -9.860  0.00  0.00    -0.043 C 
ATOM      9  C   UNL     1       4.446   5.111 -10.857  0.00  0.00    +0.010 C 
ATOM     10  C   UNL     1       5.843   5.547 -10.732  0.00  0.00    +0.101 C 
ATOM     11  C   UNL     1       6.378   5.711  -9.368  0.00  0.00    +0.050 C 
ATOM     12  N   UNL     1       6.474   5.822 -11.799  0.00  0.00    -0.034 NA
ATOM     13  O   UNL     1       6.788   4.879 -12.754  0.00  0.00    -0.143 OA
ATOM     14  C   UNL     1       2.865   4.159  -9.235  0.00  0.00    +0.022 C 
ATOM     15  C   UNL     1       5.320   5.578  -8.315  0.00  0.00    +0.010 C 
ATOM     16  C   UNL     1       1.509   4.610  -8.712  0.00  0.00    +0.004 C 
ATOM     17  C   UNL     1      -0.418   5.367  -7.637  0.00  0.00    +0.004 C 
ATOM     18  C   UNL     1       2.238   7.011  -5.742  0.00  0.00    +0.003 C 
ATOM     19  C   UNL     1      -1.024   5.395  -6.278  0.00  0.00    +0.043 C 
ATOM     20  O   UNL     1      -0.356   7.479  -5.253  0.00  0.00    -0.212 OA
ENDROOT
BRANCH   1  22
ATOM     21  C   UNL     1      -0.066   5.100  -3.260  0.00  0.00    -0.012 C 
ATOM     22  C   UNL     1      -0.037   5.437  -4.068  0.00  0.00    -0.049 C 
ENDBRANCH   1  22
BRANCH   2  23
ATOM     23  C   UNL     1       1.479   4.608  -6.141  0.00  0.00    +0.003 C 
ATOM     24  C   UNL     1       2.710   4.219  -5.414  0.00  0.00    +0.000 C 
ENDBRANCH   2  23
TORSDOF 2
ENDMDL
MODEL 3
REMARK VINA RESULT:      -8.2      3.196      6.826
REMARK  Name = 
REMARK  2 active torsions:
REMARK  status: ('A' for Active; 'I' for Inactive)
REMARK    1  A    between atoms: C_2  and  C_3
REMARK    2  A    between atoms: C_22  and  C_23
REMARK                            x       y       z     vdW  Elec       q    Type
REMARK                         _______ _______ _______ _____ _____    ______ ____
ROOT
ATOM      1  C   UNL     1       0.583   5.457  -6.021  0.00  0.00    +0.180 C 
ATOM      2  C   UNL     1       1.485   5.723  -7.232  0.00  0.00    +0.037 C 
ATOM      3  C   UNL     1       2.123   4.249  -7.140  0.00  0.00    +0.003 C 
ATOM      4  C   UNL     1       3.497   4.395  -8.128  0.00  0.00    +0.001 C 
ATOM      5  C   UNL     1       2.979   5.663  -9.092  0.00  0.00    +0.004 C 
ATOM      6  C   UNL     1       1.623   4.905  -9.514  0.00  0.00    +0.000 C 
ATOM      7  C   UNL     1       3.915   5.115 -10.379  0.00  0.00    +0.019 C 
ATOM      8  C   UNL     1       5.282   5.219  -9.560  0.00  0.00    -0.043 C 
ATOM      9  C   UNL     1       6.305   5.147 -10.370  0.00  0.00    +0.010 C 
ATOM     10  C   UNL     1       6.161   5.531 -11.780  0.00  0.00    +0.101 C 
ATOM     11  C   UNL     1       5.029   6.411 -12.125  0.00  0.00    +0.050 C 
ATOM     12  N   UNL     1       6.972   5.027 -12.617  0.00  0.00    -0.034 NA
ATOM     13  O   UNL     1       8.323   5.301 -12.616  0.00  0.00    -0.143 OA
ATOM     14  C   UNL     1       5.280   6.011  -8.312  0.00  0.00    +0.022 C 
ATOM     15  C   UNL     1       4.088   6.617 -10.976  0.00  0.00    +0.010 C 
ATOM     16  C   UNL     1       4.408   5.381  -7.237  0.00  0.00    +0.004 C 
ATOM     17  C   UNL     1       2.831   4.587  -5.711  0.00  0.00    +0.004 C 
ATOM     18  C   UNL     1       0.745   5.664  -8.511  0.00  0.00    +0.003 C 
ATOM     19  C   UNL     1       1.616   5.050  -4.988  0.00  0.00    +0.043 C 
ATOM     20  O   UNL     1      -0.286   4.451  -6.354  0.00  0.00    -0.212 OA
ENDROOT
BRANCH   1  22
ATOM     21  C   UNL     1      -0.538   7.355  -5.226  0.00  0.00    -0.012 C 
ATOM     22  C   UNL     1      -0.077   6.687  -5.554  0.00  0.00    -0.049 C 
ENDBRANCH   1  22
BRANCH   2  23
ATOM     23  C   UNL     1       2.298   6.794  -6.831  0.00  0.00    +0.003 C 
ATOM     24  C   UNL     1       2.119   8.009  -7.660  0.00  0.00    +0.000 C 
ENDBRANCH   2  23
TORSDOF 2
ENDMDL
MODEL 4
REMARK VINA RESULT:      -8.1      3.110      6.099
REMARK  Name = 
REMARK  2 active torsions:
REMARK  status: ('A' for Active; 'I' for Inactive)
REMARK    1  A    between atoms: C_2  and  C_3
REMARK    2  A    between atoms: C_22  and  C_23
REMARK                            x       y       z     vdW  Elec       q    Type
REMARK                         _______ _______ _______ _____ _____    ______ ____
ROOT
ATOM      1  C   UNL     1       2.975   5.734  -4.097  0.00  0.00    +0.180 C 
ATOM      2  C   UNL     1       2.311   5.549  -5.467  0.00  0.00    +0.037 C 
ATOM      3  C   UNL     1       3.737   5.560  -6.211  0.00  0.00    +0.003 C 
ATOM      4  C   UNL     1       3.289   5.795  -7.833  0.00  0.00    +0.001 C 
ATOM      5  C   UNL     1       1.730   5.188  -7.753  0.00  0.00    +0.004 C 
ATOM      6  C   UNL     1       2.214   3.785  -7.132  0.00  0.00    +0.000 C 
ATOM      7  C   UNL     1       1.792   4.716  -9.368  0.00  0.00    +0.019 C 
ATOM      8  C   UNL     1       2.064   6.199  -9.895  0.00  0.00    -0.043 C 
ATOM      9  C   UNL     1       1.870   6.267 -11.186  0.00  0.00    +0.010 C 
ATOM     10  C   UNL     1       0.976   5.309 -11.850  0.00  0.00    +0.101 C 
ATOM     11  C   UNL     1      -0.017   4.618 -11.007  0.00  0.00    +0.050 C 
ATOM     12  N   UNL     1       1.162   5.085 -13.086  0.00  0.00    -0.034 NA
ATOM     13  O   UNL     1       0.967   6.039 -14.062  0.00  0.00    -0.143 OA
ATOM     14  C   UNL     1       1.801   7.320  -8.968  0.00  0.00    +0.022 C 
ATOM     15  C   UNL     1       0.185   4.883  -9.545  0.00  0.00    +0.010 C 
ATOM     16  C   UNL     1       2.752   7.314  -7.780  0.00  0.00    +0.004 C 
ATOM     17  C   UNL     1       3.994   7.119  -5.814  0.00  0.00    +0.004 C 
ATOM     18  C   UNL     1       1.852   4.162  -5.689  0.00  0.00    +0.003 C 
ATOM     19  C   UNL     1       3.785   6.991  -4.347  0.00  0.00    +0.043 C 
ATOM     20  O   UNL     1       3.743   4.627  -3.846  0.00  0.00    -0.212 OA
ENDROOT
BRANCH   1  22
ATOM     21  C   UNL     1       1.464   6.152  -2.356  0.00  0.00    -0.012 C 
ATOM     22  C   UNL     1       1.985   6.024  -3.048  0.00  0.00    -0.049 C 
ENDBRANCH   1  22
BRANCH   2  23
ATOM     23  C   UNL     1       1.506   6.689  -5.620  0.00  0.00    +0.003 C 
ATOM     24  C   UNL     1       0.055   6.389  -5.604  0.00  0.00    +0.000 C 
ENDBRANCH   2  23
TORSDOF 2
ENDMDL
MODEL 5
REMARK VINA RESULT:      -7.9      2.935      3.744
REMARK  Name = 
REMARK  2 active torsions:
REMARK  status: ('A' for Active; 'I' for Inactive)
REMARK    1  A    between atoms: C_2  and  C_3
REMARK    2  A    between atoms: C_22  and  C_23
REMARK                            x       y       z     vdW  Elec       q    Type
REMARK                         _______ _______ _______ _____ _____    ______ ____
ROOT
ATOM      1  C   UNL     1       1.900   6.059  -8.989  0.00  0.00    +0.180 C 
ATOM      2  C   UNL     1       1.917   5.901  -7.464  0.00  0.00    +0.037 C 
ATOM      3  C   UNL     1       2.847   7.203  -7.293  0.00  0.00    +0.003 C 
ATOM      4  C   UNL     1       3.394   7.039  -5.693  0.00  0.00    +0.001 C 
ATOM      5  C   UNL     1       2.147   6.093  -5.096  0.00  0.00    +0.004 C 
ATOM      6  C   UNL     1       1.014   7.130  -5.575  0.00  0.00    +0.000 C 
ATOM      7  C   UNL     1       2.353   6.731  -3.552  0.00  0.00    +0.019 C 
ATOM      8  C   UNL     1       3.870   6.244  -3.444  0.00  0.00    -0.043 C 
ATOM      9  C   UNL     1       4.284   6.311  -2.206  0.00  0.00    +0.010 C 
ATOM     10  C   UNL     1       3.319   6.248  -1.100  0.00  0.00    +0.101 C 
ATOM     11  C   UNL     1       2.001   5.652  -1.389  0.00  0.00    +0.050 C 
ATOM     12  N   UNL     1       3.653   6.773   0.007  0.00  0.00    -0.034 NA
ATOM     13  O   UNL     1       4.679   6.290   0.791  0.00  0.00    -0.143 OA
ATOM     14  C   UNL     1       4.339   5.226  -4.409  0.00  0.00    +0.022 C 
ATOM     15  C   UNL     1       1.803   5.373  -2.848  0.00  0.00    +0.010 C 
ATOM     16  C   UNL     1       4.363   5.759  -5.834  0.00  0.00    +0.004 C 
ATOM     17  C   UNL     1       4.098   6.473  -8.040  0.00  0.00    +0.004 C 
ATOM     18  C   UNL     1       0.651   6.336  -6.837  0.00  0.00    +0.003 C 
ATOM     19  C   UNL     1       3.387   6.076  -9.284  0.00  0.00    +0.043 C 
ATOM     20  O   UNL     1       1.268   7.239  -9.285  0.00  0.00    -0.212 OA
ENDROOT
BRANCH   1  22
ATOM     21  C   UNL     1       0.907   4.254 -10.104  0.00  0.00    -0.012 C 
ATOM     22  C   UNL     1       1.311   4.884  -9.651  0.00  0.00    -0.049 C 
ENDBRANCH   1  22
BRANCH   2  23
ATOM     23  C   UNL     1       2.524   4.653  -7.250  0.00  0.00    +0.003 C 
ATOM     24  C   UNL     1       1.661   3.700  -6.515  0.00  0.00    +0.000 C 
ENDBRANCH   2  23
TORSDOF 2
ENDMDL
MODEL 6
REMARK VINA RESULT:      -7.9      1.296      2.593
REMARK  Name = 
REMARK  2 active torsions:
REMARK  status: ('A' for Active; 'I' for Inactive)
REMARK    1  A    between atoms: C_2  and  C_3
REMARK    2  A    between atoms: C_22  and  C_23
REMARK                            x       y       z     vdW  Elec       q    Type
REMARK                         _______ _______ _______ _____ _____    ______ ____
ROOT
ATOM      1  C   UNL     1       3.667   5.464  -9.608  0.00  0.00    +0.180 C 
ATOM      2  C   UNL     1       2.910   5.721  -8.300  0.00  0.00    +0.037 C 
ATOM      3  C   UNL     1       2.186   4.286  -8.384  0.00  0.00    +0.003 C 
ATOM      4  C   UNL     1       0.930   4.456  -7.253  0.00  0.00    +0.001 C 
ATOM      5  C   UNL     1       1.612   5.652  -6.299  0.00  0.00    +0.004 C 
ATOM      6  C   UNL     1       2.960   4.808  -6.051  0.00  0.00    +0.000 C 
ATOM      7  C   UNL     1       0.783   5.094  -4.944  0.00  0.00    +0.019 C 
ATOM      8  C   UNL     1      -0.652   5.303  -5.611  0.00  0.00    -0.043 C 
ATOM      9  C   UNL     1      -1.590   5.246  -4.703  0.00  0.00    +0.010 C 
ATOM     10  C   UNL     1      -1.282   5.558  -3.302  0.00  0.00    +0.101 C 
ATOM     11  C   UNL     1      -0.074   6.363  -3.041  0.00  0.00    +0.050 C 
ATOM     12  N   UNL     1      -2.030   5.059  -2.405  0.00  0.00    -0.034 NA
ATOM     13  O   UNL     1      -3.357   5.400  -2.255  0.00  0.00    -0.143 OA
ATOM     14  C   UNL     1      -0.734   6.150  -6.820  0.00  0.00    +0.022 C 
ATOM     15  C   UNL     1       0.754   6.574  -4.273  0.00  0.00    +0.010 C 
ATOM     16  C   UNL     1      -0.012   5.526  -8.005  0.00  0.00    +0.004 C 
ATOM     17  C   UNL     1       1.356   4.723  -9.717  0.00  0.00    +0.004 C 
ATOM     18  C   UNL     1       3.771   5.567  -7.109  0.00  0.00    +0.003 C 
ATOM     19  C   UNL     1       2.514   5.157 -10.543  0.00  0.00    +0.043 C 
ATOM     20  O   UNL     1       4.510   4.402  -9.408  0.00  0.00    -0.212 OA
ENDROOT
BRANCH   1  22
ATOM     21  C   UNL     1       4.777   7.344 -10.462  0.00  0.00    -0.012 C 
ATOM     22  C   UNL     1       4.343   6.679 -10.092  0.00  0.00    -0.049 C 
ENDBRANCH   1  22
BRANCH   2  23
ATOM     23  C   UNL     1       2.119   6.849  -8.571  0.00  0.00    +0.003 C 
ATOM     24  C   UNL     1       2.448   8.014  -7.717  0.00  0.00    +0.000 C 
ENDBRANCH   2  23
TORSDOF 2
ENDMDL
MODEL 7
REMARK VINA RESULT:      -7.7      2.642      3.811
REMARK  Name = 
REMARK  2 active torsions:
REMARK  status: ('A' for Active; 'I' for Inactive)
REMARK    1  A    between atoms: C_2  and  C_3
REMARK    2  A    between atoms: C_22  and  C_23
REMARK                            x       y       z     vdW  Elec       q    Type
REMARK                         _______ _______ _______ _____ _____    ______ ____
ROOT
ATOM      1  C   UNL     1       2.395   5.440  -9.889  0.00  0.00    +0.180 C 
ATOM      2  C   UNL     1       2.835   5.258  -8.432  0.00  0.00    +0.037 C 
ATOM      3  C   UNL     1       1.429   5.822  -7.889  0.00  0.00    +0.003 C 
ATOM      4  C   UNL     1       1.780   6.139  -6.257  0.00  0.00    +0.001 C 
ATOM      5  C   UNL     1       3.055   5.070  -6.063  0.00  0.00    +0.004 C 
ATOM      6  C   UNL     1       2.197   3.814  -6.587  0.00  0.00    +0.000 C 
ATOM      7  C   UNL     1       2.695   4.881  -4.429  0.00  0.00    +0.019 C 
ATOM      8  C   UNL     1       2.877   6.434  -4.106  0.00  0.00    -0.043 C 
ATOM      9  C   UNL     1       2.964   6.625  -2.816  0.00  0.00    +0.010 C 
ATOM     10  C   UNL     1       3.431   5.543  -1.940  0.00  0.00    +0.101 C 
ATOM     11  C   UNL     1       4.215   4.461  -2.563  0.00  0.00    +0.050 C 
ATOM     12  N   UNL     1       3.070   5.571  -0.722  0.00  0.00    -0.034 NA
ATOM     13  O   UNL     1       3.477   6.547   0.162  0.00  0.00    -0.143 OA
ATOM     14  C   UNL     1       3.576   7.270  -5.106  0.00  0.00    +0.022 C 
ATOM     15  C   UNL     1       4.245   4.561  -4.059  0.00  0.00    +0.010 C 
ATOM     16  C   UNL     1       2.787   7.389  -6.402  0.00  0.00    +0.004 C 
ATOM     17  C   UNL     1       1.734   7.308  -8.483  0.00  0.00    +0.004 C 
ATOM     18  C   UNL     1       2.792   3.845  -8.001  0.00  0.00    +0.003 C 
ATOM     19  C   UNL     1       2.022   6.910  -9.887  0.00  0.00    +0.043 C 
ATOM     20  O   UNL     1       1.333   4.605 -10.118  0.00  0.00    -0.212 OA
ENDROOT
BRANCH   1  22
ATOM     21  C   UNL     1       4.122   5.181 -11.452  0.00  0.00    -0.012 C 
ATOM     22  C   UNL     1       3.517   5.250 -10.822  0.00  0.00    -0.049 C 
ENDBRANCH   1  22
BRANCH   2  23
ATOM     23  C   UNL     1       3.951   6.098  -8.297  0.00  0.00    +0.003 C 
ATOM     24  C   UNL     1       5.224   5.360  -8.125  0.00  0.00    +0.000 C 
ENDBRANCH   2  23
TORSDOF 2
ENDMDL
MODEL 8
REMARK VINA RESULT:      -7.5      3.495      6.474
REMARK  Name = 
REMARK  2 active torsions:
REMARK  status: ('A' for Active; 'I' for Inactive)
REMARK    1  A    between atoms: C_2  and  C_3
REMARK    2  A    between atoms: C_22  and  C_23
REMARK                            x       y       z     vdW  Elec       q    Type
REMARK                         _______ _______ _______ _____ _____    ______ ____
ROOT
ATOM      1  C   UNL     1       2.695   6.153  -6.105  0.00  0.00    +0.180 C 
ATOM      2  C   UNL     1       2.696   5.916  -7.620  0.00  0.00    +0.037 C 
ATOM      3  C   UNL     1       1.832   7.250  -7.875  0.00  0.00    +0.003 C 
ATOM      4  C   UNL     1       1.304   7.029  -9.475  0.00  0.00    +0.001 C 
ATOM      5  C   UNL     1       2.514   5.995  -9.998  0.00  0.00    +0.004 C 
ATOM      6  C   UNL     1       3.688   7.001  -9.552  0.00  0.00    +0.000 C 
ATOM      7  C   UNL     1       2.364   6.561 -11.577  0.00  0.00    +0.019 C 
ATOM      8  C   UNL     1       0.827   6.141 -11.688  0.00  0.00    -0.043 C 
ATOM      9  C   UNL     1       0.438   6.163 -12.935  0.00  0.00    +0.010 C 
ATOM     10  C   UNL     1       1.416   5.997 -14.018  0.00  0.00    +0.101 C 
ATOM     11  C   UNL     1       2.699   5.355 -13.675  0.00  0.00    +0.050 C 
ATOM     12  N   UNL     1       1.126   6.478 -15.157  0.00  0.00    -0.034 NA
ATOM     13  O   UNL     1       0.091   6.003 -15.935  0.00  0.00    -0.143 OA
ATOM     14  C   UNL     1       0.295   5.198 -10.681  0.00  0.00    +0.022 C 
ATOM     15  C   UNL     1       2.859   5.143 -12.199  0.00  0.00    +0.010 C 
ATOM     16  C   UNL     1       0.272   5.805  -9.286  0.00  0.00    +0.004 C 
ATOM     17  C   UNL     1       0.536   6.621  -7.115  0.00  0.00    +0.004 C 
ATOM     18  C   UNL     1       3.991   6.258  -8.245  0.00  0.00    +0.003 C 
ATOM     19  C   UNL     1       1.207   6.256  -5.839  0.00  0.00    +0.043 C 
ATOM     20  O   UNL     1       3.379   7.315  -5.858  0.00  0.00    -0.212 OA
ENDROOT
BRANCH   1  22
ATOM     21  C   UNL     1       3.622   4.337  -4.951  0.00  0.00    -0.012 C 
ATOM     22  C   UNL     1       3.216   4.988  -5.373  0.00  0.00    -0.049 C 
ENDBRANCH   1  22
BRANCH   2  23
ATOM     23  C   UNL     1       2.033   4.690  -7.780  0.00  0.00    +0.003 C 
ATOM     24  C   UNL     1       2.860   3.660  -8.452  0.00  0.00    +0.000 C 
ENDBRANCH   2  23
TORSDOF 2
ENDMDL
MODEL 9
REMARK VINA RESULT:      -7.5      3.201      6.834
REMARK  Name = 
REMARK  2 active torsions:
REMARK  status: ('A' for Active; 'I' for Inactive)
REMARK    1  A    between atoms: C_2  and  C_3
REMARK    2  A    between atoms: C_22  and  C_23
REMARK                            x       y       z     vdW  Elec       q    Type
REMARK                         _______ _______ _______ _____ _____    ______ ____
ROOT
ATOM      1  C   UNL     1       1.161   6.030  -5.319  0.00  0.00    +0.180 C 
ATOM      2  C   UNL     1       2.143   6.272  -6.472  0.00  0.00    +0.037 C 
ATOM      3  C   UNL     1       1.137   5.595  -7.531  0.00  0.00    +0.003 C 
ATOM      4  C   UNL     1       2.153   5.335  -8.867  0.00  0.00    +0.001 C 
ATOM      5  C   UNL     1       3.299   6.514  -8.545  0.00  0.00    +0.004 C 
ATOM      6  C   UNL     1       2.196   7.682  -8.447  0.00  0.00    +0.000 C 
ATOM      7  C   UNL     1       3.626   6.695 -10.187  0.00  0.00    +0.019 C 
ATOM      8  C   UNL     1       4.056   5.168 -10.372  0.00  0.00    -0.043 C 
ATOM      9  C   UNL     1       4.682   5.005 -11.508  0.00  0.00    +0.010 C 
ATOM     10  C   UNL     1       5.372   6.137 -12.140  0.00  0.00    +0.101 C 
ATOM     11  C   UNL     1       5.735   7.274 -11.274  0.00  0.00    +0.050 C 
ATOM     12  N   UNL     1       5.547   6.096 -13.398  0.00  0.00    -0.034 NA
ATOM     13  O   UNL     1       6.363   5.172 -14.015  0.00  0.00    -0.143 OA
ATOM     14  C   UNL     1       4.352   4.382  -9.155  0.00  0.00    +0.022 C 
ATOM     15  C   UNL     1       5.158   7.154  -9.896  0.00  0.00    +0.010 C 
ATOM     16  C   UNL     1       3.115   4.175  -8.295  0.00  0.00    +0.004 C 
ATOM     17  C   UNL     1       1.298   4.133  -6.831  0.00  0.00    +0.004 C 
ATOM     18  C   UNL     1       2.159   7.682  -6.913  0.00  0.00    +0.003 C 
ATOM     19  C   UNL     1       0.949   4.535  -5.441  0.00  0.00    +0.043 C 
ATOM     20  O   UNL     1       0.031   6.767  -5.564  0.00  0.00    -0.212 OA
ENDROOT
BRANCH   1  22
ATOM     21  C   UNL     1       2.062   6.421  -3.192  0.00  0.00    -0.012 C 
ATOM     22  C   UNL     1       1.780   6.304  -4.012  0.00  0.00    -0.049 C 
ENDBRANCH   1  22
BRANCH   2  23
ATOM     23  C   UNL     1       3.283   5.534  -6.118  0.00  0.00    +0.003 C 
ATOM     24  C   UNL     1       4.445   6.383  -5.767  0.00  0.00    +0.000 C 
ENDBRANCH   2  23
TORSDOF 2
ENDMDL
