MODEL 1
REMARK VINA RESULT:      -7.8      0.000      0.000
REMARK  Name = 
REMARK  1 active torsions:
REMARK  status: ('A' for Active; 'I' for Inactive)
REMARK    1  A    between atoms: N_9  and  C_10
REMARK                            x       y       z     vdW  Elec       q    Type
REMARK                         _______ _______ _______ _____ _____    ______ ____
ROOT
ATOM      1  N   UNL     1       0.129   4.667  -1.617  0.00  0.00    -0.128 NA
ATOM      2  C   UNL     1      -0.798   5.461  -2.216  0.00  0.00    +0.087 A 
ATOM      3  C   UNL     1      -0.715   5.709  -3.567  0.00  0.00    +0.019 A 
ATOM      4  C   UNL     1       0.480   6.031  -4.391  0.00  0.00    +0.122 C 
ATOM      5  N   UNL     1       0.015   5.989  -5.776  0.00  0.00    -0.265 N 
ATOM      6  C   UNL     1      -1.415   6.037  -5.704  0.00  0.00    +0.249 C 
ATOM      7  O   UNL     1      -2.253   5.808  -6.628  0.00  0.00    -0.270 OA
ATOM      8  C   UNL     1      -1.824   6.094  -4.308  0.00  0.00    +0.053 A 
ATOM      9  C   UNL     1      -3.041   6.119  -3.666  0.00  0.00    +0.004 A 
ATOM     10  C   UNL     1      -3.117   6.124  -2.290  0.00  0.00    +0.002 A 
ATOM     11  C   UNL     1      -2.006   5.740  -1.592  0.00  0.00    +0.018 A 
ENDROOT
BRANCH   5  12
ATOM     12  C   UNL     1       0.688   4.895  -6.703  0.00  0.00    +0.155 C 
ATOM     13  C   UNL     1       0.379   5.736  -8.049  0.00  0.00    +0.266 C 
ATOM     14  O   UNL     1      -0.219   4.951  -8.851  0.00  0.00    -0.271 OA
ATOM     15  N   UNL     1       1.323   6.588  -8.586  0.00  0.00    -0.143 NA
ATOM     16  C   UNL     1       1.963   7.480  -7.677  0.00  0.00    +0.248 C 
ATOM     17  O   UNL     1       2.388   8.601  -7.946  0.00  0.00    -0.273 OA
ATOM     18  C   UNL     1       2.156   6.936  -6.314  0.00  0.00    +0.089 C 
ATOM     19  C   UNL     1       2.216   5.464  -6.455  0.00  0.00    +0.039 C 
ENDBRANCH   5  12
TORSDOF 1
ENDMDL
MODEL 2
REMARK VINA RESULT:      -7.7      5.036      9.005
REMARK  Name = 
REMARK  1 active torsions:
REMARK  status: ('A' for Active; 'I' for Inactive)
REMARK    1  A    between atoms: N_9  and  C_10
REMARK                            x       y       z     vdW  Elec       q    Type
REMARK                         _______ _______ _______ _____ _____    ______ ____
ROOT
ATOM      1  N   UNL     1       4.744   4.612 -13.686  0.00  0.00    -0.128 NA
ATOM      2  C   UNL     1       5.699   5.350 -13.060  0.00  0.00    +0.087 A 
ATOM      3  C   UNL     1       5.603   5.586 -11.707  0.00  0.00    +0.019 A 
ATOM      4  C   UNL     1       4.410   5.960 -10.902  0.00  0.00    +0.122 C 
ATOM      5  N   UNL     1       4.846   5.878  -9.509  0.00  0.00    -0.265 N 
ATOM      6  C   UNL     1       6.277   5.852  -9.553  0.00  0.00    +0.249 C 
ATOM      7  O   UNL     1       7.085   5.569  -8.617  0.00  0.00    -0.270 OA
ATOM      8  C   UNL     1       6.715   5.903 -10.941  0.00  0.00    +0.053 A 
ATOM      9  C   UNL     1       7.945   5.873 -11.559  0.00  0.00    +0.004 A 
ATOM     10  C   UNL     1       8.047   5.891 -12.933  0.00  0.00    +0.002 A 
ATOM     11  C   UNL     1       6.932   5.573 -13.657  0.00  0.00    +0.018 A 
ENDROOT
BRANCH   5  12
ATOM     12  C   UNL     1       4.099   4.809  -8.609  0.00  0.00    +0.155 C 
ATOM     13  C   UNL     1       4.188   5.744  -7.292  0.00  0.00    +0.266 C 
ATOM     14  O   UNL     1       4.703   5.040  -6.368  0.00  0.00    -0.271 OA
ATOM     15  N   UNL     1       3.145   6.579  -6.944  0.00  0.00    -0.143 NA
ATOM     16  C   UNL     1       2.597   7.381  -7.987  0.00  0.00    +0.248 C 
ATOM     17  O   UNL     1       2.094   8.493  -7.851  0.00  0.00    -0.273 OA
ATOM     18  C   UNL     1       2.614   6.747  -9.324  0.00  0.00    +0.089 C 
ATOM     19  C   UNL     1       2.597   5.285  -9.095  0.00  0.00    +0.039 C 
ENDBRANCH   5  12
TORSDOF 1
ENDMDL
MODEL 3
REMARK VINA RESULT:      -7.5      2.621      5.093
REMARK  Name = 
REMARK  1 active torsions:
REMARK  status: ('A' for Active; 'I' for Inactive)
REMARK    1  A    between atoms: N_9  and  C_10
REMARK                            x       y       z     vdW  Elec       q    Type
REMARK                         _______ _______ _______ _____ _____    ______ ____
ROOT
ATOM      1  N   UNL     1       3.760   8.131  -2.917  0.00  0.00    -0.128 NA
ATOM      2  C   UNL     1       3.735   6.810  -3.240  0.00  0.00    +0.087 A 
ATOM      3  C   UNL     1       2.610   6.270  -3.821  0.00  0.00    +0.019 A 
ATOM      4  C   UNL     1       1.180   6.485  -3.475  0.00  0.00    +0.122 C 
ATOM      5  N   UNL     1       0.425   5.830  -4.542  0.00  0.00    -0.265 N 
ATOM      6  C   UNL     1       1.361   4.975  -5.210  0.00  0.00    +0.249 C 
ATOM      7  O   UNL     1       1.223   4.380  -6.321  0.00  0.00    -0.270 OA
ATOM      8  C   UNL     1       2.666   5.109  -4.579  0.00  0.00    +0.053 A 
ATOM      9  C   UNL     1       3.908   4.566  -4.821  0.00  0.00    +0.004 A 
ATOM     10  C   UNL     1       5.000   4.926  -4.062  0.00  0.00    +0.002 A 
ATOM     11  C   UNL     1       4.910   6.076  -3.328  0.00  0.00    +0.018 A 
ENDROOT
BRANCH   5  12
ATOM     12  C   UNL     1      -0.496   6.773  -5.422  0.00  0.00    +0.155 C 
ATOM     13  C   UNL     1      -1.529   5.576  -5.760  0.00  0.00    +0.266 C 
ATOM     14  O   UNL     1      -1.660   5.541  -7.024  0.00  0.00    -0.271 OA
ATOM     15  N   UNL     1      -2.666   5.384  -5.001  0.00  0.00    -0.143 NA
ATOM     16  C   UNL     1      -2.496   5.398  -3.587  0.00  0.00    +0.248 C 
ATOM     17  O   UNL     1      -3.168   4.767  -2.774  0.00  0.00    -0.273 OA
ATOM     18  C   UNL     1      -1.437   6.311  -3.103  0.00  0.00    +0.089 C 
ATOM     19  C   UNL     1      -1.308   7.379  -4.120  0.00  0.00    +0.039 C 
ENDBRANCH   5  12
TORSDOF 1
ENDMDL
MODEL 4
REMARK VINA RESULT:      -7.2      2.437      2.847
REMARK  Name = 
REMARK  1 active torsions:
REMARK  status: ('A' for Active; 'I' for Inactive)
REMARK    1  A    between atoms: N_9  and  C_10
REMARK                            x       y       z     vdW  Elec       q    Type
REMARK                         _______ _______ _______ _____ _____    ______ ____
ROOT
ATOM      1  N   UNL     1      -1.271   4.987  -1.818  0.00  0.00    -0.128 NA
ATOM      2  C   UNL     1      -1.349   5.947  -2.778  0.00  0.00    +0.087 A 
ATOM      3  C   UNL     1      -0.315   6.104  -3.672  0.00  0.00    +0.019 A 
ATOM      4  C   UNL     1       1.151   6.097  -3.423  0.00  0.00    +0.122 C 
ATOM      5  N   UNL     1       1.766   6.100  -4.749  0.00  0.00    -0.265 N 
ATOM      6  C   UNL     1       0.727   6.485  -5.656  0.00  0.00    +0.249 C 
ATOM      7  O   UNL     1       0.727   6.415  -6.922  0.00  0.00    -0.270 OA
ATOM      8  C   UNL     1      -0.505   6.702  -4.909  0.00  0.00    +0.053 A 
ATOM      9  C   UNL     1      -1.791   7.042  -5.262  0.00  0.00    +0.004 A 
ATOM     10  C   UNL     1      -2.786   7.131  -4.313  0.00  0.00    +0.002 A 
ATOM     11  C   UNL     1      -2.565   6.531  -3.104  0.00  0.00    +0.018 A 
ENDROOT
BRANCH   5  12
ATOM     12  C   UNL     1       2.651   4.835  -5.108  0.00  0.00    +0.155 C 
ATOM     13  C   UNL     1       3.533   5.662  -6.182  0.00  0.00    +0.266 C 
ATOM     14  O   UNL     1       3.509   5.006  -7.270  0.00  0.00    -0.271 OA
ATOM     15  N   UNL     1       4.733   6.241  -5.819  0.00  0.00    -0.143 NA
ATOM     16  C   UNL     1       4.735   6.996  -4.610  0.00  0.00    +0.248 C 
ATOM     17  O   UNL     1       5.443   7.971  -4.371  0.00  0.00    -0.273 OA
ATOM     18  C   UNL     1       3.820   6.487  -3.564  0.00  0.00    +0.089 C 
ATOM     19  C   UNL     1       3.660   5.037  -3.818  0.00  0.00    +0.039 C 
ENDBRANCH   5  12
TORSDOF 1
ENDMDL
MODEL 5
REMARK VINA RESULT:      -7.1      6.217      8.029
REMARK  Name = 
REMARK  1 active torsions:
REMARK  status: ('A' for Active; 'I' for Inactive)
REMARK    1  A    between atoms: N_9  and  C_10
REMARK                            x       y       z     vdW  Elec       q    Type
REMARK                         _______ _______ _______ _____ _____    ______ ____
ROOT
ATOM      1  N   UNL     1       0.868   7.491 -12.506  0.00  0.00    -0.128 NA
ATOM      2  C   UNL     1       1.044   6.305 -11.865  0.00  0.00    +0.087 A 
ATOM      3  C   UNL     1       2.284   5.973 -11.370  0.00  0.00    +0.019 A 
ATOM      4  C   UNL     1       3.621   6.132 -12.003  0.00  0.00    +0.122 C 
ATOM      5  N   UNL     1       4.584   5.807 -10.953  0.00  0.00    -0.265 N 
ATOM      6  C   UNL     1       3.834   5.132  -9.936  0.00  0.00    +0.249 C 
ATOM      7  O   UNL     1       4.192   4.857  -8.751  0.00  0.00    -0.270 OA
ATOM      8  C   UNL     1       2.438   5.053 -10.343  0.00  0.00    +0.053 A 
ATOM      9  C   UNL     1       1.296   4.556  -9.757  0.00  0.00    +0.004 A 
ATOM     10  C   UNL     1       0.073   4.669 -10.380  0.00  0.00    +0.002 A 
ATOM     11  C   UNL     1      -0.043   5.584 -11.389  0.00  0.00    +0.018 A 
ENDROOT
BRANCH   5  12
ATOM     12  C   UNL     1       5.560   6.978 -10.518  0.00  0.00    +0.155 C 
ATOM     13  C   UNL     1       6.776   5.955 -10.219  0.00  0.00    +0.266 C 
ATOM     14  O   UNL     1       7.189   6.199  -9.042  0.00  0.00    -0.271 OA
ATOM     15  N   UNL     1       7.730   5.686 -11.180  0.00  0.00    -0.143 NA
ATOM     16  C   UNL     1       7.248   5.387 -12.488  0.00  0.00    +0.248 C 
ATOM     17  O   UNL     1       7.791   4.646 -13.304  0.00  0.00    -0.273 OA
ATOM     18  C   UNL     1       6.008   6.100 -12.865  0.00  0.00    +0.089 C 
ATOM     19  C   UNL     1       5.984   7.348 -12.069  0.00  0.00    +0.039 C 
ENDBRANCH   5  12
TORSDOF 1
ENDMDL
MODEL 6
REMARK VINA RESULT:      -7.1      4.513      8.284
REMARK  Name = 
REMARK  1 active torsions:
REMARK  status: ('A' for Active; 'I' for Inactive)
REMARK    1  A    between atoms: N_9  and  C_10
REMARK                            x       y       z     vdW  Elec       q    Type
REMARK                         _______ _______ _______ _____ _____    ______ ____
ROOT
ATOM      1  N   UNL     1       7.844   7.225 -10.115  0.00  0.00    -0.128 NA
ATOM      2  C   UNL     1       7.194   6.299 -10.870  0.00  0.00    +0.087 A 
ATOM      3  C   UNL     1       5.871   6.019 -10.617  0.00  0.00    +0.019 A 
ATOM      4  C   UNL     1       5.185   5.825  -9.311  0.00  0.00    +0.122 C 
ATOM      5  N   UNL     1       3.760   5.761  -9.631  0.00  0.00    -0.265 N 
ATOM      6  C   UNL     1       3.692   5.534 -11.044  0.00  0.00    +0.249 C 
ATOM      7  O   UNL     1       2.680   5.623 -11.803  0.00  0.00    -0.270 OA
ATOM      8  C   UNL     1       5.042   5.472 -11.586  0.00  0.00    +0.053 A 
ATOM      9  C   UNL     1       5.560   5.312 -12.851  0.00  0.00    +0.004 A 
ATOM     10  C   UNL     1       6.921   5.343 -13.068  0.00  0.00    +0.002 A 
ATOM     11  C   UNL     1       7.707   5.888 -12.092  0.00  0.00    +0.018 A 
ENDROOT
BRANCH   5  12
ATOM     12  C   UNL     1       2.855   6.902  -9.006  0.00  0.00    +0.155 C 
ATOM     13  C   UNL     1       1.542   5.958  -8.994  0.00  0.00    +0.266 C 
ATOM     14  O   UNL     1       0.616   6.598  -9.584  0.00  0.00    -0.271 OA
ATOM     15  N   UNL     1       1.195   5.239  -7.867  0.00  0.00    -0.143 NA
ATOM     16  C   UNL     1       2.240   4.506  -7.235  0.00  0.00    +0.248 C 
ATOM     17  O   UNL     1       2.108   3.453  -6.614  0.00  0.00    -0.273 OA
ATOM     18  C   UNL     1       3.575   5.138  -7.319  0.00  0.00    +0.089 C 
ATOM     19  C   UNL     1       3.341   6.593  -7.460  0.00  0.00    +0.039 C 
ENDBRANCH   5  12
TORSDOF 1
ENDMDL
MODEL 7
REMARK VINA RESULT:      -7.0      2.222      3.296
REMARK  Name = 
REMARK  1 active torsions:
REMARK  status: ('A' for Active; 'I' for Inactive)
REMARK    1  A    between atoms: N_9  and  C_10
REMARK                            x       y       z     vdW  Elec       q    Type
REMARK                         _______ _______ _______ _____ _____    ______ ____
ROOT
ATOM      1  N   UNL     1      -2.810   7.672  -5.257  0.00  0.00    -0.128 NA
ATOM      2  C   UNL     1      -2.296   6.654  -4.517  0.00  0.00    +0.087 A 
ATOM      3  C   UNL     1      -0.996   6.251  -4.719  0.00  0.00    +0.019 A 
ATOM      4  C   UNL     1      -0.265   6.044  -5.997  0.00  0.00    +0.122 C 
ATOM      5  N   UNL     1       1.127   5.821  -5.611  0.00  0.00    -0.265 N 
ATOM      6  C   UNL     1       1.098   5.527  -4.210  0.00  0.00    +0.249 C 
ATOM      7  O   UNL     1       2.071   5.480  -3.399  0.00  0.00    -0.270 OA
ATOM      8  C   UNL     1      -0.279   5.581  -3.738  0.00  0.00    +0.053 A 
ATOM      9  C   UNL     1      -0.877   5.422  -2.508  0.00  0.00    +0.004 A 
ATOM     10  C   UNL     1      -2.237   5.582  -2.356  0.00  0.00    +0.002 A 
ATOM     11  C   UNL     1      -2.912   6.246  -3.342  0.00  0.00    +0.018 A 
ENDROOT
BRANCH   5  12
ATOM     12  C   UNL     1       2.174   6.888  -6.137  0.00  0.00    +0.155 C 
ATOM     13  C   UNL     1       3.379   5.810  -6.153  0.00  0.00    +0.266 C 
ATOM     14  O   UNL     1       4.342   6.315  -5.494  0.00  0.00    -0.271 OA
ATOM     15  N   UNL     1       3.697   5.119  -7.305  0.00  0.00    -0.143 NA
ATOM     16  C   UNL     1       2.609   4.536  -8.017  0.00  0.00    +0.248 C 
ATOM     17  O   UNL     1       2.656   3.509  -8.691  0.00  0.00    -0.273 OA
ATOM     18  C   UNL     1       1.345   5.303  -7.947  0.00  0.00    +0.089 C 
ATOM     19  C   UNL     1       1.726   6.715  -7.715  0.00  0.00    +0.039 C 
ENDBRANCH   5  12
TORSDOF 1
ENDMDL
MODEL 8
REMARK VINA RESULT:      -7.0      3.191      4.975
REMARK  Name = 
REMARK  1 active torsions:
REMARK  status: ('A' for Active; 'I' for Inactive)
REMARK    1  A    between atoms: N_9  and  C_10
REMARK                            x       y       z     vdW  Elec       q    Type
REMARK                         _______ _______ _______ _____ _____    ______ ____
ROOT
ATOM      1  N   UNL     1       4.127   4.799  -4.921  0.00  0.00    -0.128 NA
ATOM      2  C   UNL     1       3.756   5.167  -3.666  0.00  0.00    +0.087 A 
ATOM      3  C   UNL     1       2.432   5.422  -3.392  0.00  0.00    +0.019 A 
ATOM      4  C   UNL     1       1.435   6.179  -4.195  0.00  0.00    +0.122 C 
ATOM      5  N   UNL     1       0.154   5.953  -3.530  0.00  0.00    -0.265 N 
ATOM      6  C   UNL     1       0.477   5.441  -2.232  0.00  0.00    +0.249 C 
ATOM      7  O   UNL     1      -0.299   4.900  -1.387  0.00  0.00    -0.270 OA
ATOM      8  C   UNL     1       1.924   5.341  -2.103  0.00  0.00    +0.053 A 
ATOM      9  C   UNL     1       2.769   4.893  -1.112  0.00  0.00    +0.004 A 
ATOM     10  C   UNL     1       4.134   4.876  -1.300  0.00  0.00    +0.002 A 
ATOM     11  C   UNL     1       4.599   4.958  -2.583  0.00  0.00    +0.018 A 
ENDROOT
BRANCH   5  12
ATOM     12  C   UNL     1      -0.950   5.202  -4.383  0.00  0.00    +0.155 C 
ATOM     13  C   UNL     1      -2.161   5.870  -3.546  0.00  0.00    +0.266 C 
ATOM     14  O   UNL     1      -2.910   4.923  -3.150  0.00  0.00    -0.271 OA
ATOM     15  N   UNL     1      -2.781   7.021  -3.991  0.00  0.00    -0.143 NA
ATOM     16  C   UNL     1      -1.926   8.084  -4.406  0.00  0.00    +0.248 C 
ATOM     17  O   UNL     1      -2.178   9.284  -4.326  0.00  0.00    -0.273 OA
ATOM     18  C   UNL     1      -0.657   7.646  -5.028  0.00  0.00    +0.089 C 
ATOM     19  C   UNL     1      -0.914   6.308  -5.607  0.00  0.00    +0.039 C 
ENDBRANCH   5  12
TORSDOF 1
ENDMDL
MODEL 9
REMARK VINA RESULT:      -6.9      3.562      4.701
REMARK  Name = 
REMARK  1 active torsions:
REMARK  status: ('A' for Active; 'I' for Inactive)
REMARK    1  A    between atoms: N_9  and  C_10
REMARK                            x       y       z     vdW  Elec       q    Type
REMARK                         _______ _______ _______ _____ _____    ______ ____
ROOT
ATOM      1  N   UNL     1      -1.671   8.616  -4.613  0.00  0.00    -0.128 NA
ATOM      2  C   UNL     1      -1.779   7.295  -4.311  0.00  0.00    +0.087 A 
ATOM      3  C   UNL     1      -0.732   6.647  -3.696  0.00  0.00    +0.019 A 
ATOM      4  C   UNL     1       0.725   6.735  -3.982  0.00  0.00    +0.122 C 
ATOM      5  N   UNL     1       1.374   6.001  -2.898  0.00  0.00    -0.265 N 
ATOM      6  C   UNL     1       0.339   5.227  -2.281  0.00  0.00    +0.249 C 
ATOM      7  O   UNL     1       0.377   4.607  -1.175  0.00  0.00    -0.270 OA
ATOM      8  C   UNL     1      -0.923   5.487  -2.960  0.00  0.00    +0.053 A 
ATOM      9  C   UNL     1      -2.217   5.056  -2.774  0.00  0.00    +0.004 A 
ATOM     10  C   UNL     1      -3.240   5.524  -3.569  0.00  0.00    +0.002 A 
ATOM     11  C   UNL     1      -3.018   6.670  -4.281  0.00  0.00    +0.018 A 
ENDROOT
BRANCH   5  12
ATOM     12  C   UNL     1       2.341   6.845  -1.968  0.00  0.00    +0.155 C 
ATOM     13  C   UNL     1       3.195   5.540  -1.541  0.00  0.00    +0.266 C 
ATOM     14  O   UNL     1       3.234   5.517  -0.271  0.00  0.00    -0.271 OA
ATOM     15  N   UNL     1       4.350   5.196  -2.216  0.00  0.00    -0.143 NA
ATOM     16  C   UNL     1       4.280   5.200  -3.639  0.00  0.00    +0.248 C 
ATOM     17  O   UNL     1       4.923   4.475  -4.394  0.00  0.00    -0.273 OA
ATOM     18  C   UNL     1       3.375   6.224  -4.208  0.00  0.00    +0.089 C 
ATOM     19  C   UNL     1       3.308   7.321  -3.217  0.00  0.00    +0.039 C 
ENDBRANCH   5  12
TORSDOF 1
ENDMDL
