MODEL 1
REMARK VINA RESULT:      -9.4      0.000      0.000
REMARK  Name = 
REMARK  7 active torsions:
REMARK  status: ('A' for Active; 'I' for Inactive)
REMARK    1  A    between atoms: N_7  and  C_8
REMARK    2  A    between atoms: C_11  and  O_12
REMARK    3  A    between atoms: O_12  and  C_13
REMARK    4  A    between atoms: C_13  and  C_14
REMARK    5  A    between atoms: C_17  and  C_18
REMARK    6  A    between atoms: C_17  and  C_24
REMARK    7  A    between atoms: C_18  and  N_19
REMARK                            x       y       z     vdW  Elec       q    Type
REMARK                         _______ _______ _______ _____ _____    ______ ____
ROOT
ATOM      1  C   UNL     1      -0.125   5.477  -6.295  0.00  0.00    +0.191 C 
ATOM      2  O   UNL     1       0.838   6.636  -5.940  0.00  0.00    -0.325 OA
ATOM      3  C   UNL     1       0.913   6.273  -4.615  0.00  0.00    +0.230 C 
ATOM      4  O   UNL     1       1.108   4.924  -4.516  0.00  0.00    -0.327 OA
ATOM      5  C   UNL     1       1.002   4.349  -5.763  0.00  0.00    +0.178 C 
ENDROOT
BRANCH   3   6
ATOM      6  C   UNL     1      -0.325   6.641  -3.868  0.00  0.00    +0.041 A 
ATOM      7  C   UNL     1      -0.617   6.088  -2.635  0.00  0.00    +0.059 A 
ATOM      8 CL   UNL     1       0.457   4.893  -1.944  0.00  0.00    -0.082 Cl
ATOM      9  C   UNL     1      -1.893   6.297  -2.163  0.00  0.00    +0.023 A 
ATOM     10  C   UNL     1      -2.893   6.800  -2.974  0.00  0.00    +0.058 A 
ATOM     11 CL   UNL     1      -4.558   6.561  -2.491  0.00  0.00    -0.082 Cl
ATOM     12  C   UNL     1      -2.555   7.463  -4.124  0.00  0.00    +0.011 A 
ATOM     13  C   UNL     1      -1.212   7.522  -4.472  0.00  0.00    +0.002 A 
ENDBRANCH   3   6
BRANCH   1  14
ATOM     14  C   UNL     1       0.447   5.387  -7.872  0.00  0.00    +0.237 C 
BRANCH  14  15
ATOM     15  O   UNL     1       1.739   4.890  -7.770  0.00  0.00    -0.473 OA
BRANCH  15  19
ATOM     16  C   UNL     1       4.982   6.114  -9.921  0.00  0.00    +0.048 A 
ATOM     17  C   UNL     1       3.774   6.767 -10.112  0.00  0.00    +0.018 A 
ATOM     18  C   UNL     1       2.615   6.293  -9.507  0.00  0.00    +0.038 A 
ATOM     19  C   UNL     1       2.603   5.068  -8.850  0.00  0.00    +0.139 A 
ATOM     20  C   UNL     1       3.748   4.301  -9.009  0.00  0.00    +0.038 A 
ATOM     21  C   UNL     1       4.880   4.757  -9.640  0.00  0.00    +0.018 A 
BRANCH  16  27
ATOM     22  C   UNL     1       7.375   6.079 -15.270  0.00  0.00    +0.095 C 
ATOM     23  C   UNL     1       6.979   5.663 -13.941  0.00  0.00    +0.226 C 
ATOM     24  N   UNL     1       7.385   6.501 -12.853  0.00  0.00    -0.276 N 
ATOM     25  C   UNL     1       6.643   7.719 -12.658  0.00  0.00    +0.115 C 
ATOM     26  C   UNL     1       6.211   7.808 -11.224  0.00  0.00    +0.112 C 
ATOM     27  N   UNL     1       6.182   6.503 -10.584  0.00  0.00    -0.304 N 
ATOM     28  C   UNL     1       7.412   5.760 -10.522  0.00  0.00    +0.112 C 
ATOM     29  C   UNL     1       8.200   5.904 -11.816  0.00  0.00    +0.115 C 
ATOM     30  O   UNL     1       5.823   5.170 -13.833  0.00  0.00    -0.275 OA
ENDBRANCH  16  27
ENDBRANCH  15  19
ENDBRANCH  14  15
ENDBRANCH   1  14
BRANCH   3  31
ATOM     31  C   UNL     1       2.067   6.962  -3.905  0.00  0.00    +0.168 C 
BRANCH  31  32
ATOM     32  N   UNL     1       3.335   6.380  -4.336  0.00  0.00    -0.302 N 
ATOM     33  C   UNL     1       4.012   5.411  -3.676  0.00  0.00    +0.179 A 
ATOM     34  N   UNL     1       4.867   4.807  -4.528  0.00  0.00    -0.222 NA
ATOM     35  C   UNL     1       4.723   5.405  -5.713  0.00  0.00    +0.119 A 
ATOM     36  C   UNL     1       4.004   6.575  -5.495  0.00  0.00    +0.098 A 
ENDBRANCH  31  32
ENDBRANCH   3  31
TORSDOF 7
ENDMDL
MODEL 2
REMARK VINA RESULT:      -9.4      3.932     10.116
REMARK  Name = 
REMARK  7 active torsions:
REMARK  status: ('A' for Active; 'I' for Inactive)
REMARK    1  A    between atoms: N_7  and  C_8
REMARK    2  A    between atoms: C_11  and  O_12
REMARK    3  A    between atoms: O_12  and  C_13
REMARK    4  A    between atoms: C_13  and  C_14
REMARK    5  A    between atoms: C_17  and  C_18
REMARK    6  A    between atoms: C_17  and  C_24
REMARK    7  A    between atoms: C_18  and  N_19
REMARK                            x       y       z     vdW  Elec       q    Type
REMARK                         _______ _______ _______ _____ _____    ______ ____
ROOT
ATOM      1  C   UNL     1       5.090   5.363  -8.590  0.00  0.00    +0.191 C 
ATOM      2  O   UNL     1       4.177   6.524  -9.053  0.00  0.00    -0.325 OA
ATOM      3  C   UNL     1       4.126   6.072 -10.351  0.00  0.00    +0.230 C 
ATOM      4  O   UNL     1       3.890   4.726 -10.363  0.00  0.00    -0.327 OA
ATOM      5  C   UNL     1       3.943   4.236  -9.077  0.00  0.00    +0.178 C 
ENDROOT
BRANCH   3   6
ATOM      6  C   UNL     1       5.397   6.349 -11.084  0.00  0.00    +0.041 A 
ATOM      7  C   UNL     1       5.642   5.812 -12.334  0.00  0.00    +0.059 A 
ATOM      8 CL   UNL     1       4.465   4.744 -13.066  0.00  0.00    -0.082 Cl
ATOM      9  C   UNL     1       6.934   5.918 -12.798  0.00  0.00    +0.023 A 
ATOM     10  C   UNL     1       7.972   6.299 -11.968  0.00  0.00    +0.058 A 
ATOM     11 CL   UNL     1       9.611   5.924 -12.457  0.00  0.00    -0.082 Cl
ATOM     12  C   UNL     1       7.692   6.953 -10.798  0.00  0.00    +0.011 A 
ATOM     13  C   UNL     1       6.358   7.124 -10.450  0.00  0.00    +0.002 A 
ENDBRANCH   3   6
BRANCH   1  14
ATOM     14  C   UNL     1       4.472   5.401  -7.028  0.00  0.00    +0.237 C 
BRANCH  14  15
ATOM     15  O   UNL     1       3.093   5.327  -7.173  0.00  0.00    -0.473 OA
BRANCH  15  19
ATOM     16  C   UNL     1      -0.250   6.155  -4.990  0.00  0.00    +0.048 A 
ATOM     17  C   UNL     1       0.474   7.211  -5.521  0.00  0.00    +0.018 A 
ATOM     18  C   UNL     1       1.692   6.982  -6.150  0.00  0.00    +0.038 A 
ATOM     19  C   UNL     1       2.294   5.730  -6.105  0.00  0.00    +0.139 A 
ATOM     20  C   UNL     1       1.693   4.816  -5.251  0.00  0.00    +0.038 A 
ATOM     21  C   UNL     1       0.507   5.057  -4.601  0.00  0.00    +0.018 A 
BRANCH  16  27
ATOM     22  C   UNL     1      -2.123   6.759   0.531  0.00  0.00    +0.095 C 
ATOM     23  C   UNL     1      -1.716   6.159  -0.723  0.00  0.00    +0.226 C 
ATOM     24  N   UNL     1      -2.437   6.555  -1.894  0.00  0.00    -0.276 N 
ATOM     25  C   UNL     1      -2.123   7.846  -2.447  0.00  0.00    +0.115 C 
ATOM     26  C   UNL     1      -1.844   7.699  -3.914  0.00  0.00    +0.112 C 
ATOM     27  N   UNL     1      -1.461   6.340  -4.260  0.00  0.00    -0.304 N 
ATOM     28  C   UNL     1      -2.404   5.288  -3.987  0.00  0.00    +0.112 C 
ATOM     29  C   UNL     1      -3.101   5.516  -2.654  0.00  0.00    +0.115 C 
ATOM     30  O   UNL     1      -0.474   6.003  -0.887  0.00  0.00    -0.275 OA
ENDBRANCH  16  27
ENDBRANCH  15  19
ENDBRANCH  14  15
ENDBRANCH   1  14
BRANCH   3  31
ATOM     31  C   UNL     1       3.016   6.746 -11.142  0.00  0.00    +0.168 C 
BRANCH  31  32
ATOM     32  N   UNL     1       1.721   6.203 -10.740  0.00  0.00    -0.302 N 
ATOM     33  C   UNL     1       1.084   5.177 -11.352  0.00  0.00    +0.179 A 
ATOM     34  N   UNL     1       0.174   4.652 -10.505  0.00  0.00    -0.222 NA
ATOM     35  C   UNL     1       0.245   5.355  -9.372  0.00  0.00    +0.119 A 
ATOM     36  C   UNL     1       0.981   6.502  -9.650  0.00  0.00    +0.098 A 
ENDBRANCH  31  32
ENDBRANCH   3  31
TORSDOF 7
ENDMDL
MODEL 3
REMARK VINA RESULT:      -9.2      2.131      3.817
REMARK  Name = 
REMARK  7 active torsions:
REMARK  status: ('A' for Active; 'I' for Inactive)
REMARK    1  A    between atoms: N_7  and  C_8
REMARK    2  A    between atoms: C_11  and  O_12
REMARK    3  A    between atoms: O_12  and  C_13
REMARK    4  A    between atoms: C_13  and  C_14
REMARK    5  A    between atoms: C_17  and  C_18
REMARK    6  A    between atoms: C_17  and  C_24
REMARK    7  A    between atoms: C_18  and  N_19
REMARK                            x       y       z     vdW  Elec       q    Type
REMARK                         _______ _______ _______ _____ _____    ______ ____
ROOT
ATOM      1  C   UNL     1       2.449   5.307  -5.108  0.00  0.00    +0.191 C 
ATOM      2  O   UNL     1       1.310   4.903  -4.142  0.00  0.00    -0.325 OA
ATOM      3  C   UNL     1       1.209   6.166  -3.606  0.00  0.00    +0.230 C 
ATOM      4  O   UNL     1       1.207   7.095  -4.608  0.00  0.00    -0.327 OA
ATOM      5  C   UNL     1       1.469   6.478  -5.811  0.00  0.00    +0.178 C 
ENDROOT
BRANCH   3   6
ATOM      6  C   UNL     1       2.335   6.461  -2.671  0.00  0.00    +0.041 A 
ATOM      7  C   UNL     1       2.533   5.721  -1.521  0.00  0.00    +0.059 A 
ATOM      8 CL   UNL     1       1.418   4.436  -1.114  0.00  0.00    -0.082 Cl
ATOM      9  C   UNL     1       3.430   6.238  -0.613  0.00  0.00    +0.023 A 
ATOM     10  C   UNL     1       3.904   7.532  -0.720  0.00  0.00    +0.058 A 
ATOM     11 CL   UNL     1       4.606   8.282   0.698  0.00  0.00    -0.082 Cl
ATOM     12  C   UNL     1       3.811   8.185  -1.920  0.00  0.00    +0.011 A 
ATOM     13  C   UNL     1       3.156   7.543  -2.963  0.00  0.00    +0.002 A 
ENDBRANCH   3   6
BRANCH   1  14
ATOM     14  C   UNL     1       1.991   4.160  -6.247  0.00  0.00    +0.237 C 
BRANCH  14  15
ATOM     15  O   UNL     1       2.017   4.819  -7.469  0.00  0.00    -0.473 OA
BRANCH  15  19
ATOM     16  C   UNL     1       5.198   5.858  -9.799  0.00  0.00    +0.048 A 
ATOM     17  C   UNL     1       4.076   5.319 -10.410  0.00  0.00    +0.018 A 
ATOM     18  C   UNL     1       3.029   4.822  -9.643  0.00  0.00    +0.038 A 
ATOM     19  C   UNL     1       3.154   4.691  -8.265  0.00  0.00    +0.139 A 
ATOM     20  C   UNL     1       4.429   4.908  -7.764  0.00  0.00    +0.038 A 
ATOM     21  C   UNL     1       5.474   5.364  -8.531  0.00  0.00    +0.018 A 
BRANCH  16  27
ATOM     22  C   UNL     1       7.174   6.109 -15.311  0.00  0.00    +0.095 C 
ATOM     23  C   UNL     1       6.890   5.627 -13.976  0.00  0.00    +0.226 C 
ATOM     24  N   UNL     1       7.362   6.426 -12.885  0.00  0.00    -0.276 N 
ATOM     25  C   UNL     1       6.615   7.618 -12.579  0.00  0.00    +0.115 C 
ATOM     26  C   UNL     1       6.292   7.635 -11.114  0.00  0.00    +0.112 C 
ATOM     27  N   UNL     1       6.337   6.303 -10.533  0.00  0.00    -0.304 N 
ATOM     28  C   UNL     1       7.582   5.584 -10.598  0.00  0.00    +0.112 C 
ATOM     29  C   UNL     1       8.265   5.801 -11.940  0.00  0.00    +0.115 C 
ATOM     30  O   UNL     1       5.754   5.106 -13.803  0.00  0.00    -0.275 OA
ENDBRANCH  16  27
ENDBRANCH  15  19
ENDBRANCH  14  15
ENDBRANCH   1  14
BRANCH   3  31
ATOM     31  C   UNL     1      -0.072   6.341  -2.807  0.00  0.00    +0.168 C 
BRANCH  31  32
ATOM     32  N   UNL     1      -1.203   6.518  -3.714  0.00  0.00    -0.302 N 
ATOM     33  C   UNL     1      -1.733   7.712  -4.073  0.00  0.00    +0.179 A 
ATOM     34  N   UNL     1      -2.434   7.559  -5.216  0.00  0.00    -0.222 NA
ATOM     35  C   UNL     1      -2.343   6.273  -5.561  0.00  0.00    +0.119 A 
ATOM     36  C   UNL     1      -1.844   5.589  -4.458  0.00  0.00    +0.098 A 
ENDBRANCH  31  32
ENDBRANCH   3  31
TORSDOF 7
ENDMDL
MODEL 4
REMARK VINA RESULT:      -9.2      4.410     10.082
REMARK  Name = 
REMARK  7 active torsions:
REMARK  status: ('A' for Active; 'I' for Inactive)
REMARK    1  A    between atoms: N_7  and  C_8
REMARK    2  A    between atoms: C_11  and  O_12
REMARK    3  A    between atoms: O_12  and  C_13
REMARK    4  A    between atoms: C_13  and  C_14
REMARK    5  A    between atoms: C_17  and  C_18
REMARK    6  A    between atoms: C_17  and  C_24
REMARK    7  A    between atoms: C_18  and  N_19
REMARK                            x       y       z     vdW  Elec       q    Type
REMARK                         _______ _______ _______ _____ _____    ______ ____
ROOT
ATOM      1  C   UNL     1       4.521   6.005  -8.902  0.00  0.00    +0.191 C 
ATOM      2  O   UNL     1       3.605   6.910  -9.760  0.00  0.00    -0.325 OA
ATOM      3  C   UNL     1       3.801   6.164 -10.899  0.00  0.00    +0.230 C 
ATOM      4  O   UNL     1       3.678   4.834 -10.608  0.00  0.00    -0.327 OA
ATOM      5  C   UNL     1       3.560   4.669  -9.246  0.00  0.00    +0.178 C 
ENDROOT
BRANCH   3   6
ATOM      6  C   UNL     1       5.148   6.407 -11.496  0.00  0.00    +0.041 A 
ATOM      7  C   UNL     1       5.557   5.759 -12.647  0.00  0.00    +0.059 A 
ATOM      8 CL   UNL     1       4.501   4.588 -13.405  0.00  0.00    -0.082 Cl
ATOM      9  C   UNL     1       6.894   5.860 -12.958  0.00  0.00    +0.023 A 
ATOM     10  C   UNL     1       7.814   6.352 -12.051  0.00  0.00    +0.058 A 
ATOM     11 CL   UNL     1       9.507   5.983 -12.296  0.00  0.00    -0.082 Cl
ATOM     12  C   UNL     1       7.377   7.107 -10.994  0.00  0.00    +0.011 A 
ATOM     13  C   UNL     1       6.008   7.270 -10.830  0.00  0.00    +0.002 A 
ENDBRANCH   3   6
BRANCH   1  14
ATOM     14  C   UNL     1       3.657   6.335  -7.499  0.00  0.00    +0.237 C 
BRANCH  14  15
ATOM     15  O   UNL     1       4.005   5.332  -6.604  0.00  0.00    -0.473 OA
BRANCH  15  19
ATOM     16  C   UNL     1       3.756   6.281  -2.646  0.00  0.00    +0.048 A 
ATOM     17  C   UNL     1       3.959   7.303  -3.561  0.00  0.00    +0.018 A 
ATOM     18  C   UNL     1       4.190   7.010  -4.901  0.00  0.00    +0.038 A 
ATOM     19  C   UNL     1       4.399   5.701  -5.319  0.00  0.00    +0.139 A 
ATOM     20  C   UNL     1       4.544   4.771  -4.300  0.00  0.00    +0.038 A 
ATOM     21  C   UNL     1       4.352   5.069  -2.972  0.00  0.00    +0.018 A 
BRANCH  16  27
ATOM     22  C   UNL     1       2.807  10.701   1.084  0.00  0.00    +0.095 C 
ATOM     23  C   UNL     1       3.483   9.743   0.235  0.00  0.00    +0.226 C 
ATOM     24  N   UNL     1       3.251   8.357   0.510  0.00  0.00    -0.276 N 
ATOM     25  C   UNL     1       1.995   7.808   0.074  0.00  0.00    +0.115 C 
ATOM     26  C   UNL     1       2.251   6.556  -0.712  0.00  0.00    +0.112 C 
ATOM     27  N   UNL     1       3.601   6.519  -1.249  0.00  0.00    -0.304 N 
ATOM     28  C   UNL     1       4.695   6.562  -0.314  0.00  0.00    +0.112 C 
ATOM     29  C   UNL     1       4.402   7.534   0.819  0.00  0.00    +0.115 C 
ATOM     30  O   UNL     1       3.557  10.039  -0.989  0.00  0.00    -0.275 OA
ENDBRANCH  16  27
ENDBRANCH  15  19
ENDBRANCH  14  15
ENDBRANCH   1  14
BRANCH   3  31
ATOM     31  C   UNL     1       2.784   6.500 -11.978  0.00  0.00    +0.168 C 
BRANCH  31  32
ATOM     32  N   UNL     1       1.449   6.095 -11.545  0.00  0.00    -0.302 N 
ATOM     33  C   UNL     1       0.790   4.995 -11.979  0.00  0.00    +0.179 A 
ATOM     34  N   UNL     1      -0.178   4.680 -11.093  0.00  0.00    -0.222 NA
ATOM     35  C   UNL     1      -0.121   5.586 -10.114  0.00  0.00    +0.119 A 
ATOM     36  C   UNL     1       0.680   6.628 -10.570  0.00  0.00    +0.098 A 
ENDBRANCH  31  32
ENDBRANCH   3  31
TORSDOF 7
ENDMDL
MODEL 5
REMARK VINA RESULT:      -9.1      2.433      4.423
REMARK  Name = 
REMARK  7 active torsions:
REMARK  status: ('A' for Active; 'I' for Inactive)
REMARK    1  A    between atoms: N_7  and  C_8
REMARK    2  A    between atoms: C_11  and  O_12
REMARK    3  A    between atoms: O_12  and  C_13
REMARK    4  A    between atoms: C_13  and  C_14
REMARK    5  A    between atoms: C_17  and  C_18
REMARK    6  A    between atoms: C_17  and  C_24
REMARK    7  A    between atoms: C_18  and  N_19
REMARK                            x       y       z     vdW  Elec       q    Type
REMARK                         _______ _______ _______ _____ _____    ______ ____
ROOT
ATOM      1  C   UNL     1       1.800   5.305  -4.831  0.00  0.00    +0.191 C 
ATOM      2  O   UNL     1       0.951   4.814  -3.634  0.00  0.00    -0.325 OA
ATOM      3  C   UNL     1       1.036   6.020  -2.977  0.00  0.00    +0.230 C 
ATOM      4  O   UNL     1       0.793   7.042  -3.852  0.00  0.00    -0.327 OA
ATOM      5  C   UNL     1       0.703   6.542  -5.132  0.00  0.00    +0.178 C 
ENDROOT
BRANCH   3   6
ATOM      6  C   UNL     1       2.380   6.219  -2.359  0.00  0.00    +0.041 A 
ATOM      7  C   UNL     1       2.888   5.329  -1.430  0.00  0.00    +0.059 A 
ATOM      8 CL   UNL     1       1.925   3.960  -0.924  0.00  0.00    -0.082 Cl
ATOM      9  C   UNL     1       4.005   5.743  -0.741  0.00  0.00    +0.023 A 
ATOM     10  C   UNL     1       4.438   7.056  -0.783  0.00  0.00    +0.058 A 
ATOM     11 CL   UNL     1       5.512   7.620   0.478  0.00  0.00    -0.082 Cl
ATOM     12  C   UNL     1       4.016   7.870  -1.801  0.00  0.00    +0.011 A 
ATOM     13  C   UNL     1       3.092   7.360  -2.703  0.00  0.00    +0.002 A 
ENDBRANCH   3   6
BRANCH   1  14
ATOM     14  C   UNL     1       1.019   4.275  -5.904  0.00  0.00    +0.237 C 
BRANCH  14  15
ATOM     15  O   UNL     1       1.978   3.921  -6.843  0.00  0.00    -0.473 OA
BRANCH  15  19
ATOM     16  C   UNL     1       4.093   5.742  -9.817  0.00  0.00    +0.048 A 
ATOM     17  C   UNL     1       4.670   5.639  -8.561  0.00  0.00    +0.018 A 
ATOM     18  C   UNL     1       3.932   5.154  -7.487  0.00  0.00    +0.038 A 
ATOM     19  C   UNL     1       2.564   4.932  -7.603  0.00  0.00    +0.139 A 
ATOM     20  C   UNL     1       1.987   5.399  -8.775  0.00  0.00    +0.038 A 
ATOM     21  C   UNL     1       2.715   5.913  -9.822  0.00  0.00    +0.018 A 
BRANCH  16  27
ATOM     22  C   UNL     1       9.394   5.757 -12.317  0.00  0.00    +0.095 C 
ATOM     23  C   UNL     1       8.280   6.103 -11.459  0.00  0.00    +0.226 C 
ATOM     24  N   UNL     1       7.054   6.466 -12.105  0.00  0.00    -0.276 N 
ATOM     25  C   UNL     1       6.262   5.394 -12.647  0.00  0.00    +0.115 C 
ATOM     26  C   UNL     1       4.851   5.526 -12.154  0.00  0.00    +0.112 C 
ATOM     27  N   UNL     1       4.774   6.311 -10.933  0.00  0.00    -0.304 N 
ATOM     28  C   UNL     1       5.246   7.669 -10.979  0.00  0.00    +0.112 C 
ATOM     29  C   UNL     1       6.510   7.777 -11.819  0.00  0.00    +0.115 C 
ATOM     30  O   UNL     1       8.148   5.411 -10.413  0.00  0.00    -0.275 OA
ENDBRANCH  16  27
ENDBRANCH  15  19
ENDBRANCH  14  15
ENDBRANCH   1  14
BRANCH   3  31
ATOM     31  C   UNL     1       0.022   6.122  -1.849  0.00  0.00    +0.168 C 
BRANCH  31  32
ATOM     32  N   UNL     1      -1.328   6.192  -2.400  0.00  0.00    -0.302 N 
ATOM     33  C   UNL     1      -2.039   5.133  -2.856  0.00  0.00    +0.179 A 
ATOM     34  N   UNL     1      -3.350   5.454  -2.874  0.00  0.00    -0.222 NA
ATOM     35  C   UNL     1      -3.450   6.710  -2.435  0.00  0.00    +0.119 A 
ATOM     36  C   UNL     1      -2.169   7.250  -2.447  0.00  0.00    +0.098 A 
ENDBRANCH  31  32
ENDBRANCH   3  31
TORSDOF 7
ENDMDL
MODEL 6
REMARK VINA RESULT:      -8.8      3.987     10.055
REMARK  Name = 
REMARK  7 active torsions:
REMARK  status: ('A' for Active; 'I' for Inactive)
REMARK    1  A    between atoms: N_7  and  C_8
REMARK    2  A    between atoms: C_11  and  O_12
REMARK    3  A    between atoms: O_12  and  C_13
REMARK    4  A    between atoms: C_13  and  C_14
REMARK    5  A    between atoms: C_17  and  C_18
REMARK    6  A    between atoms: C_17  and  C_24
REMARK    7  A    between atoms: C_18  and  N_19
REMARK                            x       y       z     vdW  Elec       q    Type
REMARK                         _______ _______ _______ _____ _____    ______ ____
ROOT
ATOM      1  C   UNL     1       4.784   5.698  -8.655  0.00  0.00    +0.191 C 
ATOM      2  O   UNL     1       3.849   6.713  -9.355  0.00  0.00    -0.325 OA
ATOM      3  C   UNL     1       3.949   6.085 -10.575  0.00  0.00    +0.230 C 
ATOM      4  O   UNL     1       3.799   4.736 -10.414  0.00  0.00    -0.327 OA
ATOM      5  C   UNL     1       3.760   4.432  -9.071  0.00  0.00    +0.178 C 
ENDROOT
BRANCH   3   6
ATOM      6  C   UNL     1       5.264   6.353 -11.229  0.00  0.00    +0.041 A 
ATOM      7  C   UNL     1       5.599   5.776 -12.440  0.00  0.00    +0.059 A 
ATOM      8 CL   UNL     1       4.487   4.668 -13.211  0.00  0.00    -0.082 Cl
ATOM      9  C   UNL     1       6.919   5.883 -12.818  0.00  0.00    +0.023 A 
ATOM     10  C   UNL     1       7.894   6.306 -11.935  0.00  0.00    +0.058 A 
ATOM     11 CL   UNL     1       9.566   5.936 -12.297  0.00  0.00    -0.082 Cl
ATOM     12  C   UNL     1       7.527   6.996 -10.809  0.00  0.00    +0.011 A 
ATOM     13  C   UNL     1       6.172   7.162 -10.559  0.00  0.00    +0.002 A 
ENDBRANCH   3   6
BRANCH   1  14
ATOM     14  C   UNL     1       4.020   5.903  -7.173  0.00  0.00    +0.237 C 
BRANCH  14  15
ATOM     15  O   UNL     1       5.042   6.090  -6.251  0.00  0.00    -0.473 OA
BRANCH  15  19
ATOM     16  C   UNL     1       2.771   6.162  -2.865  0.00  0.00    +0.048 A 
ATOM     17  C   UNL     1       3.301   7.354  -3.333  0.00  0.00    +0.018 A 
ATOM     18  C   UNL     1       4.193   7.355  -4.399  0.00  0.00    +0.038 A 
ATOM     19  C   UNL     1       4.708   6.165  -4.900  0.00  0.00    +0.139 A 
ATOM     20  C   UNL     1       4.417   5.034  -4.151  0.00  0.00    +0.038 A 
ATOM     21  C   UNL     1       3.564   5.041  -3.074  0.00  0.00    +0.018 A 
BRANCH  16  27
ATOM     22  C   UNL     1      -2.877   6.772  -1.423  0.00  0.00    +0.095 C 
ATOM     23  C   UNL     1      -1.490   7.082  -1.701  0.00  0.00    +0.226 C 
ATOM     24  N   UNL     1      -0.504   6.388  -0.929  0.00  0.00    -0.276 N 
ATOM     25  C   UNL     1      -0.237   5.020  -1.290  0.00  0.00    +0.115 C 
ATOM     26  C   UNL     1       1.242   4.835  -1.457  0.00  0.00    +0.112 C 
ATOM     27  N   UNL     1       1.920   6.092  -1.722  0.00  0.00    -0.304 N 
ATOM     28  C   UNL     1       1.818   7.131  -0.732  0.00  0.00    +0.112 C 
ATOM     29  C   UNL     1       0.416   7.186  -0.145  0.00  0.00    +0.115 C 
ATOM     30  O   UNL     1      -1.192   7.257  -2.914  0.00  0.00    -0.275 OA
ENDBRANCH  16  27
ENDBRANCH  15  19
ENDBRANCH  14  15
ENDBRANCH   1  14
BRANCH   3  31
ATOM     31  C   UNL     1       2.879   6.560 -11.545  0.00  0.00    +0.168 C 
BRANCH  31  32
ATOM     32  N   UNL     1       1.568   6.092 -11.105  0.00  0.00    -0.302 N 
ATOM     33  C   UNL     1       0.895   5.045 -11.639  0.00  0.00    +0.179 A 
ATOM     34  N   UNL     1      -0.030   4.615 -10.756  0.00  0.00    -0.222 NA
ATOM     35  C   UNL     1       0.066   5.397  -9.678  0.00  0.00    +0.119 A 
ATOM     36  C   UNL     1       0.840   6.495 -10.039  0.00  0.00    +0.098 A 
ENDBRANCH  31  32
ENDBRANCH   3  31
TORSDOF 7
ENDMDL
MODEL 7
REMARK VINA RESULT:      -8.5      3.058      5.474
REMARK  Name = 
REMARK  7 active torsions:
REMARK  status: ('A' for Active; 'I' for Inactive)
REMARK    1  A    between atoms: N_7  and  C_8
REMARK    2  A    between atoms: C_11  and  O_12
REMARK    3  A    between atoms: O_12  and  C_13
REMARK    4  A    between atoms: C_13  and  C_14
REMARK    5  A    between atoms: C_17  and  C_18
REMARK    6  A    between atoms: C_17  and  C_24
REMARK    7  A    between atoms: C_18  and  N_19
REMARK                            x       y       z     vdW  Elec       q    Type
REMARK                         _______ _______ _______ _____ _____    ______ ____
ROOT
ATOM      1  C   UNL     1       1.444   5.616  -2.530  0.00  0.00    +0.191 C 
ATOM      2  O   UNL     1       0.766   6.891  -1.973  0.00  0.00    -0.325 OA
ATOM      3  C   UNL     1      -0.503   6.393  -2.158  0.00  0.00    +0.230 C 
ATOM      4  O   UNL     1      -0.566   5.107  -1.700  0.00  0.00    -0.327 OA
ATOM      5  C   UNL     1       0.695   4.677  -1.354  0.00  0.00    +0.178 C 
ENDROOT
BRANCH   3   6
ATOM      6  C   UNL     1      -0.903   6.417  -3.596  0.00  0.00    +0.041 A 
ATOM      7  C   UNL     1      -2.095   5.862  -4.024  0.00  0.00    +0.059 A 
ATOM      8 CL   UNL     1      -3.146   5.069  -2.873  0.00  0.00    -0.082 Cl
ATOM      9  C   UNL     1      -2.239   5.710  -5.385  0.00  0.00    +0.023 A 
ATOM     10  C   UNL     1      -1.169   5.857  -6.248  0.00  0.00    +0.058 A 
ATOM     11 CL   UNL     1      -1.289   5.164  -7.851  0.00  0.00    -0.082 Cl
ATOM     12  C   UNL     1      -0.055   6.535  -5.827  0.00  0.00    +0.011 A 
ATOM     13  C   UNL     1      -0.015   6.969  -4.509  0.00  0.00    +0.002 A 
ENDBRANCH   3   6
BRANCH   1  14
ATOM     14  C   UNL     1       2.806   5.832  -1.570  0.00  0.00    +0.237 C 
BRANCH  14  15
ATOM     15  O   UNL     1       3.827   5.149  -2.217  0.00  0.00    -0.473 OA
BRANCH  15  19
ATOM     16  C   UNL     1       3.720   6.169  -6.164  0.00  0.00    +0.048 A 
ATOM     17  C   UNL     1       4.377   5.005  -5.798  0.00  0.00    +0.018 A 
ATOM     18  C   UNL     1       4.558   4.693  -4.455  0.00  0.00    +0.038 A 
ATOM     19  C   UNL     1       4.250   5.614  -3.461  0.00  0.00    +0.139 A 
ATOM     20  C   UNL     1       3.940   6.889  -3.912  0.00  0.00    +0.038 A 
ATOM     21  C   UNL     1       3.796   7.205  -5.242  0.00  0.00    +0.018 A 
BRANCH  16  27
ATOM     22  C   UNL     1       0.704   4.784 -10.995  0.00  0.00    +0.095 C 
ATOM     23  C   UNL     1       1.734   4.800  -9.977  0.00  0.00    +0.226 C 
ATOM     24  N   UNL     1       2.382   6.053  -9.731  0.00  0.00    -0.276 N 
ATOM     25  C   UNL     1       1.650   7.024  -8.960  0.00  0.00    +0.115 C 
ATOM     26  C   UNL     1       2.518   7.520  -7.842  0.00  0.00    +0.112 C 
ATOM     27  N   UNL     1       3.581   6.581  -7.522  0.00  0.00    -0.304 N 
ATOM     28  C   UNL     1       4.521   6.254  -8.561  0.00  0.00    +0.112 C 
ATOM     29  C   UNL     1       3.818   6.108  -9.903  0.00  0.00    +0.115 C 
ATOM     30  O   UNL     1       1.510   4.103  -8.949  0.00  0.00    -0.275 OA
ENDBRANCH  16  27
ENDBRANCH  15  19
ENDBRANCH  14  15
ENDBRANCH   1  14
BRANCH   3  31
ATOM     31  C   UNL     1      -1.545   7.206  -1.407  0.00  0.00    +0.168 C 
BRANCH  31  32
ATOM     32  N   UNL     1      -1.164   7.325  -0.002  0.00  0.00    -0.302 N 
ATOM     33  C   UNL     1      -0.361   8.289   0.508  0.00  0.00    +0.179 A 
ATOM     34  N   UNL     1      -0.565   8.377   1.839  0.00  0.00    -0.222 NA
ATOM     35  C   UNL     1      -1.489   7.466   2.154  0.00  0.00    +0.119 A 
ATOM     36  C   UNL     1      -1.614   6.618   1.059  0.00  0.00    +0.098 A 
ENDBRANCH  31  32
ENDBRANCH   3  31
TORSDOF 7
ENDMDL
MODEL 8
REMARK VINA RESULT:      -8.5      4.428      9.314
REMARK  Name = 
REMARK  7 active torsions:
REMARK  status: ('A' for Active; 'I' for Inactive)
REMARK    1  A    between atoms: N_7  and  C_8
REMARK    2  A    between atoms: C_11  and  O_12
REMARK    3  A    between atoms: O_12  and  C_13
REMARK    4  A    between atoms: C_13  and  C_14
REMARK    5  A    between atoms: C_17  and  C_18
REMARK    6  A    between atoms: C_17  and  C_24
REMARK    7  A    between atoms: C_18  and  N_19
REMARK                            x       y       z     vdW  Elec       q    Type
REMARK                         _______ _______ _______ _____ _____    ______ ____
ROOT
ATOM      1  C   UNL     1       3.213   5.372  -6.280  0.00  0.00    +0.191 C 
ATOM      2  O   UNL     1       2.502   6.622  -5.708  0.00  0.00    -0.325 OA
ATOM      3  C   UNL     1       1.251   6.169  -6.060  0.00  0.00    +0.230 C 
ATOM      4  O   UNL     1       1.117   4.857  -5.702  0.00  0.00    -0.327 OA
ATOM      5  C   UNL     1       2.328   4.373  -5.258  0.00  0.00    +0.178 C 
ENDROOT
BRANCH   3   6
ATOM      6  C   UNL     1       1.007   6.301  -7.526  0.00  0.00    +0.041 A 
ATOM      7  C   UNL     1      -0.097   5.728  -8.130  0.00  0.00    +0.059 A 
ATOM      8 CL   UNL     1      -1.216   4.783  -7.172  0.00  0.00    -0.082 Cl
ATOM      9  C   UNL     1      -0.086   5.690  -9.505  0.00  0.00    +0.023 A 
ATOM     10  C   UNL     1       1.059   5.967 -10.229  0.00  0.00    +0.058 A 
ATOM     11 CL   UNL     1       1.153   5.414 -11.887  0.00  0.00    -0.082 Cl
ATOM     12  C   UNL     1       2.080   6.659  -9.632  0.00  0.00    +0.011 A 
ATOM     13  C   UNL     1       1.953   6.976  -8.286  0.00  0.00    +0.002 A 
ENDBRANCH   3   6
BRANCH   1  14
ATOM     14  C   UNL     1       4.469   5.487  -5.170  0.00  0.00    +0.237 C 
BRANCH  14  15
ATOM     15  O   UNL     1       3.897   5.219  -3.933  0.00  0.00    -0.473 OA
BRANCH  15  19
ATOM     16  C   UNL     1       3.679   7.790  -0.775  0.00  0.00    +0.048 A 
ATOM     17  C   UNL     1       4.251   8.237  -1.956  0.00  0.00    +0.018 A 
ATOM     18  C   UNL     1       4.472   7.355  -3.008  0.00  0.00    +0.038 A 
ATOM     19  C   UNL     1       4.295   5.987  -2.840  0.00  0.00    +0.139 A 
ATOM     20  C   UNL     1       4.074   5.575  -1.534  0.00  0.00    +0.038 A 
ATOM     21  C   UNL     1       3.892   6.448  -0.488  0.00  0.00    +0.018 A 
BRANCH  16  27
ATOM     22  C   UNL     1      -0.591  10.028   2.558  0.00  0.00    +0.095 C 
ATOM     23  C   UNL     1       0.374   9.864   1.491  0.00  0.00    +0.226 C 
ATOM     24  N   UNL     1       1.747   9.732   1.875  0.00  0.00    -0.276 N 
ATOM     25  C   UNL     1       2.158   8.455   2.399  0.00  0.00    +0.115 C 
ATOM     26  C   UNL     1       3.381   7.992   1.665  0.00  0.00    +0.112 C 
ATOM     27  N   UNL     1       3.508   8.629   0.365  0.00  0.00    -0.304 N 
ATOM     28  C   UNL     1       3.614  10.064   0.329  0.00  0.00    +0.112 C 
ATOM     29  C   UNL     1       2.685  10.703   1.351  0.00  0.00    +0.115 C 
ATOM     30  O   UNL     1       0.017   9.134   0.526  0.00  0.00    -0.275 OA
ENDBRANCH  16  27
ENDBRANCH  15  19
ENDBRANCH  14  15
ENDBRANCH   1  14
BRANCH   3  31
ATOM     31  C   UNL     1       0.150   6.954  -5.366  0.00  0.00    +0.168 C 
BRANCH  31  32
ATOM     32  N   UNL     1      -0.069   6.423  -4.023  0.00  0.00    -0.302 N 
ATOM     33  C   UNL     1      -1.120   5.655  -3.651  0.00  0.00    +0.179 A 
ATOM     34  N   UNL     1      -0.804   4.989  -2.520  0.00  0.00    -0.222 NA
ATOM     35  C   UNL     1       0.438   5.349  -2.190  0.00  0.00    +0.119 A 
ATOM     36  C   UNL     1       0.755   6.468  -2.952  0.00  0.00    +0.098 A 
ENDBRANCH  31  32
ENDBRANCH   3  31
TORSDOF 7
ENDMDL
MODEL 9
REMARK VINA RESULT:      -8.2      3.995      9.130
REMARK  Name = 
REMARK  7 active torsions:
REMARK  status: ('A' for Active; 'I' for Inactive)
REMARK    1  A    between atoms: N_7  and  C_8
REMARK    2  A    between atoms: C_11  and  O_12
REMARK    3  A    between atoms: O_12  and  C_13
REMARK    4  A    between atoms: C_13  and  C_14
REMARK    5  A    between atoms: C_17  and  C_18
REMARK    6  A    between atoms: C_17  and  C_24
REMARK    7  A    between atoms: C_18  and  N_19
REMARK                            x       y       z     vdW  Elec       q    Type
REMARK                         _______ _______ _______ _____ _____    ______ ____
ROOT
ATOM      1  C   UNL     1       2.828   7.031  -4.567  0.00  0.00    +0.191 C 
ATOM      2  O   UNL     1       2.402   5.566  -4.828  0.00  0.00    -0.325 OA
ATOM      3  C   UNL     1       1.278   5.934  -5.531  0.00  0.00    +0.230 C 
ATOM      4  O   UNL     1       1.594   6.917  -6.426  0.00  0.00    -0.327 OA
ATOM      5  C   UNL     1       2.891   7.331  -6.220  0.00  0.00    +0.178 C 
ENDROOT
BRANCH   3   6
ATOM      6  C   UNL     1       0.197   6.428  -4.627  0.00  0.00    +0.041 A 
ATOM      7  C   UNL     1       0.073   5.967  -3.330  0.00  0.00    +0.059 A 
ATOM      8 CL   UNL     1       1.171   4.742  -2.736  0.00  0.00    -0.082 Cl
ATOM      9  C   UNL     1      -1.097   6.290  -2.681  0.00  0.00    +0.023 A 
ATOM     10  C   UNL     1      -2.182   6.813  -3.360  0.00  0.00    +0.058 A 
ATOM     11 CL   UNL     1      -3.761   6.717  -2.610  0.00  0.00    -0.082 Cl
ATOM     12  C   UNL     1      -1.992   7.385  -4.590  0.00  0.00    +0.011 A 
ATOM     13  C   UNL     1      -0.721   7.332  -5.145  0.00  0.00    +0.002 A 
ENDBRANCH   3   6
BRANCH   1  14
ATOM     14  C   UNL     1       4.458   6.627  -4.521  0.00  0.00    +0.237 C 
BRANCH  14  15
ATOM     15  O   UNL     1       4.636   5.941  -3.327  0.00  0.00    -0.473 OA
BRANCH  15  19
ATOM     16  C   UNL     1       2.968   8.043  -0.255  0.00  0.00    +0.048 A 
ATOM     17  C   UNL     1       3.712   8.730  -1.202  0.00  0.00    +0.018 A 
ATOM     18  C   UNL     1       4.413   8.037  -2.183  0.00  0.00    +0.038 A 
ATOM     19  C   UNL     1       4.530   6.653  -2.133  0.00  0.00    +0.139 A 
ATOM     20  C   UNL     1       4.071   6.063  -0.964  0.00  0.00    +0.038 A 
ATOM     21  C   UNL     1       3.411   6.756   0.022  0.00  0.00    +0.018 A 
BRANCH  16  27
ATOM     22  C   UNL     1      -2.441   8.864   1.846  0.00  0.00    +0.095 C 
ATOM     23  C   UNL     1      -1.223   9.041   1.083  0.00  0.00    +0.226 C 
ATOM     24  N   UNL     1      -0.009   9.194   1.827  0.00  0.00    -0.276 N 
ATOM     25  C   UNL     1       0.560   8.001   2.396  0.00  0.00    +0.115 C 
ATOM     26  C   UNL     1       2.007   7.914   2.012  0.00  0.00    +0.112 C 
ATOM     27  N   UNL     1       2.302   8.696   0.823  0.00  0.00    -0.304 N 
ATOM     28  C   UNL     1       2.048  10.111   0.871  0.00  0.00    +0.112 C 
ATOM     29  C   UNL     1       0.756  10.406   1.619  0.00  0.00    +0.115 C 
ATOM     30  O   UNL     1      -1.122   8.354   0.030  0.00  0.00    -0.275 OA
ENDBRANCH  16  27
ENDBRANCH  15  19
ENDBRANCH  14  15
ENDBRANCH   1  14
BRANCH   3  31
ATOM     31  C   UNL     1       0.691   4.768  -6.309  0.00  0.00    +0.168 C 
BRANCH  31  32
ATOM     32  N   UNL     1       0.862   4.991  -7.743  0.00  0.00    -0.302 N 
ATOM     33  C   UNL     1       1.910   4.552  -8.479  0.00  0.00    +0.179 A 
ATOM     34  N   UNL     1       1.559   4.533  -9.782  0.00  0.00    -0.222 NA
ATOM     35  C   UNL     1       0.297   4.964  -9.853  0.00  0.00    +0.119 A 
ATOM     36  C   UNL     1      -0.007   5.537  -8.623  0.00  0.00    +0.098 A 
ENDBRANCH  31  32
ENDBRANCH   3  31
TORSDOF 7
ENDMDL
