MODEL 1
REMARK VINA RESULT:      -7.6      0.000      0.000
REMARK  Name = 
REMARK  9 active torsions:
REMARK  status: ('A' for Active; 'I' for Inactive)
REMARK    1  A    between atoms: C_4  and  O_5
REMARK    2  A    between atoms: O_5  and  C_6
REMARK    3  A    between atoms: C_11  and  O_12
REMARK    4  A    between atoms: O_12  and  C_13
REMARK    5  A    between atoms: C_21  and  C_22
REMARK    6  A    between atoms: C_25  and  C_26
REMARK    7  A    between atoms: C_32  and  N_33
REMARK    8  A    between atoms: N_33  and  C_34
REMARK    9  A    between atoms: C_36  and  C_37
REMARK                            x       y       z     vdW  Elec       q    Type
REMARK                         _______ _______ _______ _____ _____    ______ ____
ROOT
ATOM      1  O   UNL     1       2.202   6.225  -3.256  0.00  0.00    -0.326 OA
ENDROOT
BRANCH   1   9
ATOM      2  C   UNL     1       4.848   7.493  -1.089  0.00  0.00    +0.034 C 
ATOM      3  C   UNL     1       3.335   7.171  -1.590  0.00  0.00    +0.136 C 
ATOM      4  C   UNL     1       2.677   6.808  -0.057  0.00  0.00    +0.133 C 
ATOM      5  C   UNL     1       1.299   6.533  -1.038  0.00  0.00    +0.205 C 
ATOM      6  O   UNL     1       0.401   6.204   0.105  0.00  0.00    -0.219 OA
ATOM      7  C   UNL     1       1.620   4.892  -1.237  0.00  0.00    +0.239 C 
ATOM      8  O   UNL     1       0.391   4.706  -2.064  0.00  0.00    -0.215 OA
ATOM      9  C   UNL     1       2.755   5.012  -2.516  0.00  0.00    +0.269 C 
ATOM     10  O   UNL     1       3.778   5.736  -1.665  0.00  0.00    -0.330 OA
BRANCH   4  11
ATOM     11  N   UNL     1       2.148   8.160   0.423  0.00  0.00    -0.209 NA
BRANCH  11  12
ATOM     12  C   UNL     1       3.219   8.939   1.212  0.00  0.00    +0.127 C 
ATOM     13  C   UNL     1       2.163   9.758   2.291  0.00  0.00    +0.205 C 
ATOM     14  O   UNL     1       1.133  10.147   1.261  0.00  0.00    -0.218 OA
ATOM     15  C   UNL     1       2.860  11.299   2.244  0.00  0.00    +0.218 C 
ATOM     16  O   UNL     1       2.967  11.343   3.749  0.00  0.00    -0.217 OA
ATOM     17  C   UNL     1       4.534  10.925   2.129  0.00  0.00    +0.205 C 
ATOM     18  O   UNL     1       4.483   9.456   2.457  0.00  0.00    -0.216 OA
ATOM     19  C   UNL     1       4.384  10.828   0.508  0.00  0.00    +0.018 C 
ATOM     20  C   UNL     1       3.261  10.164   0.160  0.00  0.00    -0.010 C 
BRANCH  19  21
ATOM     21  C   UNL     1       4.445  12.253   0.030  0.00  0.00    +0.207 C 
ATOM     22  O   UNL     1       3.642  12.562  -1.065  0.00  0.00    -0.215 OA
ENDBRANCH  19  21
ENDBRANCH  11  12
ENDBRANCH   4  11
ENDBRANCH   1   9
BRANCH   1  23
ATOM     23  C   UNL     1       2.479   5.753  -4.696  0.00  0.00    +0.180 C 
ATOM     24  C   UNL     1       3.065   7.316  -5.050  0.00  0.00    +0.180 C 
ATOM     25  O   UNL     1       3.243   7.165  -6.499  0.00  0.00    -0.326 OA
ATOM     26  C   UNL     1       2.637   5.901  -7.022  0.00  0.00    +0.270 C 
ATOM     27  C   UNL     1       0.973   6.312  -6.791  0.00  0.00    +0.240 C 
ATOM     28  O   UNL     1       1.149   7.763  -6.458  0.00  0.00    -0.215 OA
ATOM     29  C   UNL     1       0.858   5.933  -5.157  0.00  0.00    +0.217 C 
ATOM     30  O   UNL     1       0.806   4.463  -5.530  0.00  0.00    -0.218 OA
BRANCH  24  31
ATOM     31  C   UNL     1       4.627   6.815  -4.746  0.00  0.00    +0.214 C 
ATOM     32  O   UNL     1       5.141   8.085  -4.445  0.00  0.00    -0.218 OA
ENDBRANCH  24  31
BRANCH  26  33
ATOM     33  O   UNL     1       2.539   6.317  -8.510  0.00  0.00    -0.326 OA
BRANCH  33  34
ATOM     34  C   UNL     1       3.927   5.920  -8.968  0.00  0.00    +0.180 C 
ATOM     35  C   UNL     1       4.196   7.205 -10.096  0.00  0.00    +0.180 C 
ATOM     36  O   UNL     1       3.303   6.764 -11.203  0.00  0.00    -0.324 OA
ATOM     37  C   UNL     1       1.995   6.416 -10.487  0.00  0.00    +0.302 C 
ATOM     38  O   UNL     1       1.120   6.718 -11.699  0.00  0.00    -0.187 OA
ATOM     39  C   UNL     1       2.307   4.807 -10.934  0.00  0.00    +0.243 C 
ATOM     40  O   UNL     1       1.454   4.076  -9.927  0.00  0.00    -0.215 OA
ATOM     41  C   UNL     1       3.695   4.585  -9.981  0.00  0.00    +0.217 C 
ATOM     42  O   UNL     1       4.536   4.969 -11.206  0.00  0.00    -0.218 OA
BRANCH  35  43
ATOM     43  C   UNL     1       5.647   6.543 -10.475  0.00  0.00    +0.214 C 
ATOM     44  O   UNL     1       6.513   7.516 -10.846  0.00  0.00    -0.218 OA
ENDBRANCH  35  43
ENDBRANCH  33  34
ENDBRANCH  26  33
ENDBRANCH   1  23
TORSDOF 9
ENDMDL
MODEL 2
REMARK VINA RESULT:      -7.4      3.122     11.096
REMARK  Name = 
REMARK  9 active torsions:
REMARK  status: ('A' for Active; 'I' for Inactive)
REMARK    1  A    between atoms: C_4  and  O_5
REMARK    2  A    between atoms: O_5  and  C_6
REMARK    3  A    between atoms: C_11  and  O_12
REMARK    4  A    between atoms: O_12  and  C_13
REMARK    5  A    between atoms: C_21  and  C_22
REMARK    6  A    between atoms: C_25  and  C_26
REMARK    7  A    between atoms: C_32  and  N_33
REMARK    8  A    between atoms: N_33  and  C_34
REMARK    9  A    between atoms: C_36  and  C_37
REMARK                            x       y       z     vdW  Elec       q    Type
REMARK                         _______ _______ _______ _____ _____    ______ ____
ROOT
ATOM      1  O   UNL     1       2.992   5.839  -7.657  0.00  0.00    -0.326 OA
ENDROOT
BRANCH   1   9
ATOM      2  C   UNL     1      -0.028   5.496  -9.674  0.00  0.00    +0.034 C 
ATOM      3  C   UNL     1       1.504   5.902  -9.311  0.00  0.00    +0.136 C 
ATOM      4  C   UNL     1       2.189   5.520 -10.828  0.00  0.00    +0.133 C 
ATOM      5  C   UNL     1       3.599   6.013  -9.988  0.00  0.00    +0.205 C 
ATOM      6  O   UNL     1       4.505   5.835 -11.157  0.00  0.00    -0.219 OA
ATOM      7  C   UNL     1       3.982   4.456  -9.474  0.00  0.00    +0.239 C 
ATOM      8  O   UNL     1       5.214   4.940  -8.781  0.00  0.00    -0.215 OA
ATOM      9  C   UNL     1       2.951   4.383  -8.106  0.00  0.00    +0.269 C 
ATOM     10  O   UNL     1       1.687   4.457  -8.939  0.00  0.00    -0.330 OA
BRANCH   4  11
ATOM     11  N   UNL     1       2.102   6.841 -11.593  0.00  0.00    -0.209 NA
BRANCH  11  12
ATOM     12  C   UNL     1       2.043   6.610 -13.116  0.00  0.00    +0.127 C 
ATOM     13  C   UNL     1       0.932   7.863 -13.497  0.00  0.00    +0.205 C 
ATOM     14  O   UNL     1      -0.024   7.597 -12.363  0.00  0.00    -0.218 OA
ATOM     15  C   UNL     1      -0.058   7.031 -14.588  0.00  0.00    +0.218 C 
ATOM     16  O   UNL     1       0.119   8.105 -15.635  0.00  0.00    -0.217 OA
ATOM     17  C   UNL     1       1.078   6.035 -15.408  0.00  0.00    +0.205 C 
ATOM     18  O   UNL     1       2.356   6.678 -14.936  0.00  0.00    -0.216 OA
ATOM     19  C   UNL     1       0.912   4.912 -14.237  0.00  0.00    +0.018 C 
ATOM     20  C   UNL     1       0.893   5.481 -13.013  0.00  0.00    -0.010 C 
BRANCH  19  21
ATOM     21  C   UNL     1      -0.339   4.160 -14.600  0.00  0.00    +0.207 C 
ATOM     22  O   UNL     1      -0.155   2.857 -15.056  0.00  0.00    -0.215 OA
ENDBRANCH  19  21
ENDBRANCH  11  12
ENDBRANCH   4  11
ENDBRANCH   1   9
BRANCH   1  23
ATOM     23  C   UNL     1       2.902   5.606  -6.137  0.00  0.00    +0.180 C 
ATOM     24  C   UNL     1       2.135   7.124  -5.994  0.00  0.00    +0.180 C 
ATOM     25  O   UNL     1       2.098   7.218  -4.529  0.00  0.00    -0.326 OA
ATOM     26  C   UNL     1       2.915   6.154  -3.866  0.00  0.00    +0.270 C 
ATOM     27  C   UNL     1       4.481   6.716  -4.336  0.00  0.00    +0.240 C 
ATOM     28  O   UNL     1       4.078   8.050  -4.889  0.00  0.00    -0.215 OA
ATOM     29  C   UNL     1       4.514   6.064  -5.886  0.00  0.00    +0.217 C 
ATOM     30  O   UNL     1       4.799   4.703  -5.277  0.00  0.00    -0.218 OA
BRANCH  24  31
ATOM     31  C   UNL     1       0.638   6.389  -6.043  0.00  0.00    +0.214 C 
ATOM     32  O   UNL     1      -0.032   7.349  -5.270  0.00  0.00    -0.218 OA
ENDBRANCH  24  31
BRANCH  26  33
ATOM     33  O   UNL     1       3.075   6.842  -2.488  0.00  0.00    -0.326 OA
BRANCH  33  34
ATOM     34  C   UNL     1       1.683   6.614  -1.937  0.00  0.00    +0.180 C 
ATOM     35  C   UNL     1       1.846   7.512  -0.467  0.00  0.00    +0.180 C 
ATOM     36  O   UNL     1       2.707   6.578   0.310  0.00  0.00    -0.324 OA
ATOM     37  C   UNL     1       3.816   6.211  -0.680  0.00  0.00    +0.302 C 
ATOM     38  O   UNL     1       4.851   5.938   0.405  0.00  0.00    -0.187 OA
ATOM     39  C   UNL     1       3.166   4.641  -0.655  0.00  0.00    +0.243 C 
ATOM     40  O   UNL     1       3.713   4.101  -1.953  0.00  0.00    -0.215 OA
ATOM     41  C   UNL     1       1.680   5.012  -1.389  0.00  0.00    +0.217 C 
ATOM     42  O   UNL     1       1.081   5.160   0.016  0.00  0.00    -0.218 OA
BRANCH  35  43
ATOM     43  C   UNL     1       0.321   7.075  -0.052  0.00  0.00    +0.214 C 
ATOM     44  O   UNL     1      -0.368   8.160   0.373  0.00  0.00    -0.218 OA
ENDBRANCH  35  43
ENDBRANCH  33  34
ENDBRANCH  26  33
ENDBRANCH   1  23
TORSDOF 9
ENDMDL
MODEL 3
REMARK VINA RESULT:      -7.3      2.102      3.325
REMARK  Name = 
REMARK  9 active torsions:
REMARK  status: ('A' for Active; 'I' for Inactive)
REMARK    1  A    between atoms: C_4  and  O_5
REMARK    2  A    between atoms: O_5  and  C_6
REMARK    3  A    between atoms: C_11  and  O_12
REMARK    4  A    between atoms: O_12  and  C_13
REMARK    5  A    between atoms: C_21  and  C_22
REMARK    6  A    between atoms: C_25  and  C_26
REMARK    7  A    between atoms: C_32  and  N_33
REMARK    8  A    between atoms: N_33  and  C_34
REMARK    9  A    between atoms: C_36  and  C_37
REMARK                            x       y       z     vdW  Elec       q    Type
REMARK                         _______ _______ _______ _____ _____    ______ ____
ROOT
ATOM      1  O   UNL     1       2.346   5.825  -6.010  0.00  0.00    -0.326 OA
ENDROOT
BRANCH   1   9
ATOM      2  C   UNL     1       5.157   5.205  -3.768  0.00  0.00    +0.034 C 
ATOM      3  C   UNL     1       3.748   5.836  -4.281  0.00  0.00    +0.136 C 
ATOM      4  C   UNL     1       2.940   5.799  -2.777  0.00  0.00    +0.133 C 
ATOM      5  C   UNL     1       1.688   6.427  -3.765  0.00  0.00    +0.205 C 
ATOM      6  O   UNL     1       0.718   6.583  -2.645  0.00  0.00    -0.219 OA
ATOM      7  C   UNL     1       1.032   4.913  -4.102  0.00  0.00    +0.239 C 
ATOM      8  O   UNL     1      -0.052   5.519  -4.931  0.00  0.00    -0.215 OA
ATOM      9  C   UNL     1       2.085   4.462  -5.377  0.00  0.00    +0.269 C 
ATOM     10  O   UNL     1       3.304   4.413  -4.478  0.00  0.00    -0.330 OA
BRANCH   4  11
ATOM     11  N   UNL     1       3.250   7.173  -2.182  0.00  0.00    -0.209 NA
BRANCH  11  12
ATOM     12  C   UNL     1       3.114   7.168  -0.646  0.00  0.00    +0.127 C 
ATOM     13  C   UNL     1       2.723   8.828  -0.443  0.00  0.00    +0.205 C 
ATOM     14  O   UNL     1       3.757   9.367  -1.399  0.00  0.00    -0.218 OA
ATOM     15  C   UNL     1       3.704   9.181   0.890  0.00  0.00    +0.218 C 
ATOM     16  O   UNL     1       2.532   9.744   1.658  0.00  0.00    -0.217 OA
ATOM     17  C   UNL     1       3.607   7.724   1.796  0.00  0.00    +0.205 C 
ATOM     18  O   UNL     1       2.459   7.063   1.079  0.00  0.00    -0.216 OA
ATOM     19  C   UNL     1       4.839   7.115   0.917  0.00  0.00    +0.018 C 
ATOM     20  C   UNL     1       4.692   7.403  -0.394  0.00  0.00    -0.010 C 
BRANCH  19  21
ATOM     21  C   UNL     1       6.079   7.684   1.549  0.00  0.00    +0.207 C 
ATOM     22  O   UNL     1       6.182   7.532   2.930  0.00  0.00    -0.215 OA
ENDBRANCH  19  21
ENDBRANCH  11  12
ENDBRANCH   4  11
ENDBRANCH   1   9
BRANCH   1  23
ATOM     23  C   UNL     1       2.192   5.418  -7.487  0.00  0.00    +0.180 C 
ATOM     24  C   UNL     1       3.475   6.479  -7.867  0.00  0.00    +0.180 C 
ATOM     25  O   UNL     1       3.405   6.398  -9.331  0.00  0.00    -0.326 OA
ATOM     26  C   UNL     1       2.178   5.686  -9.808  0.00  0.00    +0.270 C 
ATOM     27  C   UNL     1       1.010   6.874  -9.345  0.00  0.00    +0.240 C 
ATOM     28  O   UNL     1       1.953   7.985  -8.994  0.00  0.00    -0.215 OA
ATOM     29  C   UNL     1       0.872   6.454  -7.723  0.00  0.00    +0.217 C 
ATOM     30  O   UNL     1       0.020   5.266  -8.131  0.00  0.00    -0.218 OA
BRANCH  24  31
ATOM     31  C   UNL     1       4.562   5.216  -7.789  0.00  0.00    +0.214 C 
ATOM     32  O   UNL     1       5.439   5.706  -8.768  0.00  0.00    -0.218 OA
ENDBRANCH  24  31
BRANCH  26  33
ATOM     33  O   UNL     1       2.170   6.233 -11.256  0.00  0.00    -0.326 OA
BRANCH  33  34
ATOM     34  C   UNL     1       3.008   5.165 -11.927  0.00  0.00    +0.180 C 
ATOM     35  C   UNL     1       3.862   6.179 -13.040  0.00  0.00    +0.180 C 
ATOM     36  O   UNL     1       2.773   6.460 -14.016  0.00  0.00    -0.324 OA
ATOM     37  C   UNL     1       1.590   6.850 -13.126  0.00  0.00    +0.302 C 
ATOM     38  O   UNL     1       0.940   7.735 -14.184  0.00  0.00    -0.187 OA
ATOM     39  C   UNL     1       0.853   5.418 -13.667  0.00  0.00    +0.243 C 
ATOM     40  O   UNL     1      -0.158   5.202 -12.569  0.00  0.00    -0.215 OA
ATOM     41  C   UNL     1       1.936   4.332 -12.938  0.00  0.00    +0.217 C 
ATOM     42  O   UNL     1       2.713   4.297 -14.261  0.00  0.00    -0.218 OA
BRANCH  35  43
ATOM     43  C   UNL     1       4.603   4.851 -13.652  0.00  0.00    +0.214 C 
ATOM     44  O   UNL     1       5.947   5.001 -13.581  0.00  0.00    -0.218 OA
ENDBRANCH  35  43
ENDBRANCH  33  34
ENDBRANCH  26  33
ENDBRANCH   1  23
TORSDOF 9
ENDMDL
MODEL 4
REMARK VINA RESULT:      -7.2      1.796      2.383
REMARK  Name = 
REMARK  9 active torsions:
REMARK  status: ('A' for Active; 'I' for Inactive)
REMARK    1  A    between atoms: C_4  and  O_5
REMARK    2  A    between atoms: O_5  and  C_6
REMARK    3  A    between atoms: C_11  and  O_12
REMARK    4  A    between atoms: O_12  and  C_13
REMARK    5  A    between atoms: C_21  and  C_22
REMARK    6  A    between atoms: C_25  and  C_26
REMARK    7  A    between atoms: C_32  and  N_33
REMARK    8  A    between atoms: N_33  and  C_34
REMARK    9  A    between atoms: C_36  and  C_37
REMARK                            x       y       z     vdW  Elec       q    Type
REMARK                         _______ _______ _______ _____ _____    ______ ____
ROOT
ATOM      1  O   UNL     1       1.497   6.292  -4.062  0.00  0.00    -0.326 OA
ENDROOT
BRANCH   1   9
ATOM      2  C   UNL     1       3.372   6.249  -0.933  0.00  0.00    +0.034 C 
ATOM      3  C   UNL     1       2.135   6.549  -1.945  0.00  0.00    +0.136 C 
ATOM      4  C   UNL     1       0.874   6.244  -0.836  0.00  0.00    +0.133 C 
ATOM      5  C   UNL     1      -0.050   6.603  -2.234  0.00  0.00    +0.205 C 
ATOM      6  O   UNL     1      -1.365   6.465  -1.549  0.00  0.00    -0.219 OA
ATOM      7  C   UNL     1      -0.154   4.996  -2.724  0.00  0.00    +0.239 C 
ATOM      8  O   UNL     1      -0.978   5.366  -3.913  0.00  0.00    -0.215 OA
ATOM      9  C   UNL     1       1.363   4.875  -3.513  0.00  0.00    +0.269 C 
ATOM     10  O   UNL     1       2.149   5.073  -2.233  0.00  0.00    -0.330 OA
BRANCH   4  11
ATOM     11  N   UNL     1       0.607   7.620  -0.224  0.00  0.00    -0.209 NA
BRANCH  11  12
ATOM     12  C   UNL     1       0.654   7.573   1.316  0.00  0.00    +0.127 C 
ATOM     13  C   UNL     1      -1.003   7.922   1.608  0.00  0.00    +0.205 C 
ATOM     14  O   UNL     1      -1.125   9.035   0.600  0.00  0.00    -0.218 OA
ATOM     15  C   UNL     1      -0.831   9.028   2.878  0.00  0.00    +0.218 C 
ATOM     16  O   UNL     1      -1.778   8.238   3.750  0.00  0.00    -0.217 OA
ATOM     17  C   UNL     1       0.510   8.377   3.734  0.00  0.00    +0.205 C 
ATOM     18  O   UNL     1       0.589   7.023   3.079  0.00  0.00    -0.216 OA
ATOM     19  C   UNL     1       1.516   9.196   2.745  0.00  0.00    +0.018 C 
ATOM     20  C   UNL     1       1.111   9.115   1.459  0.00  0.00    -0.010 C 
BRANCH  19  21
ATOM     21  C   UNL     1       1.555  10.591   3.305  0.00  0.00    +0.207 C 
ATOM     22  O   UNL     1       2.752  11.283   3.134  0.00  0.00    -0.215 OA
ENDBRANCH  19  21
ENDBRANCH  11  12
ENDBRANCH   4  11
ENDBRANCH   1   9
BRANCH   1  23
ATOM     23  C   UNL     1       1.984   5.935  -5.479  0.00  0.00    +0.180 C 
ATOM     24  C   UNL     1       2.969   7.329  -5.444  0.00  0.00    +0.180 C 
ATOM     25  O   UNL     1       3.436   7.308  -6.836  0.00  0.00    -0.326 OA
ATOM     26  C   UNL     1       2.701   6.309  -7.672  0.00  0.00    +0.270 C 
ATOM     27  C   UNL     1       1.163   7.098  -7.702  0.00  0.00    +0.240 C 
ATOM     28  O   UNL     1       1.576   8.408  -7.102  0.00  0.00    -0.215 OA
ATOM     29  C   UNL     1       0.594   6.573  -6.210  0.00  0.00    +0.217 C 
ATOM     30  O   UNL     1       0.304   5.218  -6.828  0.00  0.00    -0.218 OA
BRANCH  24  31
ATOM     31  C   UNL     1       4.268   6.417  -4.931  0.00  0.00    +0.214 C 
ATOM     32  O   UNL     1       4.931   7.455  -4.260  0.00  0.00    -0.218 OA
ENDBRANCH  24  31
BRANCH  26  33
ATOM     33  O   UNL     1       3.042   6.906  -9.059  0.00  0.00    -0.326 OA
BRANCH  33  34
ATOM     34  C   UNL     1       4.387   6.249  -9.285  0.00  0.00    +0.180 C 
ATOM     35  C   UNL     1       4.933   7.240 -10.595  0.00  0.00    +0.180 C 
ATOM     36  O   UNL     1       4.075   6.710 -11.691  0.00  0.00    -0.324 OA
ATOM     37  C   UNL     1       2.677   6.684 -11.067  0.00  0.00    +0.302 C 
ATOM     38  O   UNL     1       1.956   6.853 -12.399  0.00  0.00    -0.187 OA
ATOM     39  C   UNL     1       2.781   4.992 -11.174  0.00  0.00    +0.243 C 
ATOM     40  O   UNL     1       1.751   4.592 -10.147  0.00  0.00    -0.215 OA
ATOM     41  C   UNL     1       4.040   4.782 -10.055  0.00  0.00    +0.217 C 
ATOM     42  O   UNL     1       5.023   4.804 -11.233  0.00  0.00    -0.218 OA
BRANCH  35  43
ATOM     43  C   UNL     1       6.295   6.332 -10.690  0.00  0.00    +0.214 C 
ATOM     44  O   UNL     1       7.378   7.138 -10.797  0.00  0.00    -0.218 OA
ENDBRANCH  35  43
ENDBRANCH  33  34
ENDBRANCH  26  33
ENDBRANCH   1  23
TORSDOF 9
ENDMDL
MODEL 5
REMARK VINA RESULT:      -7.0      1.513      2.095
REMARK  Name = 
REMARK  9 active torsions:
REMARK  status: ('A' for Active; 'I' for Inactive)
REMARK    1  A    between atoms: C_4  and  O_5
REMARK    2  A    between atoms: O_5  and  C_6
REMARK    3  A    between atoms: C_11  and  O_12
REMARK    4  A    between atoms: O_12  and  C_13
REMARK    5  A    between atoms: C_21  and  C_22
REMARK    6  A    between atoms: C_25  and  C_26
REMARK    7  A    between atoms: C_32  and  N_33
REMARK    8  A    between atoms: N_33  and  C_34
REMARK    9  A    between atoms: C_36  and  C_37
REMARK                            x       y       z     vdW  Elec       q    Type
REMARK                         _______ _______ _______ _____ _____    ______ ____
ROOT
ATOM      1  O   UNL     1       1.920   6.127  -3.163  0.00  0.00    -0.326 OA
ENDROOT
BRANCH   1   9
ATOM      2  C   UNL     1       5.053   7.219  -1.648  0.00  0.00    +0.034 C 
ATOM      3  C   UNL     1       3.448   7.018  -1.812  0.00  0.00    +0.136 C 
ATOM      4  C   UNL     1       3.097   6.761  -0.161  0.00  0.00    +0.133 C 
ATOM      5  C   UNL     1       1.527   6.580  -0.824  0.00  0.00    +0.205 C 
ATOM      6  O   UNL     1       0.864   6.367   0.493  0.00  0.00    -0.219 OA
ATOM      7  C   UNL     1       1.667   4.912  -1.006  0.00  0.00    +0.239 C 
ATOM      8  O   UNL     1       0.281   4.811  -1.554  0.00  0.00    -0.215 OA
ATOM      9  C   UNL     1       2.515   4.892  -2.496  0.00  0.00    +0.269 C 
ATOM     10  O   UNL     1       3.749   5.548  -1.908  0.00  0.00    -0.330 OA
BRANCH   4  11
ATOM     11  N   UNL     1       2.790   8.168   0.353  0.00  0.00    -0.209 NA
BRANCH  11  12
ATOM     12  C   UNL     1       3.273   8.358   1.805  0.00  0.00    +0.127 C 
ATOM     13  C   UNL     1       3.351  10.074   1.800  0.00  0.00    +0.205 C 
ATOM     14  O   UNL     1       4.012  10.213   0.452  0.00  0.00    -0.218 OA
ATOM     15  C   UNL     1       4.828  10.285   2.598  0.00  0.00    +0.218 C 
ATOM     16  O   UNL     1       4.199  11.219   3.605  0.00  0.00    -0.217 OA
ATOM     17  C   UNL     1       4.792   9.009   3.750  0.00  0.00    +0.205 C 
ATOM     18  O   UNL     1       3.344   8.612   3.634  0.00  0.00    -0.216 OA
ATOM     19  C   UNL     1       5.421   8.004   2.629  0.00  0.00    +0.018 C 
ATOM     20  C   UNL     1       4.833   8.183   1.427  0.00  0.00    -0.010 C 
BRANCH  19  21
ATOM     21  C   UNL     1       6.899   8.279   2.653  0.00  0.00    +0.207 C 
ATOM     22  O   UNL     1       7.641   7.537   3.569  0.00  0.00    -0.215 OA
ENDBRANCH  19  21
ENDBRANCH  11  12
ENDBRANCH   4  11
ENDBRANCH   1   9
BRANCH   1  23
ATOM     23  C   UNL     1       1.631   5.514  -4.547  0.00  0.00    +0.180 C 
ATOM     24  C   UNL     1       2.650   6.698  -5.235  0.00  0.00    +0.180 C 
ATOM     25  O   UNL     1       2.390   6.418  -6.653  0.00  0.00    -0.326 OA
ATOM     26  C   UNL     1       1.246   5.475  -6.851  0.00  0.00    +0.270 C 
ATOM     27  C   UNL     1      -0.029   6.522  -6.335  0.00  0.00    +0.240 C 
ATOM     28  O   UNL     1       0.753   7.799  -6.257  0.00  0.00    -0.215 OA
ATOM     29  C   UNL     1       0.135   6.300  -4.676  0.00  0.00    +0.217 C 
ATOM     30  O   UNL     1      -0.553   4.954  -4.817  0.00  0.00    -0.218 OA
BRANCH  24  31
ATOM     31  C   UNL     1       3.935   5.634  -5.200  0.00  0.00    +0.214 C 
ATOM     32  O   UNL     1       4.943   6.609  -5.192  0.00  0.00    -0.218 OA
ENDBRANCH  24  31
BRANCH  26  33
ATOM     33  O   UNL     1       0.942   5.823  -8.329  0.00  0.00    -0.326 OA
BRANCH  33  34
ATOM     34  C   UNL     1       2.296   5.518  -8.936  0.00  0.00    +0.180 C 
ATOM     35  C   UNL     1       2.576   7.046  -9.700  0.00  0.00    +0.180 C 
ATOM     36  O   UNL     1       1.628   6.938 -10.843  0.00  0.00    -0.324 OA
ATOM     37  C   UNL     1       0.332   6.453 -10.185  0.00  0.00    +0.302 C 
ATOM     38  O   UNL     1      -0.572   7.088 -11.234  0.00  0.00    -0.187 OA
ATOM     39  C   UNL     1       0.563   5.010 -11.049  0.00  0.00    +0.243 C 
ATOM     40  O   UNL     1      -0.283   4.065 -10.231  0.00  0.00    -0.215 OA
ATOM     41  C   UNL     1       1.973   4.504 -10.251  0.00  0.00    +0.217 C 
ATOM     42  O   UNL     1       2.785   5.170 -11.370  0.00  0.00    -0.218 OA
BRANCH  35  43
ATOM     43  C   UNL     1       3.985   6.464 -10.304  0.00  0.00    +0.214 C 
ATOM     44  O   UNL     1       4.905   7.456 -10.362  0.00  0.00    -0.218 OA
ENDBRANCH  35  43
ENDBRANCH  33  34
ENDBRANCH  26  33
ENDBRANCH   1  23
TORSDOF 9
ENDMDL
MODEL 6
REMARK VINA RESULT:      -6.9      2.392      4.370
REMARK  Name = 
REMARK  9 active torsions:
REMARK  status: ('A' for Active; 'I' for Inactive)
REMARK    1  A    between atoms: C_4  and  O_5
REMARK    2  A    between atoms: O_5  and  C_6
REMARK    3  A    between atoms: C_11  and  O_12
REMARK    4  A    between atoms: O_12  and  C_13
REMARK    5  A    between atoms: C_21  and  C_22
REMARK    6  A    between atoms: C_25  and  C_26
REMARK    7  A    between atoms: C_32  and  N_33
REMARK    8  A    between atoms: N_33  and  C_34
REMARK    9  A    between atoms: C_36  and  C_37
REMARK                            x       y       z     vdW  Elec       q    Type
REMARK                         _______ _______ _______ _____ _____    ______ ____
ROOT
ATOM      1  O   UNL     1       2.222   5.519  -6.760  0.00  0.00    -0.326 OA
ENDROOT
BRANCH   1   9
ATOM      2  C   UNL     1       4.931   4.646  -4.478  0.00  0.00    +0.034 C 
ATOM      3  C   UNL     1       3.601   5.411  -5.015  0.00  0.00    +0.136 C 
ATOM      4  C   UNL     1       2.778   5.483  -3.521  0.00  0.00    +0.133 C 
ATOM      5  C   UNL     1       1.609   6.222  -4.532  0.00  0.00    +0.205 C 
ATOM      6  O   UNL     1       0.649   6.496  -3.426  0.00  0.00    -0.219 OA
ATOM      7  C   UNL     1       0.802   4.779  -4.853  0.00  0.00    +0.239 C 
ATOM      8  O   UNL     1      -0.206   5.481  -5.704  0.00  0.00    -0.215 OA
ATOM      9  C   UNL     1       1.814   4.200  -6.110  0.00  0.00    +0.269 C 
ATOM     10  O   UNL     1       3.013   4.039  -5.196  0.00  0.00    -0.330 OA
BRANCH   4  11
ATOM     11  N   UNL     1       3.224   6.827  -2.943  0.00  0.00    -0.209 NA
BRANCH  11  12
ATOM     12  C   UNL     1       2.999   6.890  -1.419  0.00  0.00    +0.127 C 
ATOM     13  C   UNL     1       2.737   8.584  -1.294  0.00  0.00    +0.205 C 
ATOM     14  O   UNL     1       3.866   9.000  -2.201  0.00  0.00    -0.218 OA
ATOM     15  C   UNL     1       3.664   8.905   0.085  0.00  0.00    +0.218 C 
ATOM     16  O   UNL     1       2.499   9.590   0.760  0.00  0.00    -0.217 OA
ATOM     17  C   UNL     1       3.391   7.495   1.030  0.00  0.00    +0.205 C 
ATOM     18  O   UNL     1       2.236   6.904   0.265  0.00  0.00    -0.216 OA
ATOM     19  C   UNL     1       4.618   6.756   0.248  0.00  0.00    +0.018 C 
ATOM     20  C   UNL     1       4.573   7.005  -1.078  0.00  0.00    -0.010 C 
BRANCH  19  21
ATOM     21  C   UNL     1       5.862   7.245   0.937  0.00  0.00    +0.207 C 
ATOM     22  O   UNL     1       5.787   7.353   2.324  0.00  0.00    -0.215 OA
ENDBRANCH  19  21
ENDBRANCH  11  12
ENDBRANCH   4  11
ENDBRANCH   1   9
BRANCH   1  23
ATOM     23  C   UNL     1       1.996   5.121  -8.230  0.00  0.00    +0.180 C 
ATOM     24  C   UNL     1       3.450   5.923  -8.625  0.00  0.00    +0.180 C 
ATOM     25  O   UNL     1       3.365   5.830 -10.088  0.00  0.00    -0.326 OA
ATOM     26  C   UNL     1       2.029   5.346 -10.555  0.00  0.00    +0.270 C 
ATOM     27  C   UNL     1       1.097   6.735 -10.116  0.00  0.00    +0.240 C 
ATOM     28  O   UNL     1       2.227   7.662  -9.782  0.00  0.00    -0.215 OA
ATOM     29  C   UNL     1       0.886   6.376  -8.487  0.00  0.00    +0.217 C 
ATOM     30  O   UNL     1      -0.168   5.355  -8.877  0.00  0.00    -0.218 OA
BRANCH  24  31
ATOM     31  C   UNL     1       4.289   4.485  -8.522  0.00  0.00    +0.214 C 
ATOM     32  O   UNL     1       5.548   5.056  -8.290  0.00  0.00    -0.218 OA
ENDBRANCH  24  31
BRANCH  26  33
ATOM     33  O   UNL     1       2.120   5.861 -12.013  0.00  0.00    -0.326 OA
BRANCH  33  34
ATOM     34  C   UNL     1       1.134   4.916 -12.668  0.00  0.00    +0.180 C 
ATOM     35  C   UNL     1       2.246   4.053 -13.675  0.00  0.00    +0.180 C 
ATOM     36  O   UNL     1       2.508   5.088 -14.712  0.00  0.00    -0.324 OA
ATOM     37  C   UNL     1       2.787   6.351 -13.892  0.00  0.00    +0.302 C 
ATOM     38  O   UNL     1       3.680   6.981 -14.954  0.00  0.00    -0.187 OA
ATOM     39  C   UNL     1       1.340   6.960 -14.541  0.00  0.00    +0.243 C 
ATOM     40  O   UNL     1       1.016   8.028 -13.527  0.00  0.00    -0.215 OA
ATOM     41  C   UNL     1       0.287   5.864 -13.785  0.00  0.00    +0.217 C 
ATOM     42  O   UNL     1       0.359   4.999 -15.051  0.00  0.00    -0.218 OA
BRANCH  35  43
ATOM     43  C   UNL     1       0.993   3.192 -14.289  0.00  0.00    +0.214 C 
ATOM     44  O   UNL     1       1.381   1.915 -14.519  0.00  0.00    -0.218 OA
ENDBRANCH  35  43
ENDBRANCH  33  34
ENDBRANCH  26  33
ENDBRANCH   1  23
TORSDOF 9
ENDMDL
MODEL 7
REMARK VINA RESULT:      -6.8      3.694     11.619
REMARK  Name = 
REMARK  9 active torsions:
REMARK  status: ('A' for Active; 'I' for Inactive)
REMARK    1  A    between atoms: C_4  and  O_5
REMARK    2  A    between atoms: O_5  and  C_6
REMARK    3  A    between atoms: C_11  and  O_12
REMARK    4  A    between atoms: O_12  and  C_13
REMARK    5  A    between atoms: C_21  and  C_22
REMARK    6  A    between atoms: C_25  and  C_26
REMARK    7  A    between atoms: C_32  and  N_33
REMARK    8  A    between atoms: N_33  and  C_34
REMARK    9  A    between atoms: C_36  and  C_37
REMARK                            x       y       z     vdW  Elec       q    Type
REMARK                         _______ _______ _______ _____ _____    ______ ____
ROOT
ATOM      1  O   UNL     1       2.226   5.791  -9.096  0.00  0.00    -0.326 OA
ENDROOT
BRANCH   1   9
ATOM      2  C   UNL     1      -0.545   5.010 -11.337  0.00  0.00    +0.034 C 
ATOM      3  C   UNL     1       0.829   5.715 -10.828  0.00  0.00    +0.136 C 
ATOM      4  C   UNL     1       1.642   5.705 -12.329  0.00  0.00    +0.133 C 
ATOM      5  C   UNL     1       2.858   6.405 -11.345  0.00  0.00    +0.205 C 
ATOM      6  O   UNL     1       3.822   6.599 -12.464  0.00  0.00    -0.219 OA
ATOM      7  C   UNL     1       3.588   4.929 -10.993  0.00  0.00    +0.239 C 
ATOM      8  O   UNL     1       4.639   5.596 -10.167  0.00  0.00    -0.215 OA
ATOM      9  C   UNL     1       2.556   4.437  -9.715  0.00  0.00    +0.269 C 
ATOM     10  O   UNL     1       1.344   4.318 -10.616  0.00  0.00    -0.330 OA
BRANCH   4  11
ATOM     11  N   UNL     1       1.264   7.056 -12.938  0.00  0.00    -0.209 NA
BRANCH  11  12
ATOM     12  C   UNL     1       1.459   7.062 -14.468  0.00  0.00    +0.127 C 
ATOM     13  C   UNL     1       1.551   8.764 -14.682  0.00  0.00    +0.205 C 
ATOM     14  O   UNL     1       0.401   9.115 -13.775  0.00  0.00    -0.218 OA
ATOM     15  C   UNL     1       0.576   8.921 -16.056  0.00  0.00    +0.218 C 
ATOM     16  O   UNL     1       1.657   9.680 -16.789  0.00  0.00    -0.217 OA
ATOM     17  C   UNL     1       0.971   7.498 -16.935  0.00  0.00    +0.205 C 
ATOM     18  O   UNL     1       2.190   7.062 -16.165  0.00  0.00    -0.216 OA
ATOM     19  C   UNL     1      -0.164   6.684 -16.092  0.00  0.00    +0.018 C 
ATOM     20  C   UNL     1      -0.123   7.005 -14.781  0.00  0.00    -0.010 C 
BRANCH  19  21
ATOM     21  C   UNL     1      -1.461   7.012 -16.780  0.00  0.00    +0.207 C 
ATOM     22  O   UNL     1      -1.821   6.174 -17.832  0.00  0.00    -0.215 OA
ENDBRANCH  19  21
ENDBRANCH  11  12
ENDBRANCH   4  11
ENDBRANCH   1   9
BRANCH   1  23
ATOM     23  C   UNL     1       2.372   5.399  -7.614  0.00  0.00    +0.180 C 
ATOM     24  C   UNL     1       1.133   6.515  -7.243  0.00  0.00    +0.180 C 
ATOM     25  O   UNL     1       1.208   6.451  -5.778  0.00  0.00    -0.326 OA
ATOM     26  C   UNL     1       2.409   5.700  -5.297  0.00  0.00    +0.270 C 
ATOM     27  C   UNL     1       3.620   6.834  -5.783  0.00  0.00    +0.240 C 
ATOM     28  O   UNL     1       2.719   7.976  -6.145  0.00  0.00    -0.215 OA
ATOM     29  C   UNL     1       3.733   6.387  -7.399  0.00  0.00    +0.217 C 
ATOM     30  O   UNL     1       4.540   5.172  -6.978  0.00  0.00    -0.218 OA
BRANCH  24  31
ATOM     31  C   UNL     1      -0.003   5.294  -7.298  0.00  0.00    +0.214 C 
ATOM     32  O   UNL     1      -0.920   5.897  -6.426  0.00  0.00    -0.218 OA
ENDBRANCH  24  31
BRANCH  26  33
ATOM     33  O   UNL     1       2.446   6.266  -3.857  0.00  0.00    -0.326 OA
BRANCH  33  34
ATOM     34  C   UNL     1       1.581   5.234  -3.164  0.00  0.00    +0.180 C 
ATOM     35  C   UNL     1       0.572   6.316  -2.266  0.00  0.00    +0.180 C 
ATOM     36  O   UNL     1       1.534   6.753  -1.218  0.00  0.00    -0.324 OA
ATOM     37  C   UNL     1       2.792   7.106  -2.016  0.00  0.00    +0.302 C 
ATOM     38  O   UNL     1       3.288   8.128  -1.000  0.00  0.00    -0.187 OA
ATOM     39  C   UNL     1       3.519   5.777  -1.246  0.00  0.00    +0.243 C 
ATOM     40  O   UNL     1       4.653   5.498  -2.200  0.00  0.00    -0.215 OA
ATOM     41  C   UNL     1       2.566   4.567  -1.960  0.00  0.00    +0.217 C 
ATOM     42  O   UNL     1       1.650   4.634  -0.731  0.00  0.00    -0.218 OA
BRANCH  35  43
ATOM     43  C   UNL     1      -0.181   5.025  -1.593  0.00  0.00    +0.214 C 
ATOM     44  O   UNL     1      -1.500   5.049  -1.901  0.00  0.00    -0.218 OA
ENDBRANCH  35  43
ENDBRANCH  33  34
ENDBRANCH  26  33
ENDBRANCH   1  23
TORSDOF 9
ENDMDL
MODEL 8
REMARK VINA RESULT:      -6.5      3.045     11.082
REMARK  Name = 
REMARK  9 active torsions:
REMARK  status: ('A' for Active; 'I' for Inactive)
REMARK    1  A    between atoms: C_4  and  O_5
REMARK    2  A    between atoms: O_5  and  C_6
REMARK    3  A    between atoms: C_11  and  O_12
REMARK    4  A    between atoms: O_12  and  C_13
REMARK    5  A    between atoms: C_21  and  C_22
REMARK    6  A    between atoms: C_25  and  C_26
REMARK    7  A    between atoms: C_32  and  N_33
REMARK    8  A    between atoms: N_33  and  C_34
REMARK    9  A    between atoms: C_36  and  C_37
REMARK                            x       y       z     vdW  Elec       q    Type
REMARK                         _______ _______ _______ _____ _____    ______ ____
ROOT
ATOM      1  O   UNL     1       2.927   5.811  -7.665  0.00  0.00    -0.326 OA
ENDROOT
BRANCH   1   9
ATOM      2  C   UNL     1      -0.094   5.584  -9.697  0.00  0.00    +0.034 C 
ATOM      3  C   UNL     1       1.451   5.932  -9.326  0.00  0.00    +0.136 C 
ATOM      4  C   UNL     1       2.128   5.529 -10.841  0.00  0.00    +0.133 C 
ATOM      5  C   UNL     1       3.551   5.969  -9.993  0.00  0.00    +0.205 C 
ATOM      6  O   UNL     1       4.455   5.761 -11.159  0.00  0.00    -0.219 OA
ATOM      7  C   UNL     1       3.875   4.397  -9.482  0.00  0.00    +0.239 C 
ATOM      8  O   UNL     1       5.120   4.834  -8.782  0.00  0.00    -0.215 OA
ATOM      9  C   UNL     1       2.836   4.358  -8.119  0.00  0.00    +0.269 C 
ATOM     10  O   UNL     1       1.579   4.480  -8.957  0.00  0.00    -0.330 OA
BRANCH   4  11
ATOM     11  N   UNL     1       2.092   6.854 -11.602  0.00  0.00    -0.209 NA
BRANCH  11  12
ATOM     12  C   UNL     1       2.032   6.630 -13.127  0.00  0.00    +0.127 C 
ATOM     13  C   UNL     1       0.913   7.879 -13.500  0.00  0.00    +0.205 C 
ATOM     14  O   UNL     1      -0.039   7.602 -12.364  0.00  0.00    -0.218 OA
ATOM     15  C   UNL     1      -0.075   7.046 -14.593  0.00  0.00    +0.218 C 
ATOM     16  O   UNL     1       0.094   8.125 -15.635  0.00  0.00    -0.217 OA
ATOM     17  C   UNL     1       1.065   6.060 -15.419  0.00  0.00    +0.205 C 
ATOM     18  O   UNL     1       2.340   6.708 -14.947  0.00  0.00    -0.216 OA
ATOM     19  C   UNL     1       0.908   4.930 -14.253  0.00  0.00    +0.018 C 
ATOM     20  C   UNL     1       0.889   5.494 -13.026  0.00  0.00    -0.010 C 
BRANCH  19  21
ATOM     21  C   UNL     1      -0.340   4.174 -14.616  0.00  0.00    +0.207 C 
ATOM     22  O   UNL     1      -0.150   2.871 -15.072  0.00  0.00    -0.215 OA
ENDBRANCH  19  21
ENDBRANCH  11  12
ENDBRANCH   4  11
ENDBRANCH   1   9
BRANCH   1  23
ATOM     23  C   UNL     1       2.841   5.575  -6.146  0.00  0.00    +0.180 C 
ATOM     24  C   UNL     1       2.031   7.071  -6.004  0.00  0.00    +0.180 C 
ATOM     25  O   UNL     1       1.990   7.164  -4.539  0.00  0.00    -0.326 OA
ATOM     26  C   UNL     1       2.835   6.124  -3.875  0.00  0.00    +0.270 C 
ATOM     27  C   UNL     1       4.385   6.731  -4.343  0.00  0.00    +0.240 C 
ATOM     28  O   UNL     1       3.946   8.053  -4.897  0.00  0.00    -0.215 OA
ATOM     29  C   UNL     1       4.440   6.079  -5.892  0.00  0.00    +0.217 C 
ATOM     30  O   UNL     1       4.763   4.727  -5.282  0.00  0.00    -0.218 OA
BRANCH  24  31
ATOM     31  C   UNL     1       0.556   6.294  -6.056  0.00  0.00    +0.214 C 
ATOM     32  O   UNL     1      -0.143   7.237  -5.290  0.00  0.00    -0.218 OA
ENDBRANCH  24  31
BRANCH  26  33
ATOM     33  O   UNL     1       2.973   6.817  -2.497  0.00  0.00    -0.326 OA
BRANCH  33  34
ATOM     34  C   UNL     1       4.142   6.029  -1.943  0.00  0.00    +0.180 C 
ATOM     35  C   UNL     1       3.247   4.809  -1.103  0.00  0.00    +0.180 C 
ATOM     36  O   UNL     1       2.756   5.604   0.056  0.00  0.00    -0.324 OA
ATOM     37  C   UNL     1       2.205   6.877  -0.594  0.00  0.00    +0.302 C 
ATOM     38  O   UNL     1       1.190   7.139   0.512  0.00  0.00    -0.187 OA
ATOM     39  C   UNL     1       3.476   7.692   0.184  0.00  0.00    +0.243 C 
ATOM     40  O   UNL     1       3.559   8.938  -0.662  0.00  0.00    -0.215 OA
ATOM     41  C   UNL     1       4.751   6.973  -0.677  0.00  0.00    +0.217 C 
ATOM     42  O   UNL     1       4.869   5.944   0.455  0.00  0.00    -0.218 OA
BRANCH  35  43
ATOM     43  C   UNL     1       4.657   4.168  -0.569  0.00  0.00    +0.214 C 
ATOM     44  O   UNL     1       4.489   2.852  -0.294  0.00  0.00    -0.218 OA
ENDBRANCH  35  43
ENDBRANCH  33  34
ENDBRANCH  26  33
ENDBRANCH   1  23
TORSDOF 9
ENDMDL
MODEL 9
REMARK VINA RESULT:      -6.5      2.339     10.380
REMARK  Name = 
REMARK  9 active torsions:
REMARK  status: ('A' for Active; 'I' for Inactive)
REMARK    1  A    between atoms: C_4  and  O_5
REMARK    2  A    between atoms: O_5  and  C_6
REMARK    3  A    between atoms: C_11  and  O_12
REMARK    4  A    between atoms: O_12  and  C_13
REMARK    5  A    between atoms: C_21  and  C_22
REMARK    6  A    between atoms: C_25  and  C_26
REMARK    7  A    between atoms: C_32  and  N_33
REMARK    8  A    between atoms: N_33  and  C_34
REMARK    9  A    between atoms: C_36  and  C_37
REMARK                            x       y       z     vdW  Elec       q    Type
REMARK                         _______ _______ _______ _____ _____    ______ ____
ROOT
ATOM      1  O   UNL     1       2.522   5.688  -5.416  0.00  0.00    -0.326 OA
ENDROOT
BRANCH   1   9
ATOM      2  C   UNL     1       2.541   8.245  -8.018  0.00  0.00    +0.034 C 
ATOM      3  C   UNL     1       2.884   6.831  -7.291  0.00  0.00    +0.136 C 
ATOM      4  C   UNL     1       2.803   5.850  -8.686  0.00  0.00    +0.133 C 
ATOM      5  C   UNL     1       3.141   4.653  -7.508  0.00  0.00    +0.205 C 
ATOM      6  O   UNL     1       3.196   3.531  -8.487  0.00  0.00    -0.219 OA
ATOM      7  C   UNL     1       1.518   4.304  -7.224  0.00  0.00    +0.239 C 
ATOM      8  O   UNL     1       1.872   3.253  -6.224  0.00  0.00    -0.215 OA
ATOM      9  C   UNL     1       1.177   5.575  -6.125  0.00  0.00    +0.269 C 
ATOM     10  O   UNL     1       1.396   6.657  -7.163  0.00  0.00    -0.330 OA
BRANCH   4  11
ATOM     11  N   UNL     1       4.244   5.850  -9.196  0.00  0.00    -0.209 NA
BRANCH  11  12
ATOM     12  C   UNL     1       4.331   5.336 -10.648  0.00  0.00    +0.127 C 
ATOM     13  C   UNL     1       5.527   6.433 -11.210  0.00  0.00    +0.205 C 
ATOM     14  O   UNL     1       4.942   7.667 -10.571  0.00  0.00    -0.218 OA
ATOM     15  C   UNL     1       4.851   6.833 -12.709  0.00  0.00    +0.218 C 
ATOM     16  O   UNL     1       6.131   6.480 -13.428  0.00  0.00    -0.217 OA
ATOM     17  C   UNL     1       4.158   5.336 -13.194  0.00  0.00    +0.205 C 
ATOM     18  O   UNL     1       4.805   4.425 -12.184  0.00  0.00    -0.216 OA
ATOM     19  C   UNL     1       2.805   5.714 -12.365  0.00  0.00    +0.018 C 
ATOM     20  C   UNL     1       3.103   6.250 -11.162  0.00  0.00    -0.010 C 
BRANCH  19  21
ATOM     21  C   UNL     1       2.032   6.620 -13.283  0.00  0.00    +0.207 C 
ATOM     22  O   UNL     1       0.820   7.096 -12.789  0.00  0.00    -0.215 OA
ENDBRANCH  19  21
ENDBRANCH  11  12
ENDBRANCH   4  11
ENDBRANCH   1   9
BRANCH   1  23
ATOM     23  C   UNL     1       2.061   6.506  -4.194  0.00  0.00    +0.180 C 
ATOM     24  C   UNL     1       3.571   6.185  -3.465  0.00  0.00    +0.180 C 
ATOM     25  O   UNL     1       3.300   6.747  -2.135  0.00  0.00    -0.326 OA
ATOM     26  C   UNL     1       1.856   7.088  -1.941  0.00  0.00    +0.270 C 
ATOM     27  C   UNL     1       1.225   5.479  -1.911  0.00  0.00    +0.240 C 
ATOM     28  O   UNL     1       2.524   4.734  -1.836  0.00  0.00    -0.215 OA
ATOM     29  C   UNL     1       1.151   5.219  -3.570  0.00  0.00    +0.217 C 
ATOM     30  O   UNL     1      -0.096   6.083  -3.622  0.00  0.00    -0.218 OA
BRANCH  24  31
ATOM     31  C   UNL     1       4.167   7.639  -4.024  0.00  0.00    +0.214 C 
ATOM     32  O   UNL     1       5.274   7.693  -3.164  0.00  0.00    -0.218 OA
ENDBRANCH  24  31
BRANCH  26  33
ATOM     33  O   UNL     1       1.857   7.123  -0.393  0.00  0.00    -0.326 OA
BRANCH  33  34
ATOM     34  C   UNL     1       2.905   8.194  -0.173  0.00  0.00    +0.180 C 
ATOM     35  C   UNL     1       3.644   7.533   1.246  0.00  0.00    +0.180 C 
ATOM     36  O   UNL     1       2.588   7.838   2.251  0.00  0.00    -0.324 OA
ATOM     37  C   UNL     1       1.301   7.366   1.568  0.00  0.00    +0.302 C 
ATOM     38  O   UNL     1       0.579   7.074   2.879  0.00  0.00    -0.187 OA
ATOM     39  C   UNL     1       0.855   9.004   1.522  0.00  0.00    +0.243 C 
ATOM     40  O   UNL     1      -0.174   8.974   0.419  0.00  0.00    -0.215 OA
ATOM     41  C   UNL     1       2.058   9.524   0.442  0.00  0.00    +0.217 C 
ATOM     42  O   UNL     1       2.912   9.908   1.657  0.00  0.00    -0.218 OA
BRANCH  35  43
ATOM     43  C   UNL     1       4.637   8.835   1.313  0.00  0.00    +0.214 C 
ATOM     44  O   UNL     1       5.756   8.524   2.010  0.00  0.00    -0.218 OA
ENDBRANCH  35  43
ENDBRANCH  33  34
ENDBRANCH  26  33
ENDBRANCH   1  23
TORSDOF 9
ENDMDL
