MODEL 1
REMARK VINA RESULT:      -8.7      0.000      0.000
REMARK  Name = 
REMARK  4 active torsions:
REMARK  status: ('A' for Active; 'I' for Inactive)
REMARK    1  A    between atoms: N_4  and  N_5
REMARK    2  A    between atoms: C_6  and  C_7
REMARK    3  A    between atoms: C_10  and  C_11
REMARK    4  A    between atoms: C_14  and  N_15
REMARK                            x       y       z     vdW  Elec       q    Type
REMARK                         _______ _______ _______ _____ _____    ______ ____
ROOT
ATOM      1  C   UNL     1       2.575   4.359  -7.897  0.00  0.00    +0.166 A 
ATOM      2  O   UNL     1       3.785   4.297  -8.390  0.00  0.00    -0.452 OA
ATOM      3  C   UNL     1       3.931   5.082  -9.414  0.00  0.00    +0.145 A 
ATOM      4  C   UNL     1       2.651   5.315  -9.901  0.00  0.00    +0.041 A 
ATOM      5  C   UNL     1       1.783   4.874  -8.909  0.00  0.00    +0.042 A 
ENDROOT
BRANCH   3   6
ATOM      6  C   UNL     1       5.097   5.870  -9.832  0.00  0.00    +0.035 A 
ATOM      7  C   UNL     1       5.013   6.751 -10.904  0.00  0.00    +0.009 A 
ATOM      8  C   UNL     1       6.046   6.844 -11.826  0.00  0.00    +0.075 A 
ATOM      9  C   UNL     1       7.283   6.319 -11.484  0.00  0.00    +0.290 A 
ATOM     10  C   UNL     1       7.469   5.929 -10.164  0.00  0.00    +0.075 A 
ATOM     11  C   UNL     1       6.377   5.576  -9.380  0.00  0.00    +0.009 A 
BRANCH   9  12
ATOM     12  N   UNL     1       8.207   5.882 -12.487  0.00  0.00    +0.081 N 
ATOM     13  O   UNL     1       7.838   4.718 -13.143  0.00  0.00    -0.576 OA
ATOM     14  O   UNL     1       9.417   5.935 -12.152  0.00  0.00    +0.041 OA
ENDBRANCH   9  12
ENDBRANCH   3   6
BRANCH   1  16
ATOM     15  N   UNL     1       1.851   4.975  -5.670  0.00  0.00    -0.169 NA
ATOM     16  C   UNL     1       2.116   4.068  -6.534  0.00  0.00    +0.155 C 
BRANCH  15  22
ATOM     17  O   UNL     1       4.935   7.024  -2.608  0.00  0.00    -0.271 OA
ATOM     18  C   UNL     1       4.321   6.701  -3.648  0.00  0.00    +0.272 C 
ATOM     19  N   UNL     1       3.986   7.609  -4.699  0.00  0.00    -0.125 NA
ATOM     20  C   UNL     1       3.314   6.999  -5.618  0.00  0.00    +0.349 C 
ATOM     21  O   UNL     1       2.941   7.575  -6.836  0.00  0.00    -0.249 OA
ATOM     22  N   UNL     1       2.875   5.738  -5.116  0.00  0.00    -0.154 N 
ATOM     23  C   UNL     1       3.880   5.361  -4.126  0.00  0.00    +0.208 C 
ENDBRANCH  15  22
ENDBRANCH   1  16
TORSDOF 4
ENDMDL
MODEL 2
REMARK VINA RESULT:      -8.7      3.285      5.176
REMARK  Name = 
REMARK  4 active torsions:
REMARK  status: ('A' for Active; 'I' for Inactive)
REMARK    1  A    between atoms: N_4  and  N_5
REMARK    2  A    between atoms: C_6  and  C_7
REMARK    3  A    between atoms: C_10  and  C_11
REMARK    4  A    between atoms: C_14  and  N_15
REMARK                            x       y       z     vdW  Elec       q    Type
REMARK                         _______ _______ _______ _____ _____    ______ ____
ROOT
ATOM      1  C   UNL     1       2.030   5.385  -9.031  0.00  0.00    +0.166 A 
ATOM      2  O   UNL     1       3.014   6.213  -8.793  0.00  0.00    -0.452 OA
ATOM      3  C   UNL     1       4.169   5.679  -9.050  0.00  0.00    +0.145 A 
ATOM      4  C   UNL     1       3.971   4.305  -9.009  0.00  0.00    +0.041 A 
ATOM      5  C   UNL     1       2.594   4.121  -9.026  0.00  0.00    +0.042 A 
ENDROOT
BRANCH   3   6
ATOM      6  C   UNL     1       5.382   6.293  -9.607  0.00  0.00    +0.035 A 
ATOM      7  C   UNL     1       5.306   7.166 -10.685  0.00  0.00    +0.009 A 
ATOM      8  C   UNL     1       6.238   7.106 -11.711  0.00  0.00    +0.075 A 
ATOM      9  C   UNL     1       7.420   6.416 -11.488  0.00  0.00    +0.290 A 
ATOM     10  C   UNL     1       7.690   6.017 -10.186  0.00  0.00    +0.075 A 
ATOM     11  C   UNL     1       6.649   5.827  -9.284  0.00  0.00    +0.009 A 
BRANCH   9  12
ATOM     12  N   UNL     1       8.163   5.845 -12.572  0.00  0.00    +0.081 N 
ATOM     13  O   UNL     1       7.676   4.629 -13.026  0.00  0.00    -0.576 OA
ATOM     14  O   UNL     1       9.412   5.896 -12.442  0.00  0.00    +0.041 OA
ENDBRANCH   9  12
ENDBRANCH   3   6
BRANCH   1  16
ATOM     15  N   UNL     1       0.038   5.229 -10.398  0.00  0.00    -0.169 NA
ATOM     16  C   UNL     1       0.630   5.681  -9.357  0.00  0.00    +0.155 C 
BRANCH  15  22
ATOM     17  O   UNL     1       2.236   5.919 -14.615  0.00  0.00    -0.271 OA
ATOM     18  C   UNL     1       1.445   6.010 -13.651  0.00  0.00    +0.272 C 
ATOM     19  N   UNL     1       0.919   7.243 -13.158  0.00  0.00    -0.125 NA
ATOM     20  C   UNL     1       0.168   7.027 -12.129  0.00  0.00    +0.349 C 
ATOM     21  O   UNL     1      -0.593   8.008 -11.488  0.00  0.00    -0.249 OA
ATOM     22  N   UNL     1       0.386   5.696 -11.663  0.00  0.00    -0.154 N 
ATOM     23  C   UNL     1       0.777   4.945 -12.852  0.00  0.00    +0.208 C 
ENDBRANCH  15  22
ENDBRANCH   1  16
TORSDOF 4
ENDMDL
MODEL 3
REMARK VINA RESULT:      -8.1      1.996      2.187
REMARK  Name = 
REMARK  4 active torsions:
REMARK  status: ('A' for Active; 'I' for Inactive)
REMARK    1  A    between atoms: N_4  and  N_5
REMARK    2  A    between atoms: C_6  and  C_7
REMARK    3  A    between atoms: C_10  and  C_11
REMARK    4  A    between atoms: C_14  and  N_15
REMARK                            x       y       z     vdW  Elec       q    Type
REMARK                         _______ _______ _______ _____ _____    ______ ____
ROOT
ATOM      1  C   UNL     1       2.240   5.464  -7.754  0.00  0.00    +0.166 A 
ATOM      2  O   UNL     1       3.440   5.983  -7.710  0.00  0.00    -0.452 OA
ATOM      3  C   UNL     1       4.223   5.467  -8.608  0.00  0.00    +0.145 A 
ATOM      4  C   UNL     1       3.664   4.242  -8.944  0.00  0.00    +0.041 A 
ATOM      5  C   UNL     1       2.378   4.256  -8.417  0.00  0.00    +0.042 A 
ENDROOT
BRANCH   3   6
ATOM      6  C   UNL     1       5.286   6.101  -9.399  0.00  0.00    +0.035 A 
ATOM      7  C   UNL     1       4.976   6.954 -10.452  0.00  0.00    +0.009 A 
ATOM      8  C   UNL     1       5.690   6.898 -11.641  0.00  0.00    +0.075 A 
ATOM      9  C   UNL     1       6.911   6.242 -11.646  0.00  0.00    +0.290 A 
ATOM     10  C   UNL     1       7.442   5.872 -10.417  0.00  0.00    +0.075 A 
ATOM     11  C   UNL     1       6.604   5.673  -9.327  0.00  0.00    +0.009 A 
BRANCH   9  12
ATOM     12  N   UNL     1       7.442   5.671 -12.847  0.00  0.00    +0.081 N 
ATOM     13  O   UNL     1       6.521   4.967 -13.607  0.00  0.00    -0.576 OA
ATOM     14  O   UNL     1       8.557   5.106 -12.717  0.00  0.00    +0.041 OA
ENDBRANCH   9  12
ENDBRANCH   3   6
BRANCH   1  16
ATOM     15  N   UNL     1       0.844   6.780  -6.277  0.00  0.00    -0.169 NA
ATOM     16  C   UNL     1       0.965   6.043  -7.316  0.00  0.00    +0.155 C 
BRANCH  15  22
ATOM     17  O   UNL     1      -0.044   4.851  -1.966  0.00  0.00    -0.271 OA
ATOM     18  C   UNL     1       0.538   5.322  -2.967  0.00  0.00    +0.272 C 
ATOM     19  N   UNL     1       1.681   6.178  -2.903  0.00  0.00    -0.125 NA
ATOM     20  C   UNL     1       2.032   6.542  -4.091  0.00  0.00    +0.349 C 
ATOM     21  O   UNL     1       3.183   7.279  -4.382  0.00  0.00    -0.249 OA
ATOM     22  N   UNL     1       0.982   6.229  -5.005  0.00  0.00    -0.154 N 
ATOM     23  C   UNL     1       0.309   5.074  -4.418  0.00  0.00    +0.208 C 
ENDBRANCH  15  22
ENDBRANCH   1  16
TORSDOF 4
ENDMDL
MODEL 4
REMARK VINA RESULT:      -8.1      2.479      3.070
REMARK  Name = 
REMARK  4 active torsions:
REMARK  status: ('A' for Active; 'I' for Inactive)
REMARK    1  A    between atoms: N_4  and  N_5
REMARK    2  A    between atoms: C_6  and  C_7
REMARK    3  A    between atoms: C_10  and  C_11
REMARK    4  A    between atoms: C_14  and  N_15
REMARK                            x       y       z     vdW  Elec       q    Type
REMARK                         _______ _______ _______ _____ _____    ______ ____
ROOT
ATOM      1  C   UNL     1       2.489   5.284  -7.260  0.00  0.00    +0.166 A 
ATOM      2  O   UNL     1       3.500   4.931  -8.011  0.00  0.00    -0.452 OA
ATOM      3  C   UNL     1       3.792   5.843  -8.888  0.00  0.00    +0.145 A 
ATOM      4  C   UNL     1       2.647   6.614  -9.033  0.00  0.00    +0.041 A 
ATOM      5  C   UNL     1       1.824   6.272  -7.967  0.00  0.00    +0.042 A 
ENDROOT
BRANCH   3   6
ATOM      6  C   UNL     1       5.102   6.256  -9.409  0.00  0.00    +0.035 A 
ATOM      7  C   UNL     1       5.199   6.990 -10.586  0.00  0.00    +0.009 A 
ATOM      8  C   UNL     1       6.190   6.707 -11.515  0.00  0.00    +0.075 A 
ATOM      9  C   UNL     1       7.270   5.936 -11.112  0.00  0.00    +0.290 A 
ATOM     10  C   UNL     1       7.401   5.680  -9.754  0.00  0.00    +0.075 A 
ATOM     11  C   UNL     1       6.284   5.711  -8.928  0.00  0.00    +0.009 A 
BRANCH   9  12
ATOM     12  N   UNL     1       8.022   5.161 -12.054  0.00  0.00    +0.081 N 
ATOM     13  O   UNL     1       9.252   5.702 -12.394  0.00  0.00    -0.576 OA
ATOM     14  O   UNL     1       7.357   4.716 -13.024  0.00  0.00    +0.041 OA
ENDBRANCH   9  12
ENDBRANCH   3   6
BRANCH   1  16
ATOM     15  N   UNL     1       0.955   4.569  -5.529  0.00  0.00    -0.169 NA
ATOM     16  C   UNL     1       2.147   4.846  -5.902  0.00  0.00    +0.155 C 
BRANCH  15  22
ATOM     17  O   UNL     1      -1.890   8.019  -3.770  0.00  0.00    -0.271 OA
ATOM     18  C   UNL     1      -1.334   7.206  -4.540  0.00  0.00    +0.272 C 
ATOM     19  N   UNL     1      -2.013   6.476  -5.564  0.00  0.00    -0.125 NA
ATOM     20  C   UNL     1      -1.191   5.681  -6.164  0.00  0.00    +0.349 C 
ATOM     21  O   UNL     1      -1.511   4.919  -7.291  0.00  0.00    -0.249 OA
ATOM     22  N   UNL     1       0.007   5.580  -5.395  0.00  0.00    -0.154 N 
ATOM     23  C   UNL     1       0.106   6.855  -4.691  0.00  0.00    +0.208 C 
ENDBRANCH  15  22
ENDBRANCH   1  16
TORSDOF 4
ENDMDL
MODEL 5
REMARK VINA RESULT:      -7.9      5.071      6.642
REMARK  Name = 
REMARK  4 active torsions:
REMARK  status: ('A' for Active; 'I' for Inactive)
REMARK    1  A    between atoms: N_4  and  N_5
REMARK    2  A    between atoms: C_6  and  C_7
REMARK    3  A    between atoms: C_10  and  C_11
REMARK    4  A    between atoms: C_14  and  N_15
REMARK                            x       y       z     vdW  Elec       q    Type
REMARK                         _______ _______ _______ _____ _____    ______ ____
ROOT
ATOM      1  C   UNL     1      -0.291   5.211  -6.776  0.00  0.00    +0.166 A 
ATOM      2  O   UNL     1       0.735   4.717  -6.132  0.00  0.00    -0.452 OA
ATOM      3  C   UNL     1       1.858   5.201  -6.568  0.00  0.00    +0.145 A 
ATOM      4  C   UNL     1       1.599   5.671  -7.848  0.00  0.00    +0.041 A 
ATOM      5  C   UNL     1       0.215   5.703  -7.967  0.00  0.00    +0.042 A 
ENDROOT
BRANCH   3   6
ATOM      6  C   UNL     1       3.085   5.532  -5.830  0.00  0.00    +0.035 A 
ATOM      7  C   UNL     1       3.571   4.683  -4.843  0.00  0.00    +0.009 A 
ATOM      8  C   UNL     1       4.077   5.196  -3.657  0.00  0.00    +0.075 A 
ATOM      9  C   UNL     1       4.406   6.541  -3.608  0.00  0.00    +0.290 A 
ATOM     10  C   UNL     1       4.415   7.241  -4.807  0.00  0.00    +0.075 A 
ATOM     11  C   UNL     1       3.643   6.802  -5.876  0.00  0.00    +0.009 A 
BRANCH   9  12
ATOM     12  N   UNL     1       4.408   7.261  -2.369  0.00  0.00    +0.081 N 
ATOM     13  O   UNL     1       4.197   6.476  -1.246  0.00  0.00    -0.576 OA
ATOM     14  O   UNL     1       3.765   8.341  -2.383  0.00  0.00    +0.041 OA
ENDBRANCH   9  12
ENDBRANCH   3   6
BRANCH   1  16
ATOM     15  N   UNL     1      -2.050   6.137  -5.393  0.00  0.00    -0.169 NA
ATOM     16  C   UNL     1      -1.683   5.348  -6.332  0.00  0.00    +0.155 C 
BRANCH  15  22
ATOM     17  O   UNL     1       0.320   4.819  -1.427  0.00  0.00    -0.271 OA
ATOM     18  C   UNL     1      -0.563   5.232  -2.208  0.00  0.00    +0.272 C 
ATOM     19  N   UNL     1      -1.955   4.935  -2.078  0.00  0.00    -0.125 NA
ATOM     20  C   UNL     1      -2.616   5.460  -3.056  0.00  0.00    +0.349 C 
ATOM     21  O   UNL     1      -4.010   5.458  -3.156  0.00  0.00    -0.249 OA
ATOM     22  N   UNL     1      -1.702   5.867  -4.073  0.00  0.00    -0.154 N 
ATOM     23  C   UNL     1      -0.464   6.173  -3.360  0.00  0.00    +0.208 C 
ENDBRANCH  15  22
ENDBRANCH   1  16
TORSDOF 4
ENDMDL
MODEL 6
REMARK VINA RESULT:      -7.9      4.861      8.841
REMARK  Name = 
REMARK  4 active torsions:
REMARK  status: ('A' for Active; 'I' for Inactive)
REMARK    1  A    between atoms: N_4  and  N_5
REMARK    2  A    between atoms: C_6  and  C_7
REMARK    3  A    between atoms: C_10  and  C_11
REMARK    4  A    between atoms: C_14  and  N_15
REMARK                            x       y       z     vdW  Elec       q    Type
REMARK                         _______ _______ _______ _____ _____    ______ ____
ROOT
ATOM      1  C   UNL     1      -0.085   5.650  -6.715  0.00  0.00    +0.166 A 
ATOM      2  O   UNL     1      -0.459   6.521  -5.815  0.00  0.00    -0.452 OA
ATOM      3  C   UNL     1      -1.674   6.307  -5.410  0.00  0.00    +0.145 A 
ATOM      4  C   UNL     1      -2.283   5.562  -6.411  0.00  0.00    +0.041 A 
ATOM      5  C   UNL     1      -1.254   5.118  -7.232  0.00  0.00    +0.042 A 
ENDROOT
BRANCH   3   6
ATOM      6  C   UNL     1      -2.259   6.475  -4.073  0.00  0.00    +0.035 A 
ATOM      7  C   UNL     1      -2.120   7.672  -3.382  0.00  0.00    +0.009 A 
ATOM      8  C   UNL     1      -1.853   7.676  -2.020  0.00  0.00    +0.075 A 
ATOM      9  C   UNL     1      -2.067   6.508  -1.304  0.00  0.00    +0.290 A 
ATOM     10  C   UNL     1      -2.738   5.477  -1.949  0.00  0.00    +0.075 A 
ATOM     11  C   UNL     1      -2.717   5.391  -3.336  0.00  0.00    +0.009 A 
BRANCH   9  12
ATOM     12  N   UNL     1      -1.351   6.237  -0.093  0.00  0.00    +0.081 N 
ATOM     13  O   UNL     1      -1.990   6.660   1.061  0.00  0.00    -0.576 OA
ATOM     14  O   UNL     1      -0.121   6.493  -0.137  0.00  0.00    +0.041 OA
ENDBRANCH   9  12
ENDBRANCH   3   6
BRANCH   1  16
ATOM     15  N   UNL     1       2.152   4.882  -6.197  0.00  0.00    -0.169 NA
ATOM     16  C   UNL     1       1.269   5.204  -7.065  0.00  0.00    +0.155 C 
BRANCH  15  22
ATOM     17  O   UNL     1       5.186   8.065  -4.261  0.00  0.00    -0.271 OA
ATOM     18  C   UNL     1       4.183   7.354  -4.483  0.00  0.00    +0.272 C 
ATOM     19  N   UNL     1       3.399   6.731  -3.463  0.00  0.00    -0.125 NA
ATOM     20  C   UNL     1       2.458   6.023  -3.995  0.00  0.00    +0.349 C 
ATOM     21  O   UNL     1       1.445   5.387  -3.272  0.00  0.00    -0.249 OA
ATOM     22  N   UNL     1       2.729   5.855  -5.386  0.00  0.00    -0.154 N 
ATOM     23  C   UNL     1       3.487   7.045  -5.763  0.00  0.00    +0.208 C 
ENDBRANCH  15  22
ENDBRANCH   1  16
TORSDOF 4
ENDMDL
MODEL 7
REMARK VINA RESULT:      -7.8      4.289      8.828
REMARK  Name = 
REMARK  4 active torsions:
REMARK  status: ('A' for Active; 'I' for Inactive)
REMARK    1  A    between atoms: N_4  and  N_5
REMARK    2  A    between atoms: C_6  and  C_7
REMARK    3  A    between atoms: C_10  and  C_11
REMARK    4  A    between atoms: C_14  and  N_15
REMARK                            x       y       z     vdW  Elec       q    Type
REMARK                         _______ _______ _______ _____ _____    ______ ____
ROOT
ATOM      1  C   UNL     1       2.611   5.230  -7.934  0.00  0.00    +0.166 A 
ATOM      2  O   UNL     1       1.323   5.414  -8.065  0.00  0.00    -0.452 OA
ATOM      3  C   UNL     1       0.682   5.142  -6.969  0.00  0.00    +0.145 A 
ATOM      4  C   UNL     1       1.515   4.307  -6.237  0.00  0.00    +0.041 A 
ATOM      5  C   UNL     1       2.762   4.389  -6.844  0.00  0.00    +0.042 A 
ENDROOT
BRANCH   3   6
ATOM      6  C   UNL     1      -0.502   5.791  -6.391  0.00  0.00    +0.035 A 
ATOM      7  C   UNL     1      -0.377   6.693  -5.341  0.00  0.00    +0.009 A 
ATOM      8  C   UNL     1      -1.275   6.677  -4.283  0.00  0.00    +0.075 A 
ATOM      9  C   UNL     1      -2.474   6.000  -4.448  0.00  0.00    +0.290 A 
ATOM     10  C   UNL     1      -2.794   5.569  -5.729  0.00  0.00    +0.075 A 
ATOM     11  C   UNL     1      -1.787   5.337  -6.658  0.00  0.00    +0.009 A 
BRANCH   9  12
ATOM     12  N   UNL     1      -3.189   5.472  -3.325  0.00  0.00    +0.081 N 
ATOM     13  O   UNL     1      -3.963   6.400  -2.646  0.00  0.00    -0.576 OA
ATOM     14  O   UNL     1      -2.523   4.703  -2.587  0.00  0.00    +0.041 OA
ENDBRANCH   9  12
ENDBRANCH   3   6
BRANCH   1  16
ATOM     15  N   UNL     1       3.542   6.719  -9.601  0.00  0.00    -0.169 NA
ATOM     16  C   UNL     1       3.714   5.849  -8.679  0.00  0.00    +0.155 C 
BRANCH  15  22
ATOM     17  O   UNL     1       0.680   4.876 -12.993  0.00  0.00    -0.271 OA
ATOM     18  C   UNL     1       1.618   5.462 -12.411  0.00  0.00    +0.272 C 
ATOM     19  N   UNL     1       2.983   5.406 -12.828  0.00  0.00    -0.125 NA
ATOM     20  C   UNL     1       3.727   6.071 -12.007  0.00  0.00    +0.349 C 
ATOM     21  O   UNL     1       5.091   6.313 -12.199  0.00  0.00    -0.249 OA
ATOM     22  N   UNL     1       2.983   6.348 -10.822  0.00  0.00    -0.154 N 
ATOM     23  C   UNL     1       1.593   6.410 -11.261  0.00  0.00    +0.208 C 
ENDBRANCH  15  22
ENDBRANCH   1  16
TORSDOF 4
ENDMDL
MODEL 8
REMARK VINA RESULT:      -7.8      3.074      3.904
REMARK  Name = 
REMARK  4 active torsions:
REMARK  status: ('A' for Active; 'I' for Inactive)
REMARK    1  A    between atoms: N_4  and  N_5
REMARK    2  A    between atoms: C_6  and  C_7
REMARK    3  A    between atoms: C_10  and  C_11
REMARK    4  A    between atoms: C_14  and  N_15
REMARK                            x       y       z     vdW  Elec       q    Type
REMARK                         _______ _______ _______ _____ _____    ______ ____
ROOT
ATOM      1  C   UNL     1       2.220   5.947  -6.237  0.00  0.00    +0.166 A 
ATOM      2  O   UNL     1       2.566   5.161  -7.224  0.00  0.00    -0.452 OA
ATOM      3  C   UNL     1       3.142   5.816  -8.185  0.00  0.00    +0.145 A 
ATOM      4  C   UNL     1       2.743   7.138  -8.038  0.00  0.00    +0.041 A 
ATOM      5  C   UNL     1       2.177   7.223  -6.772  0.00  0.00    +0.042 A 
ENDROOT
BRANCH   3   6
ATOM      6  C   UNL     1       4.245   5.410  -9.066  0.00  0.00    +0.035 A 
ATOM      7  C   UNL     1       5.535   5.268  -8.569  0.00  0.00    +0.009 A 
ATOM      8  C   UNL     1       6.627   5.717  -9.298  0.00  0.00    +0.075 A 
ATOM      9  C   UNL     1       6.453   5.987 -10.647  0.00  0.00    +0.290 A 
ATOM     10  C   UNL     1       5.258   5.585 -11.230  0.00  0.00    +0.075 A 
ATOM     11  C   UNL     1       4.119   5.428 -10.448  0.00  0.00    +0.009 A 
BRANCH   9  12
ATOM     12  N   UNL     1       7.295   6.922 -11.332  0.00  0.00    +0.081 N 
ATOM     13  O   UNL     1       6.857   8.236 -11.283  0.00  0.00    -0.576 OA
ATOM     14  O   UNL     1       7.696   6.544 -12.462  0.00  0.00    +0.041 OA
ENDBRANCH   9  12
ENDBRANCH   3   6
BRANCH   1  16
ATOM     15  N   UNL     1       1.025   4.945  -4.385  0.00  0.00    -0.169 NA
ATOM     16  C   UNL     1       2.021   5.621  -4.820  0.00  0.00    +0.155 C 
BRANCH  15  22
ATOM     17  O   UNL     1      -2.836   7.625  -5.385  0.00  0.00    -0.271 OA
ATOM     18  C   UNL     1      -2.068   6.778  -4.879  0.00  0.00    +0.272 C 
ATOM     19  N   UNL     1      -2.036   6.453  -3.488  0.00  0.00    -0.125 NA
ATOM     20  C   UNL     1      -1.112   5.581  -3.256  0.00  0.00    +0.349 C 
ATOM     21  O   UNL     1      -0.903   4.963  -2.020  0.00  0.00    -0.249 OA
ATOM     22  N   UNL     1      -0.254   5.495  -4.394  0.00  0.00    -0.154 N 
ATOM     23  C   UNL     1      -1.104   5.846  -5.528  0.00  0.00    +0.208 C 
ENDBRANCH  15  22
ENDBRANCH   1  16
TORSDOF 4
ENDMDL
MODEL 9
REMARK VINA RESULT:      -7.8      4.472      8.746
REMARK  Name = 
REMARK  4 active torsions:
REMARK  status: ('A' for Active; 'I' for Inactive)
REMARK    1  A    between atoms: N_4  and  N_5
REMARK    2  A    between atoms: C_6  and  C_7
REMARK    3  A    between atoms: C_10  and  C_11
REMARK    4  A    between atoms: C_14  and  N_15
REMARK                            x       y       z     vdW  Elec       q    Type
REMARK                         _______ _______ _______ _____ _____    ______ ____
ROOT
ATOM      1  C   UNL     1       2.474   5.016  -9.174  0.00  0.00    +0.166 A 
ATOM      2  O   UNL     1       1.208   5.248  -8.941  0.00  0.00    -0.452 OA
ATOM      3  C   UNL     1       0.892   5.008  -7.705  0.00  0.00    +0.145 A 
ATOM      4  C   UNL     1       1.868   4.145  -7.223  0.00  0.00    +0.041 A 
ATOM      5  C   UNL     1       2.895   4.175  -8.158  0.00  0.00    +0.042 A 
ENDROOT
BRANCH   3   6
ATOM      6  C   UNL     1      -0.058   5.706  -6.828  0.00  0.00    +0.035 A 
ATOM      7  C   UNL     1       0.393   6.576  -5.842  0.00  0.00    +0.009 A 
ATOM      8  C   UNL     1      -0.193   6.583  -4.584  0.00  0.00    +0.075 A 
ATOM      9  C   UNL     1      -1.429   5.975  -4.429  0.00  0.00    +0.290 A 
ATOM     10  C   UNL     1      -2.101   5.590  -5.582  0.00  0.00    +0.075 A 
ATOM     11  C   UNL     1      -1.391   5.326  -6.748  0.00  0.00    +0.009 A 
BRANCH   9  12
ATOM     12  N   UNL     1      -1.850   5.460  -3.160  0.00  0.00    +0.081 N 
ATOM     13  O   UNL     1      -0.819   5.013  -2.349  0.00  0.00    -0.576 OA
ATOM     14  O   UNL     1      -2.852   4.702  -3.202  0.00  0.00    +0.041 OA
ENDBRANCH   9  12
ENDBRANCH   3   6
BRANCH   1  16
ATOM     15  N   UNL     1       2.985   6.539 -10.986  0.00  0.00    -0.169 NA
ATOM     16  C   UNL     1       3.344   5.587 -10.209  0.00  0.00    +0.155 C 
BRANCH  15  22
ATOM     17  O   UNL     1       0.797   5.725 -15.187  0.00  0.00    -0.271 OA
ATOM     18  C   UNL     1       1.014   5.936 -13.974  0.00  0.00    +0.272 C 
ATOM     19  N   UNL     1       0.208   6.780 -13.149  0.00  0.00    -0.125 NA
ATOM     20  C   UNL     1       0.702   6.842 -11.957  0.00  0.00    +0.349 C 
ATOM     21  O   UNL     1       0.086   7.484 -10.880  0.00  0.00    -0.249 OA
ATOM     22  N   UNL     1       2.029   6.316 -11.974  0.00  0.00    -0.154 N 
ATOM     23  C   UNL     1       2.029   5.341 -13.061  0.00  0.00    +0.208 C 
ENDBRANCH  15  22
ENDBRANCH   1  16
TORSDOF 4
ENDMDL
