MODEL 1
REMARK VINA RESULT:      -3.9      0.000      0.000
REMARK  Name = 
REMARK  0 active torsions:
REMARK  status: ('A' for Active; 'I' for Inactive)
REMARK                            x       y       z     vdW  Elec       q    Type
REMARK                         _______ _______ _______ _____ _____    ______ ____
ROOT
ATOM      1  N   UNL     1       7.422   7.035 -10.791  0.00  0.00    -0.119 NA
ATOM      2  C   UNL     1       6.995   6.895 -12.307  0.00  0.00    +0.221 C 
ATOM      3  C   UNL     1       8.137   5.815 -12.673  0.00  0.00    +0.311 C 
ATOM      4  O   UNL     1       9.362   5.787 -12.084  0.00  0.00    -0.265 OA
ATOM      5  N   UNL     1       7.516   4.961 -13.432  0.00  0.00    -0.043 NA
ATOM      6  O   UNL     1       6.235   4.787 -13.014  0.00  0.00    -0.373 OA
ATOM      7  C   UNL     1       5.920   5.695 -11.965  0.00  0.00    +0.267 C 
ENDROOT
TORSDOF 0
ENDMDL
MODEL 2
REMARK VINA RESULT:      -3.8     12.975     13.690
REMARK  Name = 
REMARK  0 active torsions:
REMARK  status: ('A' for Active; 'I' for Inactive)
REMARK                            x       y       z     vdW  Elec       q    Type
REMARK                         _______ _______ _______ _____ _____    ______ ____
ROOT
ATOM      1  N   UNL     1      -2.007   7.825  -3.572  0.00  0.00    -0.119 NA
ATOM      2  C   UNL     1      -3.105   6.937  -2.860  0.00  0.00    +0.221 C 
ATOM      3  C   UNL     1      -2.796   5.613  -3.731  0.00  0.00    +0.311 C 
ATOM      4  O   UNL     1      -2.372   5.644  -5.021  0.00  0.00    -0.265 OA
ATOM      5  N   UNL     1      -2.850   4.653  -2.855  0.00  0.00    -0.043 NA
ATOM      6  O   UNL     1      -2.351   5.063  -1.659  0.00  0.00    -0.373 OA
ATOM      7  C   UNL     1      -2.053   6.454  -1.688  0.00  0.00    +0.267 C 
ENDROOT
TORSDOF 0
ENDMDL
MODEL 3
REMARK VINA RESULT:      -3.8      1.520      1.971
REMARK  Name = 
REMARK  0 active torsions:
REMARK  status: ('A' for Active; 'I' for Inactive)
REMARK                            x       y       z     vdW  Elec       q    Type
REMARK                         _______ _______ _______ _____ _____    ______ ____
ROOT
ATOM      1  N   UNL     1       6.671   7.566 -11.587  0.00  0.00    -0.119 NA
ATOM      2  C   UNL     1       6.230   6.075 -11.878  0.00  0.00    +0.221 C 
ATOM      3  C   UNL     1       6.621   6.119 -13.443  0.00  0.00    +0.311 C 
ATOM      4  O   UNL     1       6.540   7.239 -14.208  0.00  0.00    -0.265 OA
ATOM      5  N   UNL     1       7.182   4.964 -13.649  0.00  0.00    -0.043 NA
ATOM      6  O   UNL     1       7.906   4.580 -12.566  0.00  0.00    -0.373 OA
ATOM      7  C   UNL     1       7.717   5.487 -11.486  0.00  0.00    +0.267 C 
ENDROOT
TORSDOF 0
ENDMDL
MODEL 4
REMARK VINA RESULT:      -3.8     13.190     13.783
REMARK  Name = 
REMARK  0 active torsions:
REMARK  status: ('A' for Active; 'I' for Inactive)
REMARK                            x       y       z     vdW  Elec       q    Type
REMARK                         _______ _______ _______ _____ _____    ______ ____
ROOT
ATOM      1  N   UNL     1      -2.079   7.791  -3.700  0.00  0.00    -0.119 NA
ATOM      2  C   UNL     1      -1.427   6.388  -3.370  0.00  0.00    +0.221 C 
ATOM      3  C   UNL     1      -1.951   6.347  -1.844  0.00  0.00    +0.311 C 
ATOM      4  O   UNL     1      -2.118   7.457  -1.077  0.00  0.00    -0.265 OA
ATOM      5  N   UNL     1      -2.330   5.114  -1.685  0.00  0.00    -0.043 NA
ATOM      6  O   UNL     1      -2.888   4.631  -2.826  0.00  0.00    -0.373 OA
ATOM      7  C   UNL     1      -2.759   5.570  -3.887  0.00  0.00    +0.267 C 
ENDROOT
TORSDOF 0
ENDMDL
MODEL 5
REMARK VINA RESULT:      -3.5      1.836      1.860
REMARK  Name = 
REMARK  0 active torsions:
REMARK  status: ('A' for Active; 'I' for Inactive)
REMARK                            x       y       z     vdW  Elec       q    Type
REMARK                         _______ _______ _______ _____ _____    ______ ____
ROOT
ATOM      1  N   UNL     1       5.327   6.782 -11.853  0.00  0.00    -0.119 NA
ATOM      2  C   UNL     1       6.792   6.783 -12.450  0.00  0.00    +0.221 C 
ATOM      3  C   UNL     1       7.357   5.668 -11.429  0.00  0.00    +0.311 C 
ATOM      4  O   UNL     1       6.914   5.523 -10.153  0.00  0.00    -0.265 OA
ATOM      5  N   UNL     1       8.098   4.912 -12.185  0.00  0.00    -0.043 NA
ATOM      6  O   UNL     1       7.551   4.784 -13.422  0.00  0.00    -0.373 OA
ATOM      7  C   UNL     1       6.414   5.627 -13.560  0.00  0.00    +0.267 C 
ENDROOT
TORSDOF 0
ENDMDL
MODEL 6
REMARK VINA RESULT:      -3.5      1.426      1.440
REMARK  Name = 
REMARK  0 active torsions:
REMARK  status: ('A' for Active; 'I' for Inactive)
REMARK                            x       y       z     vdW  Elec       q    Type
REMARK                         _______ _______ _______ _____ _____    ______ ____
ROOT
ATOM      1  N   UNL     1       7.452   6.811 -11.249  0.00  0.00    -0.119 NA
ATOM      2  C   UNL     1       6.548   6.880 -12.545  0.00  0.00    +0.221 C 
ATOM      3  C   UNL     1       6.784   5.338 -12.960  0.00  0.00    +0.311 C 
ATOM      4  O   UNL     1       7.934   4.659 -12.709  0.00  0.00    -0.265 OA
ATOM      5  N   UNL     1       5.606   4.942 -13.344  0.00  0.00    -0.043 NA
ATOM      6  O   UNL     1       4.634   5.517 -12.588  0.00  0.00    -0.373 OA
ATOM      7  C   UNL     1       5.190   6.482 -11.703  0.00  0.00    +0.267 C 
ENDROOT
TORSDOF 0
ENDMDL
MODEL 7
REMARK VINA RESULT:      -3.5      1.375      2.327
REMARK  Name = 
REMARK  0 active torsions:
REMARK  status: ('A' for Active; 'I' for Inactive)
REMARK                            x       y       z     vdW  Elec       q    Type
REMARK                         _______ _______ _______ _____ _____    ______ ____
ROOT
ATOM      1  N   UNL     1       7.326   4.971 -13.516  0.00  0.00    -0.119 NA
ATOM      2  C   UNL     1       6.751   5.322 -12.085  0.00  0.00    +0.221 C 
ATOM      3  C   UNL     1       8.071   6.111 -11.595  0.00  0.00    +0.311 C 
ATOM      4  O   UNL     1       9.330   5.794 -11.998  0.00  0.00    -0.265 OA
ATOM      5  N   UNL     1       7.592   7.145 -10.968  0.00  0.00    -0.043 NA
ATOM      6  O   UNL     1       6.465   7.598 -11.576  0.00  0.00    -0.373 OA
ATOM      7  C   UNL     1       6.072   6.721 -12.626  0.00  0.00    +0.267 C 
ENDROOT
TORSDOF 0
ENDMDL
MODEL 8
REMARK VINA RESULT:      -3.5      1.955      2.916
REMARK  Name = 
REMARK  0 active torsions:
REMARK  status: ('A' for Active; 'I' for Inactive)
REMARK                            x       y       z     vdW  Elec       q    Type
REMARK                         _______ _______ _______ _____ _____    ______ ____
ROOT
ATOM      1  N   UNL     1       7.774   4.686 -12.689  0.00  0.00    -0.119 NA
ATOM      2  C   UNL     1       7.157   6.107 -12.371  0.00  0.00    +0.221 C 
ATOM      3  C   UNL     1       5.624   5.635 -12.548  0.00  0.00    +0.311 C 
ATOM      4  O   UNL     1       5.231   4.665 -13.415  0.00  0.00    -0.265 OA
ATOM      5  N   UNL     1       5.008   6.228 -11.569  0.00  0.00    -0.043 NA
ATOM      6  O   UNL     1       5.796   6.280 -10.464  0.00  0.00    -0.373 OA
ATOM      7  C   UNL     1       7.103   5.798 -10.754  0.00  0.00    +0.267 C 
ENDROOT
TORSDOF 0
ENDMDL
MODEL 9
REMARK VINA RESULT:      -3.3      7.055      7.449
REMARK  Name = 
REMARK  0 active torsions:
REMARK  status: ('A' for Active; 'I' for Inactive)
REMARK                            x       y       z     vdW  Elec       q    Type
REMARK                         _______ _______ _______ _____ _____    ______ ____
ROOT
ATOM      1  N   UNL     1       2.579   4.986  -6.762  0.00  0.00    -0.119 NA
ATOM      2  C   UNL     1       1.452   6.057  -7.056  0.00  0.00    +0.221 C 
ATOM      3  C   UNL     1       2.423   7.333  -6.872  0.00  0.00    +0.311 C 
ATOM      4  O   UNL     1       3.478   7.358  -6.015  0.00  0.00    -0.265 OA
ATOM      5  N   UNL     1       2.068   8.127  -7.838  0.00  0.00    -0.043 NA
ATOM      6  O   UNL     1       1.738   7.418  -8.949  0.00  0.00    -0.373 OA
ATOM      7  C   UNL     1       1.745   6.022  -8.676  0.00  0.00    +0.267 C 
ENDROOT
TORSDOF 0
ENDMDL
