MODEL 1
REMARK VINA RESULT:      -5.4      0.000      0.000
REMARK  Name = 
REMARK  1 active torsions:
REMARK  status: ('A' for Active; 'I' for Inactive)
REMARK    1  A    between atoms: N_2  and  C_3
REMARK                            x       y       z     vdW  Elec       q    Type
REMARK                         _______ _______ _______ _____ _____    ______ ____
ROOT
ATOM      1  C   UNL     1       5.636   6.236 -11.224  0.00  0.00    +0.059 C 
ATOM      2  C   UNL     1       6.213   7.414 -11.983  0.00  0.00    +0.014 C 
ATOM      3  C   UNL     1       6.604   8.610 -11.417  0.00  0.00    +0.001 C 
ATOM      4  C   UNL     1       6.348   7.115 -13.459  0.00  0.00    +0.001 C 
ATOM      5  C   UNL     1       7.058   6.166 -11.509  0.00  0.00    +0.001 C 
ATOM      6  C   UNL     1       7.684   6.959 -10.161  0.00  0.00    +0.001 C 
ATOM      7  C   UNL     1       8.404   6.257 -12.301  0.00  0.00    +0.000 C 
ATOM      8  C   UNL     1       7.874   4.921 -11.529  0.00  0.00    +0.001 C 
ATOM      9  C   UNL     1       6.877   5.547 -10.336  0.00  0.00    +0.015 C 
ATOM     10  C   UNL     1       5.222   5.199 -12.234  0.00  0.00    +0.017 C 
ENDROOT
BRANCH   1  12
ATOM     11  C   UNL     1       3.901   6.376 -10.798  0.00  0.00    +0.107 C 
ATOM     12  N   UNL     1       4.756   6.515 -10.181  0.00  0.00    -0.219 NA
ENDBRANCH   1  12
TORSDOF 1
ENDMDL
MODEL 2
REMARK VINA RESULT:      -5.1      1.369      3.140
REMARK  Name = 
REMARK  1 active torsions:
REMARK  status: ('A' for Active; 'I' for Inactive)
REMARK    1  A    between atoms: N_2  and  C_3
REMARK                            x       y       z     vdW  Elec       q    Type
REMARK                         _______ _______ _______ _____ _____    ______ ____
ROOT
ATOM      1  C   UNL     1       7.252   6.062 -11.482  0.00  0.00    +0.059 C 
ATOM      2  C   UNL     1       6.633   7.218 -12.244  0.00  0.00    +0.014 C 
ATOM      3  C   UNL     1       6.118   7.143 -13.521  0.00  0.00    +0.001 C 
ATOM      4  C   UNL     1       6.612   8.483 -11.416  0.00  0.00    +0.001 C 
ATOM      5  C   UNL     1       5.859   6.342 -11.181  0.00  0.00    +0.001 C 
ATOM      6  C   UNL     1       5.093   5.398 -12.347  0.00  0.00    +0.001 C 
ATOM      7  C   UNL     1       4.560   7.149 -10.850  0.00  0.00    +0.000 C 
ATOM      8  C   UNL     1       5.143   5.925  -9.943  0.00  0.00    +0.001 C 
ATOM      9  C   UNL     1       6.015   5.019 -11.051  0.00  0.00    +0.015 C 
ATOM     10  C   UNL     1       7.804   6.607 -10.192  0.00  0.00    +0.017 C 
ENDROOT
BRANCH   1  12
ATOM     11  C   UNL     1       8.920   5.754 -12.059  0.00  0.00    +0.107 C 
ATOM     12  N   UNL     1       8.043   5.170 -12.202  0.00  0.00    -0.219 NA
ENDBRANCH   1  12
TORSDOF 1
ENDMDL
MODEL 3
REMARK VINA RESULT:      -5.1      4.201      5.710
REMARK  Name = 
REMARK  1 active torsions:
REMARK  status: ('A' for Active; 'I' for Inactive)
REMARK    1  A    between atoms: N_2  and  C_3
REMARK                            x       y       z     vdW  Elec       q    Type
REMARK                         _______ _______ _______ _____ _____    ______ ____
ROOT
ATOM      1  C   UNL     1       2.064   4.904  -7.473  0.00  0.00    +0.059 C 
ATOM      2  C   UNL     1       3.121   5.968  -7.249  0.00  0.00    +0.014 C 
ATOM      3  C   UNL     1       4.441   5.724  -6.933  0.00  0.00    +0.001 C 
ATOM      4  C   UNL     1       2.562   7.359  -7.447  0.00  0.00    +0.001 C 
ATOM      5  C   UNL     1       2.686   5.437  -8.672  0.00  0.00    +0.001 C 
ATOM      6  C   UNL     1       4.011   4.408  -8.819  0.00  0.00    +0.001 C 
ATOM      7  C   UNL     1       3.263   6.475  -9.691  0.00  0.00    +0.000 C 
ATOM      8  C   UNL     1       2.108   5.378 -10.042  0.00  0.00    +0.001 C 
ATOM      9  C   UNL     1       2.400   4.156  -8.933  0.00  0.00    +0.015 C 
ATOM     10  C   UNL     1       0.743   5.601  -7.656  0.00  0.00    +0.017 C 
ENDROOT
BRANCH   1  12
ATOM     11  C   UNL     1       1.356   4.179  -5.995  0.00  0.00    +0.107 C 
ATOM     12  N   UNL     1       2.098   3.784  -6.646  0.00  0.00    -0.219 NA
ENDBRANCH   1  12
TORSDOF 1
ENDMDL
MODEL 4
REMARK VINA RESULT:      -5.0      9.441     11.230
REMARK  Name = 
REMARK  1 active torsions:
REMARK  status: ('A' for Active; 'I' for Inactive)
REMARK    1  A    between atoms: N_2  and  C_3
REMARK                            x       y       z     vdW  Elec       q    Type
REMARK                         _______ _______ _______ _____ _____    ______ ____
ROOT
ATOM      1  C   UNL     1      -0.913   6.206  -3.847  0.00  0.00    +0.059 C 
ATOM      2  C   UNL     1      -2.012   5.535  -4.646  0.00  0.00    +0.014 C 
ATOM      3  C   UNL     1      -3.092   4.866  -4.108  0.00  0.00    +0.001 C 
ATOM      4  C   UNL     1      -1.808   5.715  -6.134  0.00  0.00    +0.001 C 
ATOM      5  C   UNL     1      -1.975   7.079  -4.312  0.00  0.00    +0.001 C 
ATOM      6  C   UNL     1      -3.068   6.945  -3.037  0.00  0.00    +0.001 C 
ATOM      7  C   UNL     1      -3.029   7.732  -5.266  0.00  0.00    +0.000 C 
ATOM      8  C   UNL     1      -1.873   8.556  -4.463  0.00  0.00    +0.001 C 
ATOM      9  C   UNL     1      -1.563   7.576  -3.139  0.00  0.00    +0.015 C 
ATOM     10  C   UNL     1       0.129   6.693  -4.818  0.00  0.00    +0.017 C 
ENDROOT
BRANCH   1  12
ATOM     11  C   UNL     1       0.443   5.264  -3.147  0.00  0.00    +0.107 C 
ATOM     12  N   UNL     1      -0.473   5.558  -2.694  0.00  0.00    -0.219 NA
ENDBRANCH   1  12
TORSDOF 1
ENDMDL
MODEL 5
REMARK VINA RESULT:      -5.0      4.860      6.839
REMARK  Name = 
REMARK  1 active torsions:
REMARK  status: ('A' for Active; 'I' for Inactive)
REMARK    1  A    between atoms: N_2  and  C_3
REMARK                            x       y       z     vdW  Elec       q    Type
REMARK                         _______ _______ _______ _____ _____    ______ ____
ROOT
ATOM      1  C   UNL     1       2.672   4.971  -7.475  0.00  0.00    +0.059 C 
ATOM      2  C   UNL     1       1.567   5.980  -7.722  0.00  0.00    +0.014 C 
ATOM      3  C   UNL     1       0.249   5.667  -7.982  0.00  0.00    +0.001 C 
ATOM      4  C   UNL     1       2.075   7.400  -7.615  0.00  0.00    +0.001 C 
ATOM      5  C   UNL     1       2.064   5.544  -6.287  0.00  0.00    +0.001 C 
ATOM      6  C   UNL     1       0.787   4.474  -6.044  0.00  0.00    +0.001 C 
ATOM      7  C   UNL     1       1.476   6.612  -5.306  0.00  0.00    +0.000 C 
ATOM      8  C   UNL     1       2.684   5.581  -4.934  0.00  0.00    +0.001 C 
ATOM      9  C   UNL     1       2.410   4.291  -5.968  0.00  0.00    +0.015 C 
ATOM     10  C   UNL     1       3.968   5.728  -7.370  0.00  0.00    +0.017 C 
ENDROOT
BRANCH   1  12
ATOM     11  C   UNL     1       3.422   4.165  -8.889  0.00  0.00    +0.107 C 
ATOM     12  N   UNL     1       2.659   3.807  -8.240  0.00  0.00    -0.219 NA
ENDBRANCH   1  12
TORSDOF 1
ENDMDL
MODEL 6
REMARK VINA RESULT:      -5.0      1.215      2.139
REMARK  Name = 
REMARK  1 active torsions:
REMARK  status: ('A' for Active; 'I' for Inactive)
REMARK    1  A    between atoms: N_2  and  C_3
REMARK                            x       y       z     vdW  Elec       q    Type
REMARK                         _______ _______ _______ _____ _____    ______ ____
ROOT
ATOM      1  C   UNL     1       6.178   6.031 -12.452  0.00  0.00    +0.059 C 
ATOM      2  C   UNL     1       5.724   7.024 -11.401  0.00  0.00    +0.014 C 
ATOM      3  C   UNL     1       4.949   6.719 -10.301  0.00  0.00    +0.001 C 
ATOM      4  C   UNL     1       6.255   8.412 -11.679  0.00  0.00    +0.001 C 
ATOM      5  C   UNL     1       7.142   6.327 -11.407  0.00  0.00    +0.001 C 
ATOM      6  C   UNL     1       6.709   5.180 -10.251  0.00  0.00    +0.001 C 
ATOM      7  C   UNL     1       8.008   7.150 -10.397  0.00  0.00    +0.000 C 
ATOM      8  C   UNL     1       8.612   6.114 -11.503  0.00  0.00    +0.001 C 
ATOM      9  C   UNL     1       7.342   5.049 -11.754  0.00  0.00    +0.015 C 
ATOM     10  C   UNL     1       6.881   6.801 -13.537  0.00  0.00    +0.017 C 
ENDROOT
BRANCH   1  12
ATOM     11  C   UNL     1       4.974   5.587 -13.703  0.00  0.00    +0.107 C 
ATOM     12  N   UNL     1       5.272   5.046 -12.838  0.00  0.00    -0.219 NA
ENDBRANCH   1  12
TORSDOF 1
ENDMDL
MODEL 7
REMARK VINA RESULT:      -4.9      4.156      5.954
REMARK  Name = 
REMARK  1 active torsions:
REMARK  status: ('A' for Active; 'I' for Inactive)
REMARK    1  A    between atoms: N_2  and  C_3
REMARK                            x       y       z     vdW  Elec       q    Type
REMARK                         _______ _______ _______ _____ _____    ______ ____
ROOT
ATOM      1  C   UNL     1       1.453   5.488  -8.959  0.00  0.00    +0.059 C 
ATOM      2  C   UNL     1       2.517   4.591  -8.357  0.00  0.00    +0.014 C 
ATOM      3  C   UNL     1       3.703   4.243  -8.969  0.00  0.00    +0.001 C 
ATOM      4  C   UNL     1       2.141   4.137  -6.965  0.00  0.00    +0.001 C 
ATOM      5  C   UNL     1       2.378   6.134  -8.044  0.00  0.00    +0.001 C 
ATOM      6  C   UNL     1       3.608   6.576  -9.107  0.00  0.00    +0.001 C 
ATOM      7  C   UNL     1       3.261   6.377  -6.776  0.00  0.00    +0.000 C 
ATOM      8  C   UNL     1       2.129   7.413  -7.326  0.00  0.00    +0.001 C 
ATOM      9  C   UNL     1       2.050   7.052  -8.961  0.00  0.00    +0.015 C 
ATOM     10  C   UNL     1       0.275   5.493  -8.022  0.00  0.00    +0.017 C 
ENDROOT
BRANCH   1  12
ATOM     11  C   UNL     1       0.314   4.789 -10.153  0.00  0.00    +0.107 C 
ATOM     12  N   UNL     1       1.198   5.354 -10.321  0.00  0.00    -0.219 NA
ENDBRANCH   1  12
TORSDOF 1
ENDMDL
MODEL 8
REMARK VINA RESULT:      -4.9      4.324      6.221
REMARK  Name = 
REMARK  1 active torsions:
REMARK  status: ('A' for Active; 'I' for Inactive)
REMARK    1  A    between atoms: N_2  and  C_3
REMARK                            x       y       z     vdW  Elec       q    Type
REMARK                         _______ _______ _______ _____ _____    ______ ____
ROOT
ATOM      1  C   UNL     1       2.903   5.455  -6.553  0.00  0.00    +0.059 C 
ATOM      2  C   UNL     1       3.397   4.827  -7.842  0.00  0.00    +0.014 C 
ATOM      3  C   UNL     1       2.738   3.845  -8.552  0.00  0.00    +0.001 C 
ATOM      4  C   UNL     1       4.707   5.435  -8.291  0.00  0.00    +0.001 C 
ATOM      5  C   UNL     1       2.623   6.202  -7.766  0.00  0.00    +0.001 C 
ATOM      6  C   UNL     1       1.147   5.526  -8.214  0.00  0.00    +0.001 C 
ATOM      7  C   UNL     1       2.842   6.874  -9.162  0.00  0.00    +0.000 C 
ATOM      8  C   UNL     1       2.317   7.657  -7.831  0.00  0.00    +0.001 C 
ATOM      9  C   UNL     1       1.601   6.436  -6.934  0.00  0.00    +0.015 C 
ATOM     10  C   UNL     1       3.983   6.373  -6.048  0.00  0.00    +0.017 C 
ENDROOT
BRANCH   1  12
ATOM     11  C   UNL     1       3.139   4.577  -5.008  0.00  0.00    +0.107 C 
ATOM     12  N   UNL     1       2.278   4.618  -5.632  0.00  0.00    -0.219 NA
ENDBRANCH   1  12
TORSDOF 1
ENDMDL
MODEL 9
REMARK VINA RESULT:      -4.9      6.670      8.090
REMARK  Name = 
REMARK  1 active torsions:
REMARK  status: ('A' for Active; 'I' for Inactive)
REMARK    1  A    between atoms: N_2  and  C_3
REMARK                            x       y       z     vdW  Elec       q    Type
REMARK                         _______ _______ _______ _____ _____    ______ ____
ROOT
ATOM      1  C   UNL     1       3.363   6.331  -5.031  0.00  0.00    +0.059 C 
ATOM      2  C   UNL     1       4.744   6.183  -4.425  0.00  0.00    +0.014 C 
ATOM      3  C   UNL     1       5.576   7.227  -4.077  0.00  0.00    +0.001 C 
ATOM      4  C   UNL     1       5.105   4.731  -4.208  0.00  0.00    +0.001 C 
ATOM      5  C   UNL     1       3.402   6.120  -3.595  0.00  0.00    +0.001 C 
ATOM      6  C   UNL     1       3.530   7.709  -3.051  0.00  0.00    +0.001 C 
ATOM      7  C   UNL     1       3.804   5.517  -2.208  0.00  0.00    +0.000 C 
ATOM      8  C   UNL     1       2.274   5.612  -2.767  0.00  0.00    +0.001 C 
ATOM      9  C   UNL     1       2.342   6.903  -3.833  0.00  0.00    +0.015 C 
ATOM     10  C   UNL     1       2.865   4.954  -5.379  0.00  0.00    +0.017 C 
ENDROOT
BRANCH   1  12
ATOM     11  C   UNL     1       3.260   6.670  -6.788  0.00  0.00    +0.107 C 
ATOM     12  N   UNL     1       3.180   7.344  -5.969  0.00  0.00    -0.219 NA
ENDBRANCH   1  12
TORSDOF 1
ENDMDL
