MODEL 1
REMARK VINA RESULT:      -4.9      0.000      0.000
REMARK  Name = 
REMARK  2 active torsions:
REMARK  status: ('A' for Active; 'I' for Inactive)
REMARK    1  A    between atoms: O_2  and  C_3
REMARK    2  A    between atoms: C_3  and  C_5
REMARK                            x       y       z     vdW  Elec       q    Type
REMARK                         _______ _______ _______ _____ _____    ______ ____
ROOT
ATOM      1  C   UNL     1      -1.356   5.794  -4.152  0.00  0.00    +0.095 A 
ATOM      2  C   UNL     1      -0.155   5.385  -4.709  0.00  0.00    +0.105 A 
ATOM      3  N   UNL     1       0.007   5.225  -6.040  0.00  0.00    -0.242 NA
ATOM      4  C   UNL     1      -1.022   5.378  -6.906  0.00  0.00    +0.099 A 
ATOM      5  C   UNL     1      -2.296   5.532  -6.380  0.00  0.00    +0.021 A 
ATOM      6  C   UNL     1      -2.390   5.969  -5.064  0.00  0.00    +0.010 A 
ENDROOT
BRANCH   1   7
ATOM      7  C   UNL     1      -1.703   5.323  -2.803  0.00  0.00    +0.343 C 
ATOM      8  O   UNL     1      -2.827   4.740  -2.726  0.00  0.00    -0.245 OA
BRANCH   7  10
ATOM      9  C   UNL     1      -0.214   5.918  -0.923  0.00  0.00    +0.256 C 
ATOM     10  O   UNL     1      -0.751   4.983  -1.859  0.00  0.00    -0.441 OA
ENDBRANCH   7  10
ENDBRANCH   1   7
TORSDOF 2
ENDMDL
MODEL 2
REMARK VINA RESULT:      -4.8      1.256      1.387
REMARK  Name = 
REMARK  2 active torsions:
REMARK  status: ('A' for Active; 'I' for Inactive)
REMARK    1  A    between atoms: O_2  and  C_3
REMARK    2  A    between atoms: C_3  and  C_5
REMARK                            x       y       z     vdW  Elec       q    Type
REMARK                         _______ _______ _______ _____ _____    ______ ____
ROOT
ATOM      1  C   UNL     1      -1.875   6.050  -4.294  0.00  0.00    +0.095 A 
ATOM      2  C   UNL     1      -0.579   5.571  -4.179  0.00  0.00    +0.105 A 
ATOM      3  N   UNL     1       0.147   5.187  -5.252  0.00  0.00    -0.242 NA
ATOM      4  C   UNL     1      -0.379   5.170  -6.499  0.00  0.00    +0.099 A 
ATOM      5  C   UNL     1      -1.742   5.392  -6.632  0.00  0.00    +0.021 A 
ATOM      6  C   UNL     1      -2.383   6.047  -5.588  0.00  0.00    +0.010 A 
ENDROOT
BRANCH   1   7
ATOM      7  C   UNL     1      -2.813   5.813  -3.187  0.00  0.00    +0.343 C 
ATOM      8  O   UNL     1      -2.885   4.602  -2.814  0.00  0.00    -0.245 OA
BRANCH   7  10
ATOM      9  C   UNL     1      -2.266   7.132  -1.171  0.00  0.00    +0.256 C 
ATOM     10  O   UNL     1      -3.130   6.781  -2.251  0.00  0.00    -0.441 OA
ENDBRANCH   7  10
ENDBRANCH   1   7
TORSDOF 2
ENDMDL
MODEL 3
REMARK VINA RESULT:      -4.6     10.086     11.641
REMARK  Name = 
REMARK  2 active torsions:
REMARK  status: ('A' for Active; 'I' for Inactive)
REMARK    1  A    between atoms: O_2  and  C_3
REMARK    2  A    between atoms: C_3  and  C_5
REMARK                            x       y       z     vdW  Elec       q    Type
REMARK                         _______ _______ _______ _____ _____    ______ ____
ROOT
ATOM      1  C   UNL     1       6.494   6.068 -11.747  0.00  0.00    +0.095 A 
ATOM      2  C   UNL     1       5.256   5.556 -11.389  0.00  0.00    +0.105 A 
ATOM      3  N   UNL     1       4.911   5.335 -10.102  0.00  0.00    -0.242 NA
ATOM      4  C   UNL     1       5.786   5.524  -9.087  0.00  0.00    +0.099 A 
ATOM      5  C   UNL     1       7.110   5.785  -9.411  0.00  0.00    +0.021 A 
ATOM      6  C   UNL     1       7.366   6.277 -10.685  0.00  0.00    +0.010 A 
ENDROOT
BRANCH   1   7
ATOM      7  C   UNL     1       7.069   5.673 -13.042  0.00  0.00    +0.343 C 
ATOM      8  O   UNL     1       7.843   4.669 -12.984  0.00  0.00    -0.245 OA
BRANCH   7  10
ATOM      9  C   UNL     1       6.355   7.213 -14.837  0.00  0.00    +0.256 C 
ATOM     10  O   UNL     1       6.439   5.916 -14.248  0.00  0.00    -0.441 OA
ENDBRANCH   7  10
ENDBRANCH   1   7
TORSDOF 2
ENDMDL
MODEL 4
REMARK VINA RESULT:      -4.4      7.947      9.101
REMARK  Name = 
REMARK  2 active torsions:
REMARK  status: ('A' for Active; 'I' for Inactive)
REMARK    1  A    between atoms: O_2  and  C_3
REMARK    2  A    between atoms: C_3  and  C_5
REMARK                            x       y       z     vdW  Elec       q    Type
REMARK                         _______ _______ _______ _____ _____    ______ ____
ROOT
ATOM      1  C   UNL     1       5.041   6.242  -9.835  0.00  0.00    +0.095 A 
ATOM      2  C   UNL     1       6.257   5.702  -9.448  0.00  0.00    +0.105 A 
ATOM      3  N   UNL     1       7.438   6.214  -9.857  0.00  0.00    -0.242 NA
ATOM      4  C   UNL     1       7.503   7.240 -10.738  0.00  0.00    +0.099 A 
ATOM      5  C   UNL     1       6.326   7.645 -11.350  0.00  0.00    +0.021 A 
ATOM      6  C   UNL     1       5.135   7.311 -10.719  0.00  0.00    +0.010 A 
ENDROOT
BRANCH   1   7
ATOM      7  C   UNL     1       3.881   5.347  -9.960  0.00  0.00    +0.343 C 
ATOM      8  O   UNL     1       3.274   5.431 -11.071  0.00  0.00    -0.245 OA
BRANCH   7  10
ATOM      9  C   UNL     1       2.650   3.802  -8.475  0.00  0.00    +0.256 C 
ATOM     10  O   UNL     1       3.780   4.149  -9.275  0.00  0.00    -0.441 OA
ENDBRANCH   7  10
ENDBRANCH   1   7
TORSDOF 2
ENDMDL
MODEL 5
REMARK VINA RESULT:      -4.4      2.729      3.771
REMARK  Name = 
REMARK  2 active torsions:
REMARK  status: ('A' for Active; 'I' for Inactive)
REMARK    1  A    between atoms: O_2  and  C_3
REMARK    2  A    between atoms: C_3  and  C_5
REMARK                            x       y       z     vdW  Elec       q    Type
REMARK                         _______ _______ _______ _____ _____    ______ ____
ROOT
ATOM      1  C   UNL     1      -2.277   6.115  -4.765  0.00  0.00    +0.095 A 
ATOM      2  C   UNL     1      -2.883   5.184  -3.935  0.00  0.00    +0.105 A 
ATOM      3  N   UNL     1      -3.267   5.481  -2.675  0.00  0.00    -0.242 NA
ATOM      4  C   UNL     1      -3.009   6.687  -2.117  0.00  0.00    +0.099 A 
ATOM      5  C   UNL     1      -2.182   7.559  -2.810  0.00  0.00    +0.021 A 
ATOM      6  C   UNL     1      -2.046   7.353  -4.177  0.00  0.00    +0.010 A 
ENDROOT
BRANCH   1   7
ATOM      7  C   UNL     1      -1.314   5.641  -5.769  0.00  0.00    +0.343 C 
ATOM      8  O   UNL     1      -1.798   5.508  -6.935  0.00  0.00    -0.245 OA
BRANCH   7  10
ATOM      9  C   UNL     1       0.928   5.045  -4.918  0.00  0.00    +0.256 C 
ATOM     10  O   UNL     1       0.046   5.874  -5.674  0.00  0.00    -0.441 OA
ENDBRANCH   7  10
ENDBRANCH   1   7
TORSDOF 2
ENDMDL
MODEL 6
REMARK VINA RESULT:      -4.4      9.651     10.812
REMARK  Name = 
REMARK  2 active torsions:
REMARK  status: ('A' for Active; 'I' for Inactive)
REMARK    1  A    between atoms: O_2  and  C_3
REMARK    2  A    between atoms: C_3  and  C_5
REMARK                            x       y       z     vdW  Elec       q    Type
REMARK                         _______ _______ _______ _____ _____    ______ ____
ROOT
ATOM      1  C   UNL     1       6.874   6.403 -11.564  0.00  0.00    +0.095 A 
ATOM      2  C   UNL     1       7.359   5.183 -12.007  0.00  0.00    +0.105 A 
ATOM      3  N   UNL     1       7.527   4.905 -13.318  0.00  0.00    -0.242 NA
ATOM      4  C   UNL     1       7.153   5.776 -14.284  0.00  0.00    +0.099 A 
ATOM      5  C   UNL     1       6.429   6.897 -13.903  0.00  0.00    +0.021 A 
ATOM      6  C   UNL     1       6.521   7.290 -12.574  0.00  0.00    +0.010 A 
ENDROOT
BRANCH   1   7
ATOM      7  C   UNL     1       6.098   6.440 -10.315  0.00  0.00    +0.343 C 
ATOM      8  O   UNL     1       4.987   7.046 -10.409  0.00  0.00    -0.245 OA
BRANCH   7  10
ATOM      9  C   UNL     1       5.244   5.303  -8.295  0.00  0.00    +0.256 C 
ATOM     10  O   UNL     1       6.207   5.471  -9.335  0.00  0.00    -0.441 OA
ENDBRANCH   7  10
ENDBRANCH   1   7
TORSDOF 2
ENDMDL
MODEL 7
REMARK VINA RESULT:      -4.3      3.266      4.478
REMARK  Name = 
REMARK  2 active torsions:
REMARK  status: ('A' for Active; 'I' for Inactive)
REMARK    1  A    between atoms: O_2  and  C_3
REMARK    2  A    between atoms: C_3  and  C_5
REMARK                            x       y       z     vdW  Elec       q    Type
REMARK                         _______ _______ _______ _____ _____    ______ ____
ROOT
ATOM      1  C   UNL     1       0.045   5.073  -6.339  0.00  0.00    +0.095 A 
ATOM      2  C   UNL     1       0.048   5.344  -4.979  0.00  0.00    +0.105 A 
ATOM      3  N   UNL     1      -1.080   5.642  -4.299  0.00  0.00    -0.242 NA
ATOM      4  C   UNL     1      -2.274   5.774  -4.923  0.00  0.00    +0.099 A 
ATOM      5  C   UNL     1      -2.286   5.768  -6.310  0.00  0.00    +0.021 A 
ATOM      6  C   UNL     1      -1.198   5.190  -6.951  0.00  0.00    +0.010 A 
ENDROOT
BRANCH   1   7
ATOM      7  C   UNL     1       1.236   5.420  -7.128  0.00  0.00    +0.343 C 
ATOM      8  O   UNL     1       1.459   6.666  -7.216  0.00  0.00    -0.245 OA
BRANCH   7  10
ATOM      9  C   UNL     1       2.612   3.860  -8.461  0.00  0.00    +0.256 C 
ATOM     10  O   UNL     1       2.322   4.574  -7.260  0.00  0.00    -0.441 OA
ENDBRANCH   7  10
ENDBRANCH   1   7
TORSDOF 2
ENDMDL
MODEL 8
REMARK VINA RESULT:      -4.3      9.176     10.410
REMARK  Name = 
REMARK  2 active torsions:
REMARK  status: ('A' for Active; 'I' for Inactive)
REMARK    1  A    between atoms: O_2  and  C_3
REMARK    2  A    between atoms: C_3  and  C_5
REMARK                            x       y       z     vdW  Elec       q    Type
REMARK                         _______ _______ _______ _____ _____    ______ ____
ROOT
ATOM      1  C   UNL     1       5.801   5.828 -11.285  0.00  0.00    +0.095 A 
ATOM      2  C   UNL     1       6.042   5.192 -12.493  0.00  0.00    +0.105 A 
ATOM      3  N   UNL     1       7.290   4.997 -12.971  0.00  0.00    -0.242 NA
ATOM      4  C   UNL     1       8.380   5.485 -12.334  0.00  0.00    +0.099 A 
ATOM      5  C   UNL     1       8.177   6.345 -11.265  0.00  0.00    +0.021 A 
ATOM      6  C   UNL     1       6.938   6.297 -10.638  0.00  0.00    +0.010 A 
ENDROOT
BRANCH   1   7
ATOM      7  C   UNL     1       4.556   6.595 -11.130  0.00  0.00    +0.343 C 
ATOM      8  O   UNL     1       3.644   6.282 -11.954  0.00  0.00    -0.245 OA
BRANCH   7  10
ATOM      9  C   UNL     1       3.603   6.364  -8.862  0.00  0.00    +0.256 C 
ATOM     10  O   UNL     1       4.157   7.141  -9.923  0.00  0.00    -0.441 OA
ENDBRANCH   7  10
ENDBRANCH   1   7
TORSDOF 2
ENDMDL
MODEL 9
REMARK VINA RESULT:      -4.1      8.905     10.245
REMARK  Name = 
REMARK  2 active torsions:
REMARK  status: ('A' for Active; 'I' for Inactive)
REMARK    1  A    between atoms: O_2  and  C_3
REMARK    2  A    between atoms: C_3  and  C_5
REMARK                            x       y       z     vdW  Elec       q    Type
REMARK                         _______ _______ _______ _____ _____    ______ ____
ROOT
ATOM      1  C   UNL     1       5.778   6.314 -10.623  0.00  0.00    +0.095 A 
ATOM      2  C   UNL     1       6.176   5.651  -9.473  0.00  0.00    +0.105 A 
ATOM      3  N   UNL     1       5.333   5.418  -8.444  0.00  0.00    -0.242 NA
ATOM      4  C   UNL     1       4.065   5.891  -8.442  0.00  0.00    +0.099 A 
ATOM      5  C   UNL     1       3.699   6.774  -9.447  0.00  0.00    +0.021 A 
ATOM      6  C   UNL     1       4.464   6.767 -10.607  0.00  0.00    +0.010 A 
ENDROOT
BRANCH   1   7
ATOM      7  C   UNL     1       6.772   7.113 -11.354  0.00  0.00    +0.343 C 
ATOM      8  O   UNL     1       6.508   8.354 -11.406  0.00  0.00    -0.245 OA
BRANCH   7  10
ATOM      9  C   UNL     1       8.569   5.768 -12.386  0.00  0.00    +0.256 C 
ATOM     10  O   UNL     1       8.101   6.746 -11.458  0.00  0.00    -0.441 OA
ENDBRANCH   7  10
ENDBRANCH   1   7
TORSDOF 2
ENDMDL
