MODEL 1
REMARK VINA RESULT:      -6.8      0.000      0.000
REMARK  Name = 
REMARK  10 active torsions:
REMARK  status: ('A' for Active; 'I' for Inactive)
REMARK    1  A    between atoms: C_2  and  C_3
REMARK    2  A    between atoms: C_3  and  C_4
REMARK    3  A    between atoms: C_4  and  O_6
REMARK    4  A    between atoms: O_6  and  C_7
REMARK    5  A    between atoms: C_7  and  O_8
REMARK    6  A    between atoms: O_8  and  C_9
REMARK    7  A    between atoms: C_9  and  C_11
REMARK    8  A    between atoms: C_17  and  C_18
REMARK    9  A    between atoms: C_18  and  O_20
REMARK   10  A    between atoms: C_22  and  C_23
REMARK                            x       y       z     vdW  Elec       q    Type
REMARK                         _______ _______ _______ _____ _____    ______ ____
ROOT
ATOM      1  C   UNL     1       2.001   6.804  -4.845  0.00  0.00    +0.073 C 
ATOM      2  C   UNL     1       1.245   5.507  -4.173  0.00  0.00    +0.082 C 
ATOM      3  C   UNL     1       1.334   6.143  -2.662  0.00  0.00    +0.073 C 
ATOM      4  C   UNL     1       2.601   5.946  -2.271  0.00  0.00    +0.051 C 
ATOM      5  C   UNL     1       2.903   6.141  -0.817  0.00  0.00    +0.049 C 
ATOM      6  N   UNL     1       3.665   6.146  -3.214  0.00  0.00    -0.221 NA
ATOM      7  C   UNL     1       3.287   6.680  -4.492  0.00  0.00    +0.051 C 
ATOM      8  C   UNL     1       4.411   6.801  -5.472  0.00  0.00    +0.049 C 
ENDROOT
BRANCH   2   9
ATOM      9  C   UNL     1      -0.248   6.106  -4.449  0.00  0.00    -0.002 A 
ATOM     10  C   UNL     1      -1.002   5.495  -5.379  0.00  0.00    +0.065 A 
ATOM     11 CL   UNL     1      -0.410   4.286  -6.467  0.00  0.00    -0.082 Cl
ATOM     12  C   UNL     1      -2.210   6.111  -5.692  0.00  0.00    +0.068 A 
ATOM     13 CL   UNL     1      -3.487   5.115  -6.381  0.00  0.00    -0.081 Cl
ATOM     14  C   UNL     1      -2.443   7.419  -5.282  0.00  0.00    +0.012 A 
ATOM     15  C   UNL     1      -1.462   8.134  -4.603  0.00  0.00    +0.001 A 
ATOM     16  C   UNL     1      -0.384   7.433  -4.070  0.00  0.00    -0.003 A 
ENDBRANCH   2   9
BRANCH   3  17
ATOM     17  C   UNL     1       0.355   5.413  -1.834  0.00  0.00    +0.339 C 
ATOM     18  O   UNL     1       0.571   4.203  -1.517  0.00  0.00    -0.245 OA
BRANCH  17  19
ATOM     19  O   UNL     1      -0.329   6.166  -0.873  0.00  0.00    -0.442 OA
ATOM     20  C   UNL     1      -1.742   6.045  -0.710  0.00  0.00    +0.256 C 
ENDBRANCH  17  19
ENDBRANCH   3  17
BRANCH   1  21
ATOM     21  C   UNL     1       1.714   6.912  -6.287  0.00  0.00    +0.341 C 
ATOM     22  O   UNL     1       1.710   8.025  -6.899  0.00  0.00    -0.245 OA
BRANCH  21  23
ATOM     23  O   UNL     1       2.063   5.844  -7.124  0.00  0.00    -0.405 OA
BRANCH  23  24
ATOM     24  C   UNL     1       2.075   5.981  -8.542  0.00  0.00    +0.433 C 
BRANCH  24  25
ATOM     25  O   UNL     1       3.362   5.961  -9.085  0.00  0.00    -0.408 OA
BRANCH  25  26
ATOM     26  C   UNL     1       4.280   4.947  -8.960  0.00  0.00    +0.320 C 
ATOM     27  O   UNL     1       3.858   3.766  -9.078  0.00  0.00    -0.250 OA
BRANCH  26  28
ATOM     28  C   UNL     1       5.686   5.143  -8.497  0.00  0.00    +0.110 C 
BRANCH  28  30
ATOM     29  C   UNL     1       7.448   5.911  -9.576  0.00  0.00    +0.001 C 
ATOM     30  C   UNL     1       6.388   5.810  -9.677  0.00  0.00    +0.012 C 
ENDBRANCH  28  30
ENDBRANCH  26  28
ENDBRANCH  25  26
ENDBRANCH  24  25
ENDBRANCH  23  24
ENDBRANCH  21  23
ENDBRANCH   1  21
TORSDOF 10
ENDMDL
MODEL 2
REMARK VINA RESULT:      -6.6      1.379      2.444
REMARK  Name = 
REMARK  10 active torsions:
REMARK  status: ('A' for Active; 'I' for Inactive)
REMARK    1  A    between atoms: C_2  and  C_3
REMARK    2  A    between atoms: C_3  and  C_4
REMARK    3  A    between atoms: C_4  and  O_6
REMARK    4  A    between atoms: O_6  and  C_7
REMARK    5  A    between atoms: C_7  and  O_8
REMARK    6  A    between atoms: O_8  and  C_9
REMARK    7  A    between atoms: C_9  and  C_11
REMARK    8  A    between atoms: C_17  and  C_18
REMARK    9  A    between atoms: C_18  and  O_20
REMARK   10  A    between atoms: C_22  and  C_23
REMARK                            x       y       z     vdW  Elec       q    Type
REMARK                         _______ _______ _______ _____ _____    ______ ____
ROOT
ATOM      1  C   UNL     1       2.231   6.766  -4.694  0.00  0.00    +0.073 C 
ATOM      2  C   UNL     1       1.472   5.477  -4.009  0.00  0.00    +0.082 C 
ATOM      3  C   UNL     1       1.474   6.170  -2.521  0.00  0.00    +0.073 C 
ATOM      4  C   UNL     1       2.724   6.018  -2.063  0.00  0.00    +0.051 C 
ATOM      5  C   UNL     1       2.951   6.274  -0.605  0.00  0.00    +0.049 C 
ATOM      6  N   UNL     1       3.827   6.208  -2.961  0.00  0.00    -0.221 NA
ATOM      7  C   UNL     1       3.500   6.685  -4.275  0.00  0.00    +0.051 C 
ATOM      8  C   UNL     1       4.667   6.797  -5.205  0.00  0.00    +0.049 C 
ENDROOT
BRANCH   2   9
ATOM      9  C   UNL     1      -0.019   6.030  -4.378  0.00  0.00    -0.002 A 
ATOM     10  C   UNL     1      -0.699   5.391  -5.346  0.00  0.00    +0.065 A 
ATOM     11 CL   UNL     1      -0.008   4.193  -6.387  0.00  0.00    -0.082 Cl
ATOM     12  C   UNL     1      -1.903   5.969  -5.736  0.00  0.00    +0.068 A 
ATOM     13 CL   UNL     1      -3.107   4.931  -6.491  0.00  0.00    -0.081 Cl
ATOM     14  C   UNL     1      -2.198   7.272  -5.351  0.00  0.00    +0.012 A 
ATOM     15  C   UNL     1      -1.280   8.020  -4.621  0.00  0.00    +0.001 A 
ATOM     16  C   UNL     1      -0.216   7.354  -4.019  0.00  0.00    -0.003 A 
ENDBRANCH   2   9
BRANCH   3  17
ATOM     17  C   UNL     1       0.472   5.449  -1.713  0.00  0.00    +0.339 C 
ATOM     18  O   UNL     1       0.660   4.230  -1.412  0.00  0.00    -0.245 OA
BRANCH  17  19
ATOM     19  O   UNL     1      -0.206   6.202  -0.747  0.00  0.00    -0.442 OA
ATOM     20  C   UNL     1      -1.632   6.215  -0.689  0.00  0.00    +0.256 C 
ENDBRANCH  17  19
ENDBRANCH   3  17
BRANCH   1  21
ATOM     21  C   UNL     1       2.011   6.813  -6.150  0.00  0.00    +0.341 C 
ATOM     22  O   UNL     1       2.040   7.900  -6.808  0.00  0.00    -0.245 OA
BRANCH  21  23
ATOM     23  O   UNL     1       2.394   5.710  -6.925  0.00  0.00    -0.405 OA
BRANCH  23  24
ATOM     24  C   UNL     1       2.951   5.869  -8.227  0.00  0.00    +0.433 C 
BRANCH  24  25
ATOM     25  O   UNL     1       2.341   5.060  -9.188  0.00  0.00    -0.408 OA
BRANCH  25  26
ATOM     26  C   UNL     1       1.193   5.351  -9.884  0.00  0.00    +0.320 C 
ATOM     27  O   UNL     1       0.684   4.429 -10.573  0.00  0.00    -0.250 OA
BRANCH  26  28
ATOM     28  C   UNL     1       0.633   6.727 -10.036  0.00  0.00    +0.110 C 
BRANCH  28  30
ATOM     29  C   UNL     1      -0.665   7.559 -11.611  0.00  0.00    +0.001 C 
ATOM     30  C   UNL     1      -0.320   6.624 -11.223  0.00  0.00    +0.012 C 
ENDBRANCH  28  30
ENDBRANCH  26  28
ENDBRANCH  25  26
ENDBRANCH  24  25
ENDBRANCH  23  24
ENDBRANCH  21  23
ENDBRANCH   1  21
TORSDOF 10
ENDMDL
MODEL 3
REMARK VINA RESULT:      -6.6      2.896      4.753
REMARK  Name = 
REMARK  10 active torsions:
REMARK  status: ('A' for Active; 'I' for Inactive)
REMARK    1  A    between atoms: C_2  and  C_3
REMARK    2  A    between atoms: C_3  and  C_4
REMARK    3  A    between atoms: C_4  and  O_6
REMARK    4  A    between atoms: O_6  and  C_7
REMARK    5  A    between atoms: C_7  and  O_8
REMARK    6  A    between atoms: O_8  and  C_9
REMARK    7  A    between atoms: C_9  and  C_11
REMARK    8  A    between atoms: C_17  and  C_18
REMARK    9  A    between atoms: C_18  and  O_20
REMARK   10  A    between atoms: C_22  and  C_23
REMARK                            x       y       z     vdW  Elec       q    Type
REMARK                         _______ _______ _______ _____ _____    ______ ____
ROOT
ATOM      1  C   UNL     1      -0.070   5.426  -4.331  0.00  0.00    +0.073 C 
ATOM      2  C   UNL     1      -0.011   6.747  -3.351  0.00  0.00    +0.082 C 
ATOM      3  C   UNL     1      -1.316   6.255  -2.485  0.00  0.00    +0.073 C 
ATOM      4  C   UNL     1      -2.377   6.539  -3.254  0.00  0.00    +0.051 C 
ATOM      5  C   UNL     1      -3.724   6.491  -2.600  0.00  0.00    +0.049 C 
ATOM      6  N   UNL     1      -2.303   6.299  -4.666  0.00  0.00    -0.221 NA
ATOM      7  C   UNL     1      -1.119   5.636  -5.136  0.00  0.00    +0.051 C 
ATOM      8  C   UNL     1      -1.045   5.473  -6.621  0.00  0.00    +0.049 C 
ENDROOT
BRANCH   2   9
ATOM      9  C   UNL     1       1.057   6.064  -2.324  0.00  0.00    -0.002 A 
ATOM     10  C   UNL     1       2.309   6.553  -2.310  0.00  0.00    +0.065 A 
ATOM     11 CL   UNL     1       2.923   7.679  -3.473  0.00  0.00    -0.082 Cl
ATOM     12  C   UNL     1       3.231   5.862  -1.531  0.00  0.00    +0.068 A 
ATOM     13 CL   UNL     1       4.651   6.736  -0.966  0.00  0.00    -0.081 Cl
ATOM     14  C   UNL     1       2.922   4.589  -1.064  0.00  0.00    +0.012 A 
ATOM     15  C   UNL     1       1.719   3.982  -1.408  0.00  0.00    +0.001 A 
ATOM     16  C   UNL     1       0.711   4.774  -1.952  0.00  0.00    -0.003 A 
ENDBRANCH   2   9
BRANCH   3  17
ATOM     17  C   UNL     1      -1.300   7.016  -1.221  0.00  0.00    +0.339 C 
ATOM     18  O   UNL     1      -1.613   8.247  -1.218  0.00  0.00    -0.245 OA
BRANCH  17  19
ATOM     19  O   UNL     1      -1.657   6.309  -0.066  0.00  0.00    -0.442 OA
ATOM     20  C   UNL     1      -1.986   6.991   1.143  0.00  0.00    +0.256 C 
ENDBRANCH  17  19
ENDBRANCH   3  17
BRANCH   1  21
ATOM     21  C   UNL     1       1.229   5.176  -4.981  0.00  0.00    +0.341 C 
ATOM     22  O   UNL     1       1.627   4.008  -5.281  0.00  0.00    -0.245 OA
BRANCH  21  23
ATOM     23  O   UNL     1       1.753   6.154  -5.837  0.00  0.00    -0.405 OA
BRANCH  23  24
ATOM     24  C   UNL     1       2.844   5.875  -6.710  0.00  0.00    +0.433 C 
BRANCH  24  25
ATOM     25  O   UNL     1       2.477   5.855  -8.058  0.00  0.00    -0.408 OA
BRANCH  25  26
ATOM     26  C   UNL     1       2.023   4.766  -8.760  0.00  0.00    +0.320 C 
ATOM     27  O   UNL     1       2.609   3.668  -8.568  0.00  0.00    -0.250 OA
BRANCH  26  28
ATOM     28  C   UNL     1       1.027   4.841  -9.869  0.00  0.00    +0.110 C 
BRANCH  28  30
ATOM     29  C   UNL     1      -0.091   6.577 -10.642  0.00  0.00    +0.001 C 
ATOM     30  C   UNL     1       0.764   6.334 -10.047  0.00  0.00    +0.012 C 
ENDBRANCH  28  30
ENDBRANCH  26  28
ENDBRANCH  25  26
ENDBRANCH  24  25
ENDBRANCH  23  24
ENDBRANCH  21  23
ENDBRANCH   1  21
TORSDOF 10
ENDMDL
MODEL 4
REMARK VINA RESULT:      -6.5      2.779      4.805
REMARK  Name = 
REMARK  10 active torsions:
REMARK  status: ('A' for Active; 'I' for Inactive)
REMARK    1  A    between atoms: C_2  and  C_3
REMARK    2  A    between atoms: C_3  and  C_4
REMARK    3  A    between atoms: C_4  and  O_6
REMARK    4  A    between atoms: O_6  and  C_7
REMARK    5  A    between atoms: C_7  and  O_8
REMARK    6  A    between atoms: O_8  and  C_9
REMARK    7  A    between atoms: C_9  and  C_11
REMARK    8  A    between atoms: C_17  and  C_18
REMARK    9  A    between atoms: C_18  and  O_20
REMARK   10  A    between atoms: C_22  and  C_23
REMARK                            x       y       z     vdW  Elec       q    Type
REMARK                         _______ _______ _______ _____ _____    ______ ____
ROOT
ATOM      1  C   UNL     1       1.205   4.936  -7.878  0.00  0.00    +0.073 C 
ATOM      2  C   UNL     1       1.008   6.278  -6.946  0.00  0.00    +0.082 C 
ATOM      3  C   UNL     1      -0.191   5.582  -6.066  0.00  0.00    +0.073 C 
ATOM      4  C   UNL     1      -1.279   5.637  -6.847  0.00  0.00    +0.051 C 
ATOM      5  C   UNL     1      -2.599   5.361  -6.196  0.00  0.00    +0.049 C 
ATOM      6  N   UNL     1      -1.149   5.366  -8.250  0.00  0.00    -0.221 NA
ATOM      7  C   UNL     1       0.142   4.920  -8.693  0.00  0.00    +0.051 C 
ATOM      8  C   UNL     1       0.259   4.722 -10.172  0.00  0.00    +0.049 C 
ENDROOT
BRANCH   2   9
ATOM      9  C   UNL     1       2.175   5.840  -5.892  0.00  0.00    -0.002 A 
ATOM     10  C   UNL     1       3.284   6.599  -5.841  0.00  0.00    +0.065 A 
ATOM     11 CL   UNL     1       3.659   7.848  -6.980  0.00  0.00    -0.082 Cl
ATOM     12  C   UNL     1       4.317   6.124  -5.039  0.00  0.00    +0.068 A 
ATOM     13 CL   UNL     1       5.487   7.289  -4.430  0.00  0.00    -0.081 Cl
ATOM     14  C   UNL     1       4.290   4.809  -4.588  0.00  0.00    +0.012 A 
ATOM     15  C   UNL     1       3.264   3.951  -4.969  0.00  0.00    +0.001 A 
ATOM     16  C   UNL     1       2.119   4.501  -5.537  0.00  0.00    -0.003 A 
ENDBRANCH   2   9
BRANCH   3  17
ATOM     17  C   UNL     1      -0.328   6.376  -4.830  0.00  0.00    +0.339 C 
ATOM     18  O   UNL     1      -0.716   7.583  -4.892  0.00  0.00    -0.245 OA
BRANCH  17  19
ATOM     19  O   UNL     1      -0.735   5.678  -3.686  0.00  0.00    -0.442 OA
ATOM     20  C   UNL     1       0.153   5.483  -2.586  0.00  0.00    +0.256 C 
ENDBRANCH  17  19
ENDBRANCH   3  17
BRANCH   1  21
ATOM     21  C   UNL     1       2.533   4.910  -8.515  0.00  0.00    +0.341 C 
ATOM     22  O   UNL     1       3.144   3.826  -8.772  0.00  0.00    -0.245 OA
BRANCH  21  23
ATOM     23  O   UNL     1       2.873   5.937  -9.406  0.00  0.00    -0.405 OA
BRANCH  23  24
ATOM     24  C   UNL     1       3.781   5.721 -10.483  0.00  0.00    +0.433 C 
BRANCH  24  25
ATOM     25  O   UNL     1       4.908   6.544 -10.425  0.00  0.00    -0.408 OA
BRANCH  25  26
ATOM     26  C   UNL     1       6.166   6.169 -10.020  0.00  0.00    +0.320 C 
ATOM     27  O   UNL     1       6.251   5.408  -9.020  0.00  0.00    -0.250 OA
BRANCH  26  28
ATOM     28  C   UNL     1       7.428   6.759 -10.557  0.00  0.00    +0.110 C 
BRANCH  28  30
ATOM     29  C   UNL     1       8.141   5.550 -12.257  0.00  0.00    +0.001 C 
ATOM     30  C   UNL     1       8.164   5.580 -11.188  0.00  0.00    +0.012 C 
ENDBRANCH  28  30
ENDBRANCH  26  28
ENDBRANCH  25  26
ENDBRANCH  24  25
ENDBRANCH  23  24
ENDBRANCH  21  23
ENDBRANCH   1  21
TORSDOF 10
ENDMDL
MODEL 5
REMARK VINA RESULT:      -6.5      2.739      4.371
REMARK  Name = 
REMARK  10 active torsions:
REMARK  status: ('A' for Active; 'I' for Inactive)
REMARK    1  A    between atoms: C_2  and  C_3
REMARK    2  A    between atoms: C_3  and  C_4
REMARK    3  A    between atoms: C_4  and  O_6
REMARK    4  A    between atoms: O_6  and  C_7
REMARK    5  A    between atoms: C_7  and  O_8
REMARK    6  A    between atoms: O_8  and  C_9
REMARK    7  A    between atoms: C_9  and  C_11
REMARK    8  A    between atoms: C_17  and  C_18
REMARK    9  A    between atoms: C_18  and  O_20
REMARK   10  A    between atoms: C_22  and  C_23
REMARK                            x       y       z     vdW  Elec       q    Type
REMARK                         _______ _______ _______ _____ _____    ______ ____
ROOT
ATOM      1  C   UNL     1       1.413   5.173  -5.867  0.00  0.00    +0.073 C 
ATOM      2  C   UNL     1       0.928   6.666  -5.376  0.00  0.00    +0.082 C 
ATOM      3  C   UNL     1      -0.607   6.157  -5.092  0.00  0.00    +0.073 C 
ATOM      4  C   UNL     1      -1.180   6.075  -6.301  0.00  0.00    +0.051 C 
ATOM      5  C   UNL     1      -2.671   5.937  -6.340  0.00  0.00    +0.049 C 
ATOM      6  N   UNL     1      -0.424   5.545  -7.400  0.00  0.00    -0.221 NA
ATOM      7  C   UNL     1       0.871   5.013  -7.081  0.00  0.00    +0.051 C 
ATOM      8  C   UNL     1       1.658   4.542  -8.263  0.00  0.00    +0.049 C 
ENDROOT
BRANCH   2   9
ATOM      9  C   UNL     1       1.403   6.424  -3.833  0.00  0.00    -0.002 A 
ATOM     10  C   UNL     1       2.546   7.009  -3.434  0.00  0.00    +0.065 A 
ATOM     11 CL   UNL     1       3.662   7.788  -4.503  0.00  0.00    -0.082 Cl
ATOM     12  C   UNL     1       2.998   6.671  -2.162  0.00  0.00    +0.068 A 
ATOM     13 CL   UNL     1       4.068   7.802  -1.342  0.00  0.00    -0.081 Cl
ATOM     14  C   UNL     1       2.452   5.573  -1.506  0.00  0.00    +0.012 A 
ATOM     15  C   UNL     1       1.492   4.782  -2.128  0.00  0.00    +0.001 A 
ATOM     16  C   UNL     1       0.865   5.277  -3.268  0.00  0.00    -0.003 A 
ENDBRANCH   2   9
BRANCH   3  17
ATOM     17  C   UNL     1      -1.237   7.169  -4.223  0.00  0.00    +0.339 C 
ATOM     18  O   UNL     1      -1.472   8.333  -4.673  0.00  0.00    -0.245 OA
BRANCH  17  19
ATOM     19  O   UNL     1      -2.167   6.693  -3.290  0.00  0.00    -0.442 OA
ATOM     20  C   UNL     1      -2.128   7.118  -1.928  0.00  0.00    +0.256 C 
ENDBRANCH  17  19
ENDBRANCH   3  17
BRANCH   1  21
ATOM     21  C   UNL     1       2.875   5.017  -5.764  0.00  0.00    +0.341 C 
ATOM     22  O   UNL     1       3.419   3.931  -5.390  0.00  0.00    -0.245 OA
BRANCH  21  23
ATOM     23  O   UNL     1       3.693   5.752  -6.632  0.00  0.00    -0.405 OA
BRANCH  23  24
ATOM     24  C   UNL     1       4.980   5.281  -7.022  0.00  0.00    +0.433 C 
BRANCH  24  25
ATOM     25  O   UNL     1       5.063   4.972  -8.382  0.00  0.00    -0.408 OA
BRANCH  25  26
ATOM     26  C   UNL     1       5.872   5.588  -9.306  0.00  0.00    +0.320 C 
ATOM     27  O   UNL     1       7.116   5.465  -9.161  0.00  0.00    -0.250 OA
BRANCH  26  28
ATOM     28  C   UNL     1       5.381   6.549 -10.339  0.00  0.00    +0.110 C 
BRANCH  28  30
ATOM     29  C   UNL     1       6.464   8.064 -11.516  0.00  0.00    +0.001 C 
ATOM     30  C   UNL     1       6.633   7.291 -10.797  0.00  0.00    +0.012 C 
ENDBRANCH  28  30
ENDBRANCH  26  28
ENDBRANCH  25  26
ENDBRANCH  24  25
ENDBRANCH  23  24
ENDBRANCH  21  23
ENDBRANCH   1  21
TORSDOF 10
ENDMDL
MODEL 6
REMARK VINA RESULT:      -6.5      2.994      5.071
REMARK  Name = 
REMARK  10 active torsions:
REMARK  status: ('A' for Active; 'I' for Inactive)
REMARK    1  A    between atoms: C_2  and  C_3
REMARK    2  A    between atoms: C_3  and  C_4
REMARK    3  A    between atoms: C_4  and  O_6
REMARK    4  A    between atoms: O_6  and  C_7
REMARK    5  A    between atoms: C_7  and  O_8
REMARK    6  A    between atoms: O_8  and  C_9
REMARK    7  A    between atoms: C_9  and  C_11
REMARK    8  A    between atoms: C_17  and  C_18
REMARK    9  A    between atoms: C_18  and  O_20
REMARK   10  A    between atoms: C_22  and  C_23
REMARK                            x       y       z     vdW  Elec       q    Type
REMARK                         _______ _______ _______ _____ _____    ______ ____
ROOT
ATOM      1  C   UNL     1       0.017   5.325  -6.939  0.00  0.00    +0.073 C 
ATOM      2  C   UNL     1       1.226   6.270  -6.345  0.00  0.00    +0.082 C 
ATOM      3  C   UNL     1       1.467   5.281  -5.057  0.00  0.00    +0.073 C 
ATOM      4  C   UNL     1       0.468   5.559  -4.207  0.00  0.00    +0.051 C 
ATOM      5  C   UNL     1       0.599   5.038  -2.809  0.00  0.00    +0.049 C 
ATOM      6  N   UNL     1      -0.852   5.778  -4.725  0.00  0.00    -0.221 NA
ATOM      7  C   UNL     1      -1.027   5.548  -6.131  0.00  0.00    +0.051 C 
ATOM      8  C   UNL     1      -2.397   5.860  -6.647  0.00  0.00    +0.049 C 
ENDROOT
BRANCH   2   9
ATOM      9  C   UNL     1       2.375   5.544  -7.248  0.00  0.00    -0.002 A 
ATOM     10  C   UNL     1       3.090   6.316  -8.085  0.00  0.00    +0.065 A 
ATOM     11 CL   UNL     1       2.708   7.965  -8.449  0.00  0.00    -0.082 Cl
ATOM     12  C   UNL     1       3.961   5.651  -8.942  0.00  0.00    +0.068 A 
ATOM     13 CL   UNL     1       5.329   6.552  -9.587  0.00  0.00    -0.081 Cl
ATOM     14  C   UNL     1       3.848   4.275  -9.107  0.00  0.00    +0.012 A 
ATOM     15  C   UNL     1       2.842   3.564  -8.461  0.00  0.00    +0.001 A 
ATOM     16  C   UNL     1       2.161   4.185  -7.418  0.00  0.00    -0.003 A 
ENDBRANCH   2   9
BRANCH   3  17
ATOM     17  C   UNL     1       2.798   5.610  -4.510  0.00  0.00    +0.339 C 
ATOM     18  O   UNL     1       3.735   4.756  -4.567  0.00  0.00    -0.245 OA
BRANCH  17  19
ATOM     19  O   UNL     1       3.203   6.946  -4.625  0.00  0.00    -0.442 OA
ATOM     20  C   UNL     1       4.584   7.302  -4.596  0.00  0.00    +0.256 C 
ENDBRANCH  17  19
ENDBRANCH   3  17
BRANCH   1  21
ATOM     21  C   UNL     1      -0.193   5.557  -8.379  0.00  0.00    +0.341 C 
ATOM     22  O   UNL     1       0.048   6.676  -8.931  0.00  0.00    -0.245 OA
BRANCH  21  23
ATOM     23  O   UNL     1      -0.037   4.482  -9.264  0.00  0.00    -0.405 OA
BRANCH  23  24
ATOM     24  C   UNL     1      -0.080   4.665 -10.676  0.00  0.00    +0.433 C 
BRANCH  24  25
ATOM     25  O   UNL     1       1.184   4.823 -11.249  0.00  0.00    -0.408 OA
BRANCH  25  26
ATOM     26  C   UNL     1       1.548   5.785 -12.159  0.00  0.00    +0.320 C 
ATOM     27  O   UNL     1       0.927   6.879 -12.125  0.00  0.00    -0.250 OA
BRANCH  26  28
ATOM     28  C   UNL     1       2.479   5.546 -13.302  0.00  0.00    +0.110 C 
BRANCH  28  30
ATOM     29  C   UNL     1       4.624   5.085 -13.083  0.00  0.00    +0.001 C 
ATOM     30  C   UNL     1       3.871   5.747 -12.710  0.00  0.00    +0.012 C 
ENDBRANCH  28  30
ENDBRANCH  26  28
ENDBRANCH  25  26
ENDBRANCH  24  25
ENDBRANCH  23  24
ENDBRANCH  21  23
ENDBRANCH   1  21
TORSDOF 10
ENDMDL
MODEL 7
REMARK VINA RESULT:      -6.5      2.546      4.324
REMARK  Name = 
REMARK  10 active torsions:
REMARK  status: ('A' for Active; 'I' for Inactive)
REMARK    1  A    between atoms: C_2  and  C_3
REMARK    2  A    between atoms: C_3  and  C_4
REMARK    3  A    between atoms: C_4  and  O_6
REMARK    4  A    between atoms: O_6  and  C_7
REMARK    5  A    between atoms: C_7  and  O_8
REMARK    6  A    between atoms: O_8  and  C_9
REMARK    7  A    between atoms: C_9  and  C_11
REMARK    8  A    between atoms: C_17  and  C_18
REMARK    9  A    between atoms: C_18  and  O_20
REMARK   10  A    between atoms: C_22  and  C_23
REMARK                            x       y       z     vdW  Elec       q    Type
REMARK                         _______ _______ _______ _____ _____    ______ ____
ROOT
ATOM      1  C   UNL     1       0.571   5.368  -4.339  0.00  0.00    +0.073 C 
ATOM      2  C   UNL     1       0.422   6.682  -3.360  0.00  0.00    +0.082 C 
ATOM      3  C   UNL     1      -0.879   6.049  -2.583  0.00  0.00    +0.073 C 
ATOM      4  C   UNL     1      -1.910   6.223  -3.422  0.00  0.00    +0.051 C 
ATOM      5  C   UNL     1      -3.284   6.027  -2.861  0.00  0.00    +0.049 C 
ATOM      6  N   UNL     1      -1.715   5.999  -4.827  0.00  0.00    -0.221 NA
ATOM      7  C   UNL     1      -0.439   5.469  -5.214  0.00  0.00    +0.051 C 
ATOM      8  C   UNL     1      -0.247   5.323  -6.691  0.00  0.00    +0.049 C 
ENDROOT
BRANCH   2   9
ATOM      9  C   UNL     1       1.485   6.110  -2.262  0.00  0.00    -0.002 A 
ATOM     10  C   UNL     1       2.667   6.742  -2.152  0.00  0.00    +0.065 A 
ATOM     11 CL   UNL     1       3.228   7.950  -3.257  0.00  0.00    -0.082 Cl
ATOM     12  C   UNL     1       3.605   6.149  -1.312  0.00  0.00    +0.068 A 
ATOM     13 CL   UNL     1       4.867   7.173  -0.637  0.00  0.00    -0.081 Cl
ATOM     14  C   UNL     1       3.414   4.842  -0.880  0.00  0.00    +0.012 A 
ATOM     15  C   UNL     1       2.318   4.105  -1.317  0.00  0.00    +0.001 A 
ATOM     16  C   UNL     1       1.267   4.782  -1.927  0.00  0.00    -0.003 A 
ENDBRANCH   2   9
BRANCH   3  17
ATOM     17  C   UNL     1      -1.029   6.800  -1.322  0.00  0.00    +0.339 C 
ATOM     18  O   UNL     1      -1.431   8.004  -1.346  0.00  0.00    -0.245 OA
BRANCH  17  19
ATOM     19  O   UNL     1      -1.432   6.061  -0.204  0.00  0.00    -0.442 OA
ATOM     20  C   UNL     1      -1.755   6.705   1.028  0.00  0.00    +0.256 C 
ENDBRANCH  17  19
ENDBRANCH   3  17
BRANCH   1  21
ATOM     21  C   UNL     1       1.930   5.261  -4.900  0.00  0.00    +0.341 C 
ATOM     22  O   UNL     1       2.457   4.145  -5.199  0.00  0.00    -0.245 OA
BRANCH  21  23
ATOM     23  O   UNL     1       2.415   6.310  -5.692  0.00  0.00    -0.405 OA
BRANCH  23  24
ATOM     24  C   UNL     1       3.625   6.186  -6.434  0.00  0.00    +0.433 C 
BRANCH  24  25
ATOM     25  O   UNL     1       3.433   6.269  -7.816  0.00  0.00    -0.408 OA
BRANCH  25  26
ATOM     26  C   UNL     1       3.912   5.391  -8.756  0.00  0.00    +0.320 C 
ATOM     27  O   UNL     1       3.552   4.188  -8.662  0.00  0.00    -0.250 OA
BRANCH  26  28
ATOM     28  C   UNL     1       4.978   5.725  -9.746  0.00  0.00    +0.110 C 
BRANCH  28  30
ATOM     29  C   UNL     1       7.170   5.787  -9.524  0.00  0.00    +0.001 C 
ATOM     30  C   UNL     1       6.286   5.514  -8.988  0.00  0.00    +0.012 C 
ENDBRANCH  28  30
ENDBRANCH  26  28
ENDBRANCH  25  26
ENDBRANCH  24  25
ENDBRANCH  23  24
ENDBRANCH  21  23
ENDBRANCH   1  21
TORSDOF 10
ENDMDL
MODEL 8
REMARK VINA RESULT:      -6.4      3.854      8.071
REMARK  Name = 
REMARK  10 active torsions:
REMARK  status: ('A' for Active; 'I' for Inactive)
REMARK    1  A    between atoms: C_2  and  C_3
REMARK    2  A    between atoms: C_3  and  C_4
REMARK    3  A    between atoms: C_4  and  O_6
REMARK    4  A    between atoms: O_6  and  C_7
REMARK    5  A    between atoms: C_7  and  O_8
REMARK    6  A    between atoms: O_8  and  C_9
REMARK    7  A    between atoms: C_9  and  C_11
REMARK    8  A    between atoms: C_17  and  C_18
REMARK    9  A    between atoms: C_18  and  O_20
REMARK   10  A    between atoms: C_22  and  C_23
REMARK                            x       y       z     vdW  Elec       q    Type
REMARK                         _______ _______ _______ _____ _____    ______ ____
ROOT
ATOM      1  C   UNL     1       2.173   6.424 -11.518  0.00  0.00    +0.073 C 
ATOM      2  C   UNL     1       3.334   5.403 -10.954  0.00  0.00    +0.082 C 
ATOM      3  C   UNL     1       4.549   6.363 -11.501  0.00  0.00    +0.073 C 
ATOM      4  C   UNL     1       4.612   6.135 -12.820  0.00  0.00    +0.051 C 
ATOM      5  C   UNL     1       5.827   6.632 -13.540  0.00  0.00    +0.049 C 
ATOM      6  N   UNL     1       3.393   5.999 -13.566  0.00  0.00    -0.221 NA
ATOM      7  C   UNL     1       2.177   6.255 -12.846  0.00  0.00    +0.051 C 
ATOM      8  C   UNL     1       0.927   6.029 -13.637  0.00  0.00    +0.049 C 
ENDROOT
BRANCH   2   9
ATOM      9  C   UNL     1       3.340   6.071  -9.464  0.00  0.00    -0.002 A 
ATOM     10  C   UNL     1       3.272   5.240  -8.409  0.00  0.00    +0.065 A 
ATOM     11 CL   UNL     1       2.931   3.547  -8.528  0.00  0.00    -0.082 Cl
ATOM     12  C   UNL     1       3.136   5.840  -7.162  0.00  0.00    +0.068 A 
ATOM     13 CL   UNL     1       3.655   4.929  -5.749  0.00  0.00    -0.081 Cl
ATOM     14  C   UNL     1       2.787   7.184  -7.078  0.00  0.00    +0.012 A 
ATOM     15  C   UNL     1       2.527   7.921  -8.229  0.00  0.00    +0.001 A 
ATOM     16  C   UNL     1       2.922   7.393  -9.455  0.00  0.00    -0.003 A 
ENDBRANCH   2   9
BRANCH   3  17
ATOM     17  C   UNL     1       5.772   5.950 -10.786  0.00  0.00    +0.339 C 
ATOM     18  O   UNL     1       6.453   4.966 -11.211  0.00  0.00    -0.245 OA
BRANCH  17  19
ATOM     19  O   UNL     1       6.517   6.974 -10.188  0.00  0.00    -0.442 OA
ATOM     20  C   UNL     1       7.940   7.009 -10.293  0.00  0.00    +0.256 C 
ENDBRANCH  17  19
ENDBRANCH   3  17
BRANCH   1  21
ATOM     21  C   UNL     1       0.889   6.220 -10.824  0.00  0.00    +0.341 C 
ATOM     22  O   UNL     1      -0.088   7.021 -10.952  0.00  0.00    -0.245 OA
BRANCH  21  23
ATOM     23  O   UNL     1       0.473   4.911 -10.549  0.00  0.00    -0.405 OA
BRANCH  23  24
ATOM     24  C   UNL     1      -0.328   4.606  -9.411  0.00  0.00    +0.433 C 
BRANCH  24  25
ATOM     25  O   UNL     1      -0.133   5.492  -8.348  0.00  0.00    -0.408 OA
BRANCH  25  26
ATOM     26  C   UNL     1      -0.658   5.373  -7.085  0.00  0.00    +0.320 C 
ATOM     27  O   UNL     1       0.031   4.763  -6.226  0.00  0.00    -0.250 OA
BRANCH  26  28
ATOM     28  C   UNL     1      -2.061   5.736  -6.725  0.00  0.00    +0.110 C 
BRANCH  28  30
ATOM     29  C   UNL     1      -2.433   7.095  -5.030  0.00  0.00    +0.001 C 
ATOM     30  C   UNL     1      -1.985   6.151  -5.259  0.00  0.00    +0.012 C 
ENDBRANCH  28  30
ENDBRANCH  26  28
ENDBRANCH  25  26
ENDBRANCH  24  25
ENDBRANCH  23  24
ENDBRANCH  21  23
ENDBRANCH   1  21
TORSDOF 10
ENDMDL
MODEL 9
REMARK VINA RESULT:      -6.3      3.815      9.065
REMARK  Name = 
REMARK  10 active torsions:
REMARK  status: ('A' for Active; 'I' for Inactive)
REMARK    1  A    between atoms: C_2  and  C_3
REMARK    2  A    between atoms: C_3  and  C_4
REMARK    3  A    between atoms: C_4  and  O_6
REMARK    4  A    between atoms: O_6  and  C_7
REMARK    5  A    between atoms: C_7  and  O_8
REMARK    6  A    between atoms: O_8  and  C_9
REMARK    7  A    between atoms: C_9  and  C_11
REMARK    8  A    between atoms: C_17  and  C_18
REMARK    9  A    between atoms: C_18  and  O_20
REMARK   10  A    between atoms: C_22  and  C_23
REMARK                            x       y       z     vdW  Elec       q    Type
REMARK                         _______ _______ _______ _____ _____    ______ ____
ROOT
ATOM      1  C   UNL     1       2.651   6.534 -10.425  0.00  0.00    +0.073 C 
ATOM      2  C   UNL     1       3.430   5.267 -11.128  0.00  0.00    +0.082 C 
ATOM      3  C   UNL     1       3.176   5.854 -12.640  0.00  0.00    +0.073 C 
ATOM      4  C   UNL     1       1.896   5.567 -12.919  0.00  0.00    +0.051 C 
ATOM      5  C   UNL     1       1.463   5.702 -14.346  0.00  0.00    +0.049 C 
ATOM      6  N   UNL     1       0.904   5.728 -11.894  0.00  0.00    -0.221 NA
ATOM      7  C   UNL     1       1.351   6.319 -10.665  0.00  0.00    +0.051 C 
ATOM      8  C   UNL     1       0.307   6.399  -9.596  0.00  0.00    +0.049 C 
ENDROOT
BRANCH   2   9
ATOM      9  C   UNL     1       4.899   5.966 -10.994  0.00  0.00    -0.002 A 
ATOM     10  C   UNL     1       5.761   5.438 -10.107  0.00  0.00    +0.065 A 
ATOM     11 CL   UNL     1       5.334   4.238  -8.934  0.00  0.00    -0.082 Cl
ATOM     12  C   UNL     1       6.948   6.137  -9.913  0.00  0.00    +0.068 A 
ATOM     13 CL   UNL     1       8.336   5.247  -9.295  0.00  0.00    -0.081 Cl
ATOM     14  C   UNL     1       7.066   7.440 -10.384  0.00  0.00    +0.012 A 
ATOM     15  C   UNL     1       5.991   8.067 -11.006  0.00  0.00    +0.001 A 
ATOM     16  C   UNL     1       4.922   7.283 -11.427  0.00  0.00    -0.003 A 
ENDBRANCH   2   9
BRANCH   3  17
ATOM     17  C   UNL     1       4.128   5.163 -13.531  0.00  0.00    +0.339 C 
ATOM     18  O   UNL     1       3.966   3.932 -13.799  0.00  0.00    -0.245 OA
BRANCH  17  19
ATOM     19  O   UNL     1       4.677   5.929 -14.566  0.00  0.00    -0.442 OA
ATOM     20  C   UNL     1       6.082   6.172 -14.638  0.00  0.00    +0.256 C 
ENDBRANCH  17  19
ENDBRANCH   3  17
BRANCH   1  21
ATOM     21  C   UNL     1       3.049   6.699  -9.015  0.00  0.00    +0.341 C 
ATOM     22  O   UNL     1       3.032   7.828  -8.431  0.00  0.00    -0.245 OA
BRANCH  21  23
ATOM     23  O   UNL     1       2.841   5.636  -8.127  0.00  0.00    -0.405 OA
BRANCH  23  24
ATOM     24  C   UNL     1       3.092   5.770  -6.731  0.00  0.00    +0.433 C 
BRANCH  24  25
ATOM     25  O   UNL     1       2.010   5.378  -5.939  0.00  0.00    -0.408 OA
BRANCH  25  26
ATOM     26  C   UNL     1       0.780   5.986  -5.887  0.00  0.00    +0.320 C 
ATOM     27  O   UNL     1       0.742   7.232  -6.061  0.00  0.00    -0.250 OA
BRANCH  26  28
ATOM     28  C   UNL     1      -0.473   5.304  -5.444  0.00  0.00    +0.110 C 
BRANCH  28  30
ATOM     29  C   UNL     1      -2.524   5.501  -6.226  0.00  0.00    +0.001 C 
ATOM     30  C   UNL     1      -1.506   5.671  -6.505  0.00  0.00    +0.012 C 
ENDBRANCH  28  30
ENDBRANCH  26  28
ENDBRANCH  25  26
ENDBRANCH  24  25
ENDBRANCH  23  24
ENDBRANCH  21  23
ENDBRANCH   1  21
TORSDOF 10
ENDMDL
