MODEL 1
REMARK VINA RESULT:      -9.9      0.000      0.000
REMARK  Name = 
REMARK  15 active torsions:
REMARK  status: ('A' for Active; 'I' for Inactive)
REMARK    1  A    between atoms: C_8  and  O_9
REMARK    2  A    between atoms: O_9  and  C_10
REMARK    3  A    between atoms: C_10  and  C_11
REMARK    4  A    between atoms: N_13  and  C_14
REMARK    5  A    between atoms: C_14  and  C_15
REMARK    6  A    between atoms: C_14  and  C_22
REMARK    7  A    between atoms: C_15  and  C_16
REMARK    8  A    between atoms: C_22  and  C_24
REMARK    9  A    between atoms: C_24  and  C_25
REMARK   10  A    between atoms: C_25  and  C_26
REMARK   11  A    between atoms: C_25  and  N_33
REMARK   12  A    between atoms: C_26  and  C_27
REMARK   13  A    between atoms: C_34  and  C_36
REMARK   14  A    between atoms: C_36  and  C_37
REMARK   15  A    between atoms: C_36  and  N_40
REMARK                            x       y       z     vdW  Elec       q    Type
REMARK                         _______ _______ _______ _____ _____    ______ ____
ROOT
ATOM      1  C   UNL     1       3.992   6.794  -5.969  0.00  0.00    +0.174 C 
ATOM      2  O   UNL     1       5.063   6.275  -5.041  0.00  0.00    -0.221 OA
ENDROOT
BRANCH   1   3
ATOM      3  C   UNL     1       2.778   6.013  -5.036  0.00  0.00    +0.130 C 
BRANCH   3   5
ATOM      4  C   UNL     1       3.030   6.177  -2.575  0.00  0.00    +0.286 C 
ATOM      5  N   UNL     1       3.150   6.875  -3.790  0.00  0.00    -0.201 NA
ATOM      6  O   UNL     1       3.436   4.992  -2.537  0.00  0.00    -0.269 OA
BRANCH   4   7
ATOM      7  C   UNL     1       2.888   6.895  -1.274  0.00  0.00    +0.291 C 
BRANCH   7   8
ATOM      8  O   UNL     1       1.913   6.282  -0.477  0.00  0.00    -0.466 OA
BRANCH   8  11
ATOM      9  C   UNL     1       1.092   7.994   1.514  0.00  0.00    +0.034 C 
ATOM     10  C   UNL     1       0.261   7.619   0.639  0.00  0.00    +0.012 A 
ATOM     11  C   UNL     1       0.592   6.724  -0.374  0.00  0.00    +0.131 A 
ATOM     12  C   UNL     1      -0.382   6.137  -1.173  0.00  0.00    +0.012 A 
ATOM     13  C   UNL     1      -0.103   4.979  -2.027  0.00  0.00    +0.034 C 
ATOM     14  C   UNL     1      -1.706   6.509  -1.028  0.00  0.00    -0.001 A 
ATOM     15  C   UNL     1      -2.010   7.590  -0.223  0.00  0.00    -0.000 A 
ATOM     16  C   UNL     1      -1.010   8.173   0.533  0.00  0.00    -0.001 A 
ENDBRANCH   8  11
ENDBRANCH   7   8
ENDBRANCH   4   7
ENDBRANCH   3   5
BRANCH   3  17
ATOM     17  C   UNL     1       1.553   6.985  -5.467  0.00  0.00    +0.051 C 
BRANCH  17  18
ATOM     18  C   UNL     1       0.279   6.307  -5.465  0.00  0.00    -0.020 A 
ATOM     19  C   UNL     1      -0.847   7.018  -5.048  0.00  0.00    -0.004 A 
ATOM     20  C   UNL     1      -2.118   6.465  -5.156  0.00  0.00    -0.000 A 
ATOM     21  C   UNL     1      -2.303   5.549  -6.178  0.00  0.00    -0.000 A 
ATOM     22  C   UNL     1      -1.253   5.257  -7.040  0.00  0.00    -0.000 A 
ATOM     23  C   UNL     1       0.027   5.502  -6.573  0.00  0.00    -0.004 A 
ENDBRANCH  17  18
ENDBRANCH   3  17
ENDBRANCH   1   3
BRANCH   1  24
ATOM     24  C   UNL     1       3.970   5.548  -7.017  0.00  0.00    +0.057 C 
BRANCH  24  25
ATOM     25  C   UNL     1       3.587   6.185  -8.466  0.00  0.00    +0.102 C 
BRANCH  25  26
ATOM     26  N   UNL     1       4.957   5.728  -9.089  0.00  0.00    -0.205 NA
ATOM     27  C   UNL     1       5.282   6.367 -10.275  0.00  0.00    +0.259 C 
ATOM     28  O   UNL     1       5.140   7.568 -10.428  0.00  0.00    -0.272 OA
BRANCH  27  29
ATOM     29  C   UNL     1       6.058   5.502 -11.388  0.00  0.00    +0.155 C 
BRANCH  29  30
ATOM     30  N   UNL     1       5.347   6.271 -12.560  0.00  0.00    -0.256 N 
ATOM     31  C   UNL     1       5.621   5.962 -13.877  0.00  0.00    +0.324 C 
ATOM     32  O   UNL     1       6.827   5.788 -14.145  0.00  0.00    -0.251 OA
ATOM     33  N   UNL     1       4.608   6.229 -14.852  0.00  0.00    -0.188 NA
ATOM     34  C   UNL     1       3.265   5.791 -14.478  0.00  0.00    +0.119 C 
ATOM     35  C   UNL     1       3.113   5.576 -13.001  0.00  0.00    +0.045 C 
ATOM     36  C   UNL     1       3.961   6.538 -12.183  0.00  0.00    +0.097 C 
ENDBRANCH  29  30
BRANCH  29  37
ATOM     37  C   UNL     1       7.409   6.440 -11.321  0.00  0.00    +0.027 C 
ATOM     38  C   UNL     1       8.425   5.441 -11.877  0.00  0.00    +0.002 C 
ATOM     39  C   UNL     1       7.740   6.602  -9.865  0.00  0.00    +0.002 C 
ENDBRANCH  29  37
ENDBRANCH  27  29
ENDBRANCH  25  26
BRANCH  25  40
ATOM     40  C   UNL     1       2.776   4.842  -8.915  0.00  0.00    +0.048 C 
BRANCH  40  41
ATOM     41  C   UNL     1       1.737   5.140  -9.864  0.00  0.00    -0.020 A 
ATOM     42  C   UNL     1       1.361   6.482  -9.795  0.00  0.00    -0.004 A 
ATOM     43  C   UNL     1       0.259   6.960 -10.449  0.00  0.00    -0.000 A 
ATOM     44  C   UNL     1      -0.515   6.126 -11.240  0.00  0.00    -0.000 A 
ATOM     45  C   UNL     1      -0.263   4.761 -11.196  0.00  0.00    -0.000 A 
ATOM     46  C   UNL     1       0.763   4.344 -10.398  0.00  0.00    -0.004 A 
ENDBRANCH  40  41
ENDBRANCH  25  40
ENDBRANCH  24  25
ENDBRANCH   1  24
TORSDOF 15
ENDMDL
MODEL 2
REMARK VINA RESULT:      -9.7      2.521     11.087
REMARK  Name = 
REMARK  15 active torsions:
REMARK  status: ('A' for Active; 'I' for Inactive)
REMARK    1  A    between atoms: C_8  and  O_9
REMARK    2  A    between atoms: O_9  and  C_10
REMARK    3  A    between atoms: C_10  and  C_11
REMARK    4  A    between atoms: N_13  and  C_14
REMARK    5  A    between atoms: C_14  and  C_15
REMARK    6  A    between atoms: C_14  and  C_22
REMARK    7  A    between atoms: C_15  and  C_16
REMARK    8  A    between atoms: C_22  and  C_24
REMARK    9  A    between atoms: C_24  and  C_25
REMARK   10  A    between atoms: C_25  and  C_26
REMARK   11  A    between atoms: C_25  and  N_33
REMARK   12  A    between atoms: C_26  and  C_27
REMARK   13  A    between atoms: C_34  and  C_36
REMARK   14  A    between atoms: C_36  and  C_37
REMARK   15  A    between atoms: C_36  and  N_40
REMARK                            x       y       z     vdW  Elec       q    Type
REMARK                         _______ _______ _______ _____ _____    ______ ____
ROOT
ATOM      1  C   UNL     1       0.702   6.436  -9.603  0.00  0.00    +0.174 C 
ATOM      2  O   UNL     1      -0.260   5.577 -10.387  0.00  0.00    -0.221 OA
ENDROOT
BRANCH   1   3
ATOM      3  C   UNL     1       2.026   5.808 -10.501  0.00  0.00    +0.130 C 
BRANCH   3   5
ATOM      4  C   UNL     1       1.788   6.017 -12.960  0.00  0.00    +0.286 C 
ATOM      5  N   UNL     1       1.636   6.685 -11.731  0.00  0.00    -0.201 NA
ATOM      6  O   UNL     1       1.420   4.821 -13.028  0.00  0.00    -0.269 OA
BRANCH   4   7
ATOM      7  C   UNL     1       1.916   6.768 -14.244  0.00  0.00    +0.291 C 
BRANCH   7   8
ATOM      8  O   UNL     1       2.879   6.173 -15.068  0.00  0.00    -0.466 OA
BRANCH   8  11
ATOM      9  C   UNL     1       3.622   7.836 -17.130  0.00  0.00    +0.034 C 
ATOM     10  C   UNL     1       4.478   7.510 -16.260  0.00  0.00    +0.012 A 
ATOM     11  C   UNL     1       4.188   6.642 -15.212  0.00  0.00    +0.131 A 
ATOM     12  C   UNL     1       5.190   6.104 -14.413  0.00  0.00    +0.012 A 
ATOM     13  C   UNL     1       4.954   4.969 -13.517  0.00  0.00    +0.034 C 
ATOM     14  C   UNL     1       6.502   6.501 -14.596  0.00  0.00    -0.001 A 
ATOM     15  C   UNL     1       6.765   7.562 -15.443  0.00  0.00    -0.000 A 
ATOM     16  C   UNL     1       5.737   8.096 -16.197  0.00  0.00    -0.001 A 
ENDBRANCH   8  11
ENDBRANCH   7   8
ENDBRANCH   4   7
ENDBRANCH   3   5
BRANCH   3  17
ATOM     17  C   UNL     1       3.134   6.867  -9.971  0.00  0.00    +0.051 C 
BRANCH  17  18
ATOM     18  C   UNL     1       4.485   6.451 -10.264  0.00  0.00    -0.020 A 
ATOM     19  C   UNL     1       5.377   7.403 -10.760  0.00  0.00    -0.004 A 
ATOM     20  C   UNL     1       6.723   7.097 -10.928  0.00  0.00    -0.000 A 
ATOM     21  C   UNL     1       7.244   6.138 -10.075  0.00  0.00    -0.000 A 
ATOM     22  C   UNL     1       6.434   5.567  -9.102  0.00  0.00    -0.000 A 
ATOM     23  C   UNL     1       5.068   5.605  -9.324  0.00  0.00    -0.004 A 
ENDBRANCH  17  18
ENDBRANCH   3  17
ENDBRANCH   1   3
BRANCH   1  24
ATOM     24  C   UNL     1       1.030   5.382  -8.406  0.00  0.00    +0.057 C 
BRANCH  24  25
ATOM     25  C   UNL     1       1.314   6.282  -7.079  0.00  0.00    +0.102 C 
BRANCH  25  26
ATOM     26  N   UNL     1       0.025   5.732  -6.365  0.00  0.00    -0.205 NA
ATOM     27  C   UNL     1      -0.301   6.393  -5.192  0.00  0.00    +0.259 C 
ATOM     28  O   UNL     1      -0.265   7.608  -5.097  0.00  0.00    -0.272 OA
BRANCH  27  29
ATOM     29  C   UNL     1      -0.937   5.514  -4.003  0.00  0.00    +0.155 C 
BRANCH  29  30
ATOM     30  N   UNL     1      -0.250   6.402  -2.905  0.00  0.00    -0.256 N 
ATOM     31  C   UNL     1      -0.849   6.598  -1.676  0.00  0.00    +0.324 C 
ATOM     32  O   UNL     1      -2.075   6.826  -1.711  0.00  0.00    -0.251 OA
ATOM     33  N   UNL     1      -0.006   6.889  -0.558  0.00  0.00    -0.188 NA
ATOM     34  C   UNL     1       1.172   6.033  -0.438  0.00  0.00    +0.119 C 
ATOM     35  C   UNL     1       1.521   5.339  -1.721  0.00  0.00    +0.045 C 
ATOM     36  C   UNL     1       1.194   6.180  -2.945  0.00  0.00    +0.097 C 
ENDBRANCH  29  30
BRANCH  29  37
ATOM     37  C   UNL     1      -2.374   6.316  -4.043  0.00  0.00    +0.027 C 
ATOM     38  C   UNL     1      -3.310   5.150  -3.721  0.00  0.00    +0.002 C 
ATOM     39  C   UNL     1      -2.624   6.664  -5.482  0.00  0.00    +0.002 C 
ENDBRANCH  29  37
ENDBRANCH  27  29
ENDBRANCH  25  26
BRANCH  25  40
ATOM     40  C   UNL     1       2.313   5.157  -6.448  0.00  0.00    +0.048 C 
BRANCH  40  41
ATOM     41  C   UNL     1       3.416   5.757  -5.747  0.00  0.00    -0.020 A 
ATOM     42  C   UNL     1       3.960   4.873  -4.815  0.00  0.00    -0.004 A 
ATOM     43  C   UNL     1       4.881   5.276  -3.887  0.00  0.00    -0.000 A 
ATOM     44  C   UNL     1       5.336   6.585  -3.860  0.00  0.00    -0.000 A 
ATOM     45  C   UNL     1       4.695   7.519  -4.663  0.00  0.00    -0.000 A 
ATOM     46  C   UNL     1       3.680   7.065  -5.455  0.00  0.00    -0.004 A 
ENDBRANCH  40  41
ENDBRANCH  25  40
ENDBRANCH  24  25
ENDBRANCH   1  24
TORSDOF 15
ENDMDL
MODEL 3
REMARK VINA RESULT:      -9.2      1.552      2.538
REMARK  Name = 
REMARK  15 active torsions:
REMARK  status: ('A' for Active; 'I' for Inactive)
REMARK    1  A    between atoms: C_8  and  O_9
REMARK    2  A    between atoms: O_9  and  C_10
REMARK    3  A    between atoms: C_10  and  C_11
REMARK    4  A    between atoms: N_13  and  C_14
REMARK    5  A    between atoms: C_14  and  C_15
REMARK    6  A    between atoms: C_14  and  C_22
REMARK    7  A    between atoms: C_15  and  C_16
REMARK    8  A    between atoms: C_22  and  C_24
REMARK    9  A    between atoms: C_24  and  C_25
REMARK   10  A    between atoms: C_25  and  C_26
REMARK   11  A    between atoms: C_25  and  N_33
REMARK   12  A    between atoms: C_26  and  C_27
REMARK   13  A    between atoms: C_34  and  C_36
REMARK   14  A    between atoms: C_36  and  C_37
REMARK   15  A    between atoms: C_36  and  N_40
REMARK                            x       y       z     vdW  Elec       q    Type
REMARK                         _______ _______ _______ _____ _____    ______ ____
ROOT
ATOM      1  C   UNL     1       4.082   6.750  -6.018  0.00  0.00    +0.174 C 
ATOM      2  O   UNL     1       5.085   6.084  -5.107  0.00  0.00    -0.221 OA
ENDROOT
BRANCH   1   3
ATOM      3  C   UNL     1       2.785   6.060  -5.125  0.00  0.00    +0.130 C 
BRANCH   3   5
ATOM      4  C   UNL     1       2.761   6.579  -2.702  0.00  0.00    +0.286 C 
ATOM      5  N   UNL     1       2.983   7.107  -3.987  0.00  0.00    -0.201 NA
ATOM      6  O   UNL     1       3.211   5.436  -2.451  0.00  0.00    -0.269 OA
BRANCH   4   7
ATOM      7  C   UNL     1       2.449   7.463  -1.540  0.00  0.00    +0.291 C 
BRANCH   7   8
ATOM      8  O   UNL     1       3.481   8.387  -1.333  0.00  0.00    -0.466 OA
BRANCH   8  11
ATOM      9  C   UNL     1       3.343  11.047  -0.642  0.00  0.00    +0.034 C 
ATOM     10  C   UNL     1       3.745  10.205   0.212  0.00  0.00    +0.012 A 
ATOM     11  C   UNL     1       3.879   8.851  -0.077  0.00  0.00    +0.131 A 
ATOM     12  C   UNL     1       4.547   7.987   0.782  0.00  0.00    +0.012 A 
ATOM     13  C   UNL     1       4.969   6.644   0.373  0.00  0.00    +0.034 C 
ATOM     14  C   UNL     1       5.016   8.452   1.997  0.00  0.00    -0.001 A 
ATOM     15  C   UNL     1       4.648   9.718   2.413  0.00  0.00    -0.000 A 
ATOM     16  C   UNL     1       3.953  10.540   1.545  0.00  0.00    -0.001 A 
ENDBRANCH   8  11
ENDBRANCH   7   8
ENDBRANCH   4   7
ENDBRANCH   3   5
BRANCH   3  17
ATOM     17  C   UNL     1       1.596   6.906  -5.834  0.00  0.00    +0.051 C 
BRANCH  17  18
ATOM     18  C   UNL     1       0.296   6.315  -5.630  0.00  0.00    -0.020 A 
ATOM     19  C   UNL     1      -0.721   7.117  -5.110  0.00  0.00    -0.004 A 
ATOM     20  C   UNL     1      -2.026   6.644  -5.022  0.00  0.00    -0.000 A 
ATOM     21  C   UNL     1      -2.398   5.696  -5.961  0.00  0.00    -0.000 A 
ATOM     22  C   UNL     1      -1.490   5.297  -6.934  0.00  0.00    -0.000 A 
ATOM     23  C   UNL     1      -0.148   5.478  -6.650  0.00  0.00    -0.004 A 
ENDBRANCH  17  18
ENDBRANCH   3  17
ENDBRANCH   1   3
BRANCH   1  24
ATOM     24  C   UNL     1       3.942   5.558  -7.118  0.00  0.00    +0.057 C 
BRANCH  24  25
ATOM     25  C   UNL     1       3.608   6.289  -8.534  0.00  0.00    +0.102 C 
BRANCH  25  26
ATOM     26  N   UNL     1       4.943   5.766  -9.181  0.00  0.00    -0.205 NA
ATOM     27  C   UNL     1       5.285   6.398 -10.366  0.00  0.00    +0.259 C 
ATOM     28  O   UNL     1       5.206   7.606 -10.507  0.00  0.00    -0.272 OA
BRANCH  27  29
ATOM     29  C   UNL     1       5.998   5.503 -11.498  0.00  0.00    +0.155 C 
BRANCH  29  30
ATOM     30  N   UNL     1       5.233   6.250 -12.648  0.00  0.00    -0.256 N 
ATOM     31  C   UNL     1       5.459   5.930 -13.972  0.00  0.00    +0.324 C 
ATOM     32  O   UNL     1       6.655   5.768 -14.285  0.00  0.00    -0.251 OA
ATOM     33  N   UNL     1       4.405   6.174 -14.909  0.00  0.00    -0.188 NA
ATOM     34  C   UNL     1       3.084   5.724 -14.478  0.00  0.00    +0.119 C 
ATOM     35  C   UNL     1       2.992   5.524 -12.995  0.00  0.00    +0.045 C 
ATOM     36  C   UNL     1       3.859   6.505 -12.220  0.00  0.00    +0.097 C 
ENDBRANCH  29  30
BRANCH  29  37
ATOM     37  C   UNL     1       7.356   6.434 -11.521  0.00  0.00    +0.027 C 
ATOM     38  C   UNL     1       8.353   5.395 -12.038  0.00  0.00    +0.002 C 
ATOM     39  C   UNL     1       7.723   6.682 -10.086  0.00  0.00    +0.002 C 
ENDBRANCH  29  37
ENDBRANCH  27  29
ENDBRANCH  25  26
BRANCH  25  40
ATOM     40  C   UNL     1       2.704   5.031  -9.046  0.00  0.00    +0.048 C 
BRANCH  40  41
ATOM     41  C   UNL     1       1.475   5.470  -9.651  0.00  0.00    -0.020 A 
ATOM     42  C   UNL     1       0.882   4.444 -10.389  0.00  0.00    -0.004 A 
ATOM     43  C   UNL     1      -0.181   4.671 -11.219  0.00  0.00    -0.000 A 
ATOM     44  C   UNL     1      -0.736   5.936 -11.334  0.00  0.00    -0.000 A 
ATOM     45  C   UNL     1      -0.069   7.000 -10.743  0.00  0.00    -0.000 A 
ATOM     46  C   UNL     1       1.074   6.712 -10.054  0.00  0.00    -0.004 A 
ENDBRANCH  40  41
ENDBRANCH  25  40
ENDBRANCH  24  25
ENDBRANCH   1  24
TORSDOF 15
ENDMDL
MODEL 4
REMARK VINA RESULT:      -8.9      1.702      3.824
REMARK  Name = 
REMARK  15 active torsions:
REMARK  status: ('A' for Active; 'I' for Inactive)
REMARK    1  A    between atoms: C_8  and  O_9
REMARK    2  A    between atoms: O_9  and  C_10
REMARK    3  A    between atoms: C_10  and  C_11
REMARK    4  A    between atoms: N_13  and  C_14
REMARK    5  A    between atoms: C_14  and  C_15
REMARK    6  A    between atoms: C_14  and  C_22
REMARK    7  A    between atoms: C_15  and  C_16
REMARK    8  A    between atoms: C_22  and  C_24
REMARK    9  A    between atoms: C_24  and  C_25
REMARK   10  A    between atoms: C_25  and  C_26
REMARK   11  A    between atoms: C_25  and  N_33
REMARK   12  A    between atoms: C_26  and  C_27
REMARK   13  A    between atoms: C_34  and  C_36
REMARK   14  A    between atoms: C_36  and  C_37
REMARK   15  A    between atoms: C_36  and  N_40
REMARK                            x       y       z     vdW  Elec       q    Type
REMARK                         _______ _______ _______ _____ _____    ______ ____
ROOT
ATOM      1  C   UNL     1       3.592   5.805  -6.884  0.00  0.00    +0.174 C 
ATOM      2  O   UNL     1       4.649   5.261  -5.955  0.00  0.00    -0.221 OA
ENDROOT
BRANCH   1   3
ATOM      3  C   UNL     1       2.366   5.433  -5.738  0.00  0.00    +0.130 C 
BRANCH   3   5
ATOM      4  C   UNL     1       2.895   6.011  -3.386  0.00  0.00    +0.286 C 
ATOM      5  N   UNL     1       2.979   6.445  -4.722  0.00  0.00    -0.201 NA
ATOM      6  O   UNL     1       3.142   4.806  -3.144  0.00  0.00    -0.269 OA
BRANCH   4   7
ATOM      7  C   UNL     1       2.989   6.972  -2.248  0.00  0.00    +0.291 C 
BRANCH   7   8
ATOM      8  O   UNL     1       2.329   6.466  -1.121  0.00  0.00    -0.466 OA
BRANCH   8  11
ATOM      9  C   UNL     1       2.289   8.224   0.995  0.00  0.00    +0.034 C 
ATOM     10  C   UNL     1       1.202   7.901   0.439  0.00  0.00    +0.012 A 
ATOM     11  C   UNL     1       1.138   6.988  -0.609  0.00  0.00    +0.131 A 
ATOM     12  C   UNL     1      -0.073   6.461  -1.043  0.00  0.00    +0.012 A 
ATOM     13  C   UNL     1      -0.150   5.289  -1.918  0.00  0.00    +0.034 C 
ATOM     14  C   UNL     1      -1.257   6.913  -0.488  0.00  0.00    -0.001 A 
ATOM     15  C   UNL     1      -1.223   8.010   0.351  0.00  0.00    -0.000 A 
ATOM     16  C   UNL     1      -0.002   8.531   0.736  0.00  0.00    -0.001 A 
ENDBRANCH   8  11
ENDBRANCH   7   8
ENDBRANCH   4   7
ENDBRANCH   3   5
BRANCH   3  17
ATOM     17  C   UNL     1       1.267   6.494  -6.285  0.00  0.00    +0.051 C 
BRANCH  17  18
ATOM     18  C   UNL     1      -0.014   6.351  -5.636  0.00  0.00    -0.020 A 
ATOM     19  C   UNL     1      -0.573   7.473  -5.024  0.00  0.00    -0.004 A 
ATOM     20  C   UNL     1      -1.863   7.432  -4.506  0.00  0.00    -0.000 A 
ATOM     21  C   UNL     1      -2.741   6.552  -5.117  0.00  0.00    -0.000 A 
ATOM     22  C   UNL     1      -2.316   5.798  -6.203  0.00  0.00    -0.000 A 
ATOM     23  C   UNL     1      -0.953   5.589  -6.325  0.00  0.00    -0.004 A 
ENDBRANCH  17  18
ENDBRANCH   3  17
ENDBRANCH   1   3
BRANCH   1  24
ATOM     24  C   UNL     1       3.249   4.425  -7.679  0.00  0.00    +0.057 C 
BRANCH  24  25
ATOM     25  C   UNL     1       3.751   4.652  -9.211  0.00  0.00    +0.102 C 
BRANCH  25  26
ATOM     26  N   UNL     1       2.663   5.761  -9.460  0.00  0.00    -0.205 NA
ATOM     27  C   UNL     1       1.826   5.505 -10.535  0.00  0.00    +0.259 C 
ATOM     28  O   UNL     1       1.346   4.404 -10.738  0.00  0.00    -0.272 OA
BRANCH  27  29
ATOM     29  C   UNL     1       1.333   6.769 -11.400  0.00  0.00    +0.155 C 
BRANCH  29  30
ATOM     30  N   UNL     1       1.671   6.043 -12.752  0.00  0.00    -0.256 N 
ATOM     31  C   UNL     1       1.515   6.692 -13.961  0.00  0.00    +0.324 C 
ATOM     32  O   UNL     1       0.466   7.357 -14.079  0.00  0.00    -0.251 OA
ATOM     33  N   UNL     1       2.329   6.267 -15.059  0.00  0.00    -0.188 NA
ATOM     34  C   UNL     1       3.743   6.082 -14.740  0.00  0.00    +0.119 C 
ATOM     35  C   UNL     1       3.991   5.920 -13.270  0.00  0.00    +0.045 C 
ATOM     36  C   UNL     1       2.852   5.204 -12.561  0.00  0.00    +0.097 C 
ENDBRANCH  29  30
BRANCH  29  37
ATOM     37  C   UNL     1      -0.252   6.330 -11.326  0.00  0.00    +0.027 C 
ATOM     38  C   UNL     1      -0.893   7.706 -11.509  0.00  0.00    +0.002 C 
ATOM     39  C   UNL     1      -0.514   5.937  -9.900  0.00  0.00    +0.002 C 
ENDBRANCH  29  37
ENDBRANCH  27  29
ENDBRANCH  25  26
BRANCH  25  40
ATOM     40  C   UNL     1       4.912   5.700  -8.746  0.00  0.00    +0.048 C 
BRANCH  40  41
ATOM     41  C   UNL     1       5.713   6.136  -9.858  0.00  0.00    -0.020 A 
ATOM     42  C   UNL     1       6.943   5.478  -9.881  0.00  0.00    -0.004 A 
ATOM     43  C   UNL     1       7.955   5.865 -10.717  0.00  0.00    -0.000 A 
ATOM     44  C   UNL     1       7.781   6.914 -11.605  0.00  0.00    -0.000 A 
ATOM     45  C   UNL     1       6.633   7.687 -11.490  0.00  0.00    -0.000 A 
ATOM     46  C   UNL     1       5.736   7.328 -10.527  0.00  0.00    -0.004 A 
ENDBRANCH  40  41
ENDBRANCH  25  40
ENDBRANCH  24  25
ENDBRANCH   1  24
TORSDOF 15
ENDMDL
MODEL 5
REMARK VINA RESULT:      -8.6      2.360      4.567
REMARK  Name = 
REMARK  15 active torsions:
REMARK  status: ('A' for Active; 'I' for Inactive)
REMARK    1  A    between atoms: C_8  and  O_9
REMARK    2  A    between atoms: O_9  and  C_10
REMARK    3  A    between atoms: C_10  and  C_11
REMARK    4  A    between atoms: N_13  and  C_14
REMARK    5  A    between atoms: C_14  and  C_15
REMARK    6  A    between atoms: C_14  and  C_22
REMARK    7  A    between atoms: C_15  and  C_16
REMARK    8  A    between atoms: C_22  and  C_24
REMARK    9  A    between atoms: C_24  and  C_25
REMARK   10  A    between atoms: C_25  and  C_26
REMARK   11  A    between atoms: C_25  and  N_33
REMARK   12  A    between atoms: C_26  and  C_27
REMARK   13  A    between atoms: C_34  and  C_36
REMARK   14  A    between atoms: C_36  and  C_37
REMARK   15  A    between atoms: C_36  and  N_40
REMARK                            x       y       z     vdW  Elec       q    Type
REMARK                         _______ _______ _______ _____ _____    ______ ____
ROOT
ATOM      1  C   UNL     1       3.946   6.108  -6.681  0.00  0.00    +0.174 C 
ATOM      2  O   UNL     1       4.959   5.314  -5.894  0.00  0.00    -0.221 OA
ENDROOT
BRANCH   1   3
ATOM      3  C   UNL     1       2.826   6.005  -5.382  0.00  0.00    +0.130 C 
BRANCH   3   5
ATOM      4  C   UNL     1       3.541   7.122  -3.287  0.00  0.00    +0.286 C 
ATOM      5  N   UNL     1       3.484   7.237  -4.688  0.00  0.00    -0.201 NA
ATOM      6  O   UNL     1       3.859   6.011  -2.802  0.00  0.00    -0.269 OA
BRANCH   4   7
ATOM      7  C   UNL     1       3.696   8.321  -2.412  0.00  0.00    +0.291 C 
BRANCH   7   8
ATOM      8  O   UNL     1       3.252   8.044  -1.113  0.00  0.00    -0.466 OA
BRANCH   8  11
ATOM      9  C   UNL     1       4.854   6.235   0.204  0.00  0.00    +0.034 C 
ATOM     10  C   UNL     1       4.776   7.421   0.634  0.00  0.00    +0.012 A 
ATOM     11  C   UNL     1       3.957   8.379   0.046  0.00  0.00    +0.131 A 
ATOM     12  C   UNL     1       3.695   9.594   0.668  0.00  0.00    +0.012 A 
ATOM     13  C   UNL     1       2.614  10.482   0.233  0.00  0.00    +0.034 C 
ATOM     14  C   UNL     1       4.328   9.907   1.857  0.00  0.00    -0.001 A 
ATOM     15  C   UNL     1       5.346   9.088   2.306  0.00  0.00    -0.000 A 
ATOM     16  C   UNL     1       5.603   7.903   1.643  0.00  0.00    -0.001 A 
ENDBRANCH   8  11
ENDBRANCH   7   8
ENDBRANCH   4   7
ENDBRANCH   3   5
BRANCH   3  17
ATOM     17  C   UNL     1       1.655   6.893  -6.070  0.00  0.00    +0.051 C 
BRANCH  17  18
ATOM     18  C   UNL     1       0.337   6.516  -5.621  0.00  0.00    -0.020 A 
ATOM     19  C   UNL     1      -0.511   7.518  -5.146  0.00  0.00    -0.004 A 
ATOM     20  C   UNL     1      -1.837   7.238  -4.832  0.00  0.00    -0.000 A 
ATOM     21  C   UNL     1      -2.428   6.203  -5.536  0.00  0.00    -0.000 A 
ATOM     22  C   UNL     1      -1.704   5.534  -6.515  0.00  0.00    -0.000 A 
ATOM     23  C   UNL     1      -0.324   5.585  -6.418  0.00  0.00    -0.004 A 
ENDBRANCH  17  18
ENDBRANCH   3  17
ENDBRANCH   1   3
BRANCH   1  24
ATOM     24  C   UNL     1       3.193   4.864  -7.412  0.00  0.00    +0.057 C 
BRANCH  24  25
ATOM     25  C   UNL     1       3.680   4.893  -8.966  0.00  0.00    +0.102 C 
BRANCH  25  26
ATOM     26  N   UNL     1       2.579   5.950  -9.347  0.00  0.00    -0.205 NA
ATOM     27  C   UNL     1       1.837   5.617 -10.470  0.00  0.00    +0.259 C 
ATOM     28  O   UNL     1       1.411   4.492 -10.660  0.00  0.00    -0.272 OA
BRANCH  27  29
ATOM     29  C   UNL     1       1.373   6.824 -11.428  0.00  0.00    +0.155 C 
BRANCH  29  30
ATOM     30  N   UNL     1       1.778   6.028 -12.720  0.00  0.00    -0.256 N 
ATOM     31  C   UNL     1       1.590   6.572 -13.975  0.00  0.00    +0.324 C 
ATOM     32  O   UNL     1       0.497   7.148 -14.148  0.00  0.00    -0.251 OA
ATOM     33  N   UNL     1       2.446   6.128 -15.032  0.00  0.00    -0.188 NA
ATOM     34  C   UNL     1       3.865   6.072 -14.691  0.00  0.00    +0.119 C 
ATOM     35  C   UNL     1       4.108   6.038 -13.211  0.00  0.00    +0.045 C 
ATOM     36  C   UNL     1       3.015   5.294 -12.459  0.00  0.00    +0.097 C 
ENDBRANCH  29  30
BRANCH  29  37
ATOM     37  C   UNL     1      -0.210   6.372 -11.399  0.00  0.00    +0.027 C 
ATOM     38  C   UNL     1      -0.858   7.743 -11.597  0.00  0.00    +0.002 C 
ATOM     39  C   UNL     1      -0.510   5.972  -9.983  0.00  0.00    +0.002 C 
ENDBRANCH  29  37
ENDBRANCH  27  29
ENDBRANCH  25  26
BRANCH  25  40
ATOM     40  C   UNL     1       4.834   6.003  -8.652  0.00  0.00    +0.048 C 
BRANCH  40  41
ATOM     41  C   UNL     1       5.734   6.164  -9.763  0.00  0.00    -0.020 A 
ATOM     42  C   UNL     1       6.884   5.392  -9.595  0.00  0.00    -0.004 A 
ATOM     43  C   UNL     1       7.973   5.529 -10.410  0.00  0.00    -0.000 A 
ATOM     44  C   UNL     1       7.962   6.427 -11.466  0.00  0.00    -0.000 A 
ATOM     45  C   UNL     1       6.902   7.320 -11.556  0.00  0.00    -0.000 A 
ATOM     46  C   UNL     1       5.922   7.218 -10.611  0.00  0.00    -0.004 A 
ENDBRANCH  40  41
ENDBRANCH  25  40
ENDBRANCH  24  25
ENDBRANCH   1  24
TORSDOF 15
ENDMDL
MODEL 6
REMARK VINA RESULT:      -8.6      3.225     11.149
REMARK  Name = 
REMARK  15 active torsions:
REMARK  status: ('A' for Active; 'I' for Inactive)
REMARK    1  A    between atoms: C_8  and  O_9
REMARK    2  A    between atoms: O_9  and  C_10
REMARK    3  A    between atoms: C_10  and  C_11
REMARK    4  A    between atoms: N_13  and  C_14
REMARK    5  A    between atoms: C_14  and  C_15
REMARK    6  A    between atoms: C_14  and  C_22
REMARK    7  A    between atoms: C_15  and  C_16
REMARK    8  A    between atoms: C_22  and  C_24
REMARK    9  A    between atoms: C_24  and  C_25
REMARK   10  A    between atoms: C_25  and  C_26
REMARK   11  A    between atoms: C_25  and  N_33
REMARK   12  A    between atoms: C_26  and  C_27
REMARK   13  A    between atoms: C_34  and  C_36
REMARK   14  A    between atoms: C_36  and  C_37
REMARK   15  A    between atoms: C_36  and  N_40
REMARK                            x       y       z     vdW  Elec       q    Type
REMARK                         _______ _______ _______ _____ _____    ______ ____
ROOT
ATOM      1  C   UNL     1       0.925   6.559  -9.788  0.00  0.00    +0.174 C 
ATOM      2  O   UNL     1      -0.092   5.735 -10.539  0.00  0.00    -0.221 OA
ENDROOT
BRANCH   1   3
ATOM      3  C   UNL     1       2.188   5.924 -10.766  0.00  0.00    +0.130 C 
BRANCH   3   5
ATOM      4  C   UNL     1       1.980   6.223 -13.218  0.00  0.00    +0.286 C 
ATOM      5  N   UNL     1       1.738   6.814 -11.964  0.00  0.00    -0.201 NA
ATOM      6  O   UNL     1       1.735   5.000 -13.347  0.00  0.00    -0.269 OA
BRANCH   4   7
ATOM      7  C   UNL     1       2.058   7.041 -14.463  0.00  0.00    +0.291 C 
BRANCH   7   8
ATOM      8  O   UNL     1       0.959   7.905 -14.554  0.00  0.00    -0.466 OA
BRANCH   8  11
ATOM      9  C   UNL     1      -0.533   6.116 -16.019  0.00  0.00    +0.034 C 
ATOM     10  C   UNL     1      -0.431   7.311 -16.419  0.00  0.00    +0.012 A 
ATOM     11  C   UNL     1       0.337   8.261 -15.754  0.00  0.00    +0.131 A 
ATOM     12  C   UNL     1       0.635   9.490 -16.331  0.00  0.00    +0.012 A 
ATOM     13  C   UNL     1       1.677  10.373 -15.801  0.00  0.00    +0.034 C 
ATOM     14  C   UNL     1       0.089   9.824 -17.557  0.00  0.00    -0.001 A 
ATOM     15  C   UNL     1      -0.890   9.009 -18.094  0.00  0.00    -0.000 A 
ATOM     16  C   UNL     1      -1.186   7.809 -17.475  0.00  0.00    -0.001 A 
ENDBRANCH   8  11
ENDBRANCH   7   8
ENDBRANCH   4   7
ENDBRANCH   3   5
BRANCH   3  17
ATOM     17  C   UNL     1       3.336   6.968 -10.293  0.00  0.00    +0.051 C 
BRANCH  17  18
ATOM     18  C   UNL     1       4.664   6.407 -10.370  0.00  0.00    -0.020 A 
ATOM     19  C   UNL     1       5.698   7.218 -10.840  0.00  0.00    -0.004 A 
ATOM     20  C   UNL     1       7.017   6.779 -10.805  0.00  0.00    -0.000 A 
ATOM     21  C   UNL     1       7.337   5.878  -9.803  0.00  0.00    -0.000 A 
ATOM     22  C   UNL     1       6.365   5.490  -8.889  0.00  0.00    -0.000 A 
ATOM     23  C   UNL     1       5.046   5.622  -9.285  0.00  0.00    -0.004 A 
ENDBRANCH  17  18
ENDBRANCH   3  17
ENDBRANCH   1   3
BRANCH   1  24
ATOM     24  C   UNL     1       1.293   5.473  -8.631  0.00  0.00    +0.057 C 
BRANCH  24  25
ATOM     25  C   UNL     1       1.506   6.330  -7.263  0.00  0.00    +0.102 C 
BRANCH  25  26
ATOM     26  N   UNL     1       0.212   5.716  -6.613  0.00  0.00    -0.205 NA
ATOM     27  C   UNL     1      -0.204   6.360  -5.458  0.00  0.00    +0.259 C 
ATOM     28  O   UNL     1      -0.232   7.574  -5.363  0.00  0.00    -0.272 OA
BRANCH  27  29
ATOM     29  C   UNL     1      -0.855   5.449  -4.302  0.00  0.00    +0.155 C 
BRANCH  29  30
ATOM     30  N   UNL     1      -0.209   6.327  -3.171  0.00  0.00    -0.256 N 
ATOM     31  C   UNL     1      -0.939   6.698  -2.059  0.00  0.00    +0.324 C 
ATOM     32  O   UNL     1      -2.105   7.079  -2.288  0.00  0.00    -0.251 OA
ATOM     33  N   UNL     1      -0.225   6.967  -0.849  0.00  0.00    -0.188 NA
ATOM     34  C   UNL     1       0.793   5.978  -0.503  0.00  0.00    +0.119 C 
ATOM     35  C   UNL     1       1.216   5.144  -1.675  0.00  0.00    +0.045 C 
ATOM     36  C   UNL     1       1.181   5.918  -2.984  0.00  0.00    +0.097 C 
ENDBRANCH  29  30
BRANCH  29  37
ATOM     37  C   UNL     1      -2.303   6.230  -4.362  0.00  0.00    +0.027 C 
ATOM     38  C   UNL     1      -3.204   5.110  -3.840  0.00  0.00    +0.002 C 
ATOM     39  C   UNL     1      -2.638   6.387  -5.818  0.00  0.00    +0.002 C 
ENDBRANCH  29  37
ENDBRANCH  27  29
ENDBRANCH  25  26
BRANCH  25  40
ATOM     40  C   UNL     1       2.517   5.209  -6.641  0.00  0.00    +0.048 C 
BRANCH  40  41
ATOM     41  C   UNL     1       3.543   5.808  -5.830  0.00  0.00    -0.020 A 
ATOM     42  C   UNL     1       4.015   4.912  -4.872  0.00  0.00    -0.004 A 
ATOM     43  C   UNL     1       4.842   5.307  -3.856  0.00  0.00    -0.000 A 
ATOM     44  C   UNL     1       5.273   6.621  -3.761  0.00  0.00    -0.000 A 
ATOM     45  C   UNL     1       4.691   7.563  -4.598  0.00  0.00    -0.000 A 
ATOM     46  C   UNL     1       3.759   7.113  -5.488  0.00  0.00    -0.004 A 
ENDBRANCH  40  41
ENDBRANCH  25  40
ENDBRANCH  24  25
ENDBRANCH   1  24
TORSDOF 15
ENDMDL
MODEL 7
REMARK VINA RESULT:      -8.5      1.993      9.732
REMARK  Name = 
REMARK  15 active torsions:
REMARK  status: ('A' for Active; 'I' for Inactive)
REMARK    1  A    between atoms: C_8  and  O_9
REMARK    2  A    between atoms: O_9  and  C_10
REMARK    3  A    between atoms: C_10  and  C_11
REMARK    4  A    between atoms: N_13  and  C_14
REMARK    5  A    between atoms: C_14  and  C_15
REMARK    6  A    between atoms: C_14  and  C_22
REMARK    7  A    between atoms: C_15  and  C_16
REMARK    8  A    between atoms: C_22  and  C_24
REMARK    9  A    between atoms: C_24  and  C_25
REMARK   10  A    between atoms: C_25  and  C_26
REMARK   11  A    between atoms: C_25  and  N_33
REMARK   12  A    between atoms: C_26  and  C_27
REMARK   13  A    between atoms: C_34  and  C_36
REMARK   14  A    between atoms: C_36  and  C_37
REMARK   15  A    between atoms: C_36  and  N_40
REMARK                            x       y       z     vdW  Elec       q    Type
REMARK                         _______ _______ _______ _____ _____    ______ ____
ROOT
ATOM      1  C   UNL     1       0.452   4.982  -8.000  0.00  0.00    +0.174 C 
ATOM      2  O   UNL     1       1.913   4.826  -7.657  0.00  0.00    -0.221 OA
ENDROOT
BRANCH   1   3
ATOM      3  C   UNL     1       0.857   5.917  -9.384  0.00  0.00    +0.130 C 
BRANCH   3   5
ATOM      4  C   UNL     1       3.227   5.801 -10.101  0.00  0.00    +0.286 C 
ATOM      5  N   UNL     1       2.135   5.056  -9.620  0.00  0.00    -0.201 NA
ATOM      6  O   UNL     1       3.437   6.928  -9.595  0.00  0.00    -0.269 OA
BRANCH   4   7
ATOM      7  C   UNL     1       4.365   5.146 -10.811  0.00  0.00    +0.291 C 
BRANCH   7   8
ATOM      8  O   UNL     1       5.103   6.091 -11.535  0.00  0.00    -0.466 OA
BRANCH   8  11
ATOM      9  C   UNL     1       6.980   6.264  -9.529  0.00  0.00    +0.034 C 
ATOM     10  C   UNL     1       7.360   6.050 -10.716  0.00  0.00    +0.012 A 
ATOM     11  C   UNL     1       6.474   5.990 -11.787  0.00  0.00    +0.131 A 
ATOM     12  C   UNL     1       6.922   6.000 -13.103  0.00  0.00    +0.012 A 
ATOM     13  C   UNL     1       6.025   6.246 -14.235  0.00  0.00    +0.034 C 
ATOM     14  C   UNL     1       8.279   5.980 -13.367  0.00  0.00    -0.001 A 
ATOM     15  C   UNL     1       9.158   5.761 -12.323  0.00  0.00    -0.000 A 
ATOM     16  C   UNL     1       8.674   5.722 -11.029  0.00  0.00    -0.001 A 
ENDBRANCH   8  11
ENDBRANCH   7   8
ENDBRANCH   4   7
ENDBRANCH   3   5
BRANCH   3  17
ATOM     17  C   UNL     1      -0.029   5.074 -10.449  0.00  0.00    +0.051 C 
BRANCH  17  18
ATOM     18  C   UNL     1      -0.042   5.676 -11.761  0.00  0.00    -0.020 A 
ATOM     19  C   UNL     1       0.153   7.054 -11.858  0.00  0.00    -0.004 A 
ATOM     20  C   UNL     1       0.290   7.668 -13.098  0.00  0.00    -0.000 A 
ATOM     21  C   UNL     1       0.826   6.890 -14.110  0.00  0.00    -0.000 A 
ATOM     22  C   UNL     1       1.219   5.585 -13.842  0.00  0.00    -0.000 A 
ATOM     23  C   UNL     1       0.632   4.967 -12.751  0.00  0.00    -0.004 A 
ENDBRANCH  17  18
ENDBRANCH   3  17
ENDBRANCH   1   3
BRANCH   1  24
ATOM     24  C   UNL     1       0.165   6.354  -7.172  0.00  0.00    +0.057 C 
BRANCH  24  25
ATOM     25  C   UNL     1       0.287   5.962  -5.596  0.00  0.00    +0.102 C 
BRANCH  25  26
ATOM     26  N   UNL     1       1.664   6.709  -5.461  0.00  0.00    -0.205 NA
ATOM     27  C   UNL     1       2.536   6.133  -4.551  0.00  0.00    +0.259 C 
ATOM     28  O   UNL     1       2.713   4.930  -4.491  0.00  0.00    -0.272 OA
BRANCH  27  29
ATOM     29  C   UNL     1       3.476   7.127  -3.703  0.00  0.00    +0.155 C 
BRANCH  29  30
ATOM     30  N   UNL     1       3.217   6.328  -2.376  0.00  0.00    -0.256 N 
ATOM     31  C   UNL     1       3.629   6.829  -1.157  0.00  0.00    +0.324 C 
ATOM     32  O   UNL     1       4.771   7.329  -1.143  0.00  0.00    -0.251 OA
ATOM     33  N   UNL     1       2.914   6.416   0.012  0.00  0.00    -0.188 NA
ATOM     34  C   UNL     1       1.459   6.460  -0.110  0.00  0.00    +0.119 C 
ATOM     35  C   UNL     1       0.995   6.476  -1.536  0.00  0.00    +0.045 C 
ATOM     36  C   UNL     1       1.909   5.682  -2.456  0.00  0.00    +0.097 C 
ENDBRANCH  29  30
BRANCH  29  37
ATOM     37  C   UNL     1       4.861   6.351  -4.140  0.00  0.00    +0.027 C 
ATOM     38  C   UNL     1       5.850   7.505  -3.967  0.00  0.00    +0.002 C 
ATOM     39  C   UNL     1       4.762   6.109  -5.619  0.00  0.00    +0.002 C 
ENDBRANCH  29  37
ENDBRANCH  27  29
ENDBRANCH  25  26
BRANCH  25  40
ATOM     40  C   UNL     1      -0.612   7.245  -5.140  0.00  0.00    +0.048 C 
BRANCH  40  41
ATOM     41  C   UNL     1      -1.762   6.845  -4.375  0.00  0.00    -0.020 A 
ATOM     42  C   UNL     1      -1.874   7.595  -3.204  0.00  0.00    -0.004 A 
ATOM     43  C   UNL     1      -2.762   7.268  -2.216  0.00  0.00    -0.000 A 
ATOM     44  C   UNL     1      -3.616   6.186  -2.359  0.00  0.00    -0.000 A 
ATOM     45  C   UNL     1      -3.416   5.329  -3.433  0.00  0.00    -0.000 A 
ATOM     46  C   UNL     1      -2.406   5.643  -4.298  0.00  0.00    -0.004 A 
ENDBRANCH  40  41
ENDBRANCH  25  40
ENDBRANCH  24  25
ENDBRANCH   1  24
TORSDOF 15
ENDMDL
MODEL 8
REMARK VINA RESULT:      -8.4      1.953      9.678
REMARK  Name = 
REMARK  15 active torsions:
REMARK  status: ('A' for Active; 'I' for Inactive)
REMARK    1  A    between atoms: C_8  and  O_9
REMARK    2  A    between atoms: O_9  and  C_10
REMARK    3  A    between atoms: C_10  and  C_11
REMARK    4  A    between atoms: N_13  and  C_14
REMARK    5  A    between atoms: C_14  and  C_15
REMARK    6  A    between atoms: C_14  and  C_22
REMARK    7  A    between atoms: C_15  and  C_16
REMARK    8  A    between atoms: C_22  and  C_24
REMARK    9  A    between atoms: C_24  and  C_25
REMARK   10  A    between atoms: C_25  and  C_26
REMARK   11  A    between atoms: C_25  and  N_33
REMARK   12  A    between atoms: C_26  and  C_27
REMARK   13  A    between atoms: C_34  and  C_36
REMARK   14  A    between atoms: C_36  and  C_37
REMARK   15  A    between atoms: C_36  and  N_40
REMARK                            x       y       z     vdW  Elec       q    Type
REMARK                         _______ _______ _______ _____ _____    ______ ____
ROOT
ATOM      1  C   UNL     1       1.704   5.388  -7.949  0.00  0.00    +0.174 C 
ATOM      2  O   UNL     1       3.149   5.807  -7.826  0.00  0.00    -0.221 OA
ENDROOT
BRANCH   1   3
ATOM      3  C   UNL     1       1.507   6.404  -9.321  0.00  0.00    +0.130 C 
BRANCH   3   5
ATOM      4  C   UNL     1       3.416   6.350 -10.901  0.00  0.00    +0.286 C 
ATOM      5  N   UNL     1       2.548   5.564 -10.121  0.00  0.00    -0.201 NA
ATOM      6  O   UNL     1       3.866   7.405 -10.396  0.00  0.00    -0.269 OA
BRANCH   4   7
ATOM      7  C   UNL     1       4.160   5.774 -12.060  0.00  0.00    +0.291 C 
BRANCH   7   8
ATOM      8  O   UNL     1       5.224   4.979 -11.615  0.00  0.00    -0.466 OA
BRANCH   8  11
ATOM      9  C   UNL     1       6.772   5.641  -9.438  0.00  0.00    +0.034 C 
ATOM     10  C   UNL     1       7.298   5.617 -10.587  0.00  0.00    +0.012 A 
ATOM     11  C   UNL     1       6.571   5.330 -11.738  0.00  0.00    +0.131 A 
ATOM     12  C   UNL     1       7.100   5.545 -13.005  0.00  0.00    +0.012 A 
ATOM     13  C   UNL     1       6.270   5.547 -14.212  0.00  0.00    +0.034 C 
ATOM     14  C   UNL     1       8.410   5.968 -13.140  0.00  0.00    -0.001 A 
ATOM     15  C   UNL     1       9.222   5.989 -12.022  0.00  0.00    -0.000 A 
ATOM     16  C   UNL     1       8.670   5.737 -10.780  0.00  0.00    -0.001 A 
ENDBRANCH   8  11
ENDBRANCH   7   8
ENDBRANCH   4   7
ENDBRANCH   3   5
BRANCH   3  17
ATOM     17  C   UNL     1       0.237   5.620  -9.957  0.00  0.00    +0.051 C 
BRANCH  17  18
ATOM     18  C   UNL     1      -0.005   5.978 -11.334  0.00  0.00    -0.020 A 
ATOM     19  C   UNL     1       0.257   7.290 -11.731  0.00  0.00    -0.004 A 
ATOM     20  C   UNL     1       0.177   7.657 -13.070  0.00  0.00    -0.000 A 
ATOM     21  C   UNL     1       0.441   6.661 -13.995  0.00  0.00    -0.000 A 
ATOM     22  C   UNL     1       0.794   5.390 -13.558  0.00  0.00    -0.000 A 
ATOM     23  C   UNL     1       0.404   5.039 -12.277  0.00  0.00    -0.004 A 
ENDBRANCH  17  18
ENDBRANCH   3  17
ENDBRANCH   1   3
BRANCH   1  24
ATOM     24  C   UNL     1       1.047   6.547  -7.013  0.00  0.00    +0.057 C 
BRANCH  24  25
ATOM     25  C   UNL     1       0.229   5.767  -5.840  0.00  0.00    +0.102 C 
BRANCH  25  26
ATOM     26  N   UNL     1       1.246   6.244  -4.739  0.00  0.00    -0.205 NA
ATOM     27  C   UNL     1       2.060   5.238  -4.244  0.00  0.00    +0.259 C 
ATOM     28  O   UNL     1       2.594   4.416  -4.967  0.00  0.00    -0.272 OA
BRANCH  27  29
ATOM     29  C   UNL     1       2.455   5.312  -2.685  0.00  0.00    +0.155 C 
BRANCH  29  30
ATOM     30  N   UNL     1       3.295   6.621  -2.904  0.00  0.00    -0.256 N 
ATOM     31  C   UNL     1       4.437   6.861  -2.166  0.00  0.00    +0.324 C 
ATOM     32  O   UNL     1       4.349   6.604  -0.948  0.00  0.00    -0.251 OA
ATOM     33  N   UNL     1       5.445   7.696  -2.743  0.00  0.00    -0.188 NA
ATOM     34  C   UNL     1       5.773   7.391  -4.134  0.00  0.00    +0.119 C 
ATOM     35  C   UNL     1       4.703   6.597  -4.824  0.00  0.00    +0.045 C 
ATOM     36  C   UNL     1       3.308   6.947  -4.329  0.00  0.00    +0.097 C 
ENDBRANCH  29  30
BRANCH  29  37
ATOM     37  C   UNL     1       1.044   6.046  -2.259  0.00  0.00    +0.027 C 
ATOM     38  C   UNL     1       1.480   6.649  -0.923  0.00  0.00    +0.002 C 
ATOM     39  C   UNL     1       0.080   4.944  -1.922  0.00  0.00    +0.002 C 
ENDBRANCH  29  37
ENDBRANCH  27  29
ENDBRANCH  25  26
BRANCH  25  40
ATOM     40  C   UNL     1      -0.797   7.019  -5.632  0.00  0.00    +0.048 C 
BRANCH  40  41
ATOM     41  C   UNL     1      -1.847   6.698  -4.702  0.00  0.00    -0.020 A 
ATOM     42  C   UNL     1      -1.864   7.596  -3.634  0.00  0.00    -0.004 A 
ATOM     43  C   UNL     1      -2.633   7.383  -2.523  0.00  0.00    -0.000 A 
ATOM     44  C   UNL     1      -3.457   6.273  -2.431  0.00  0.00    -0.000 A 
ATOM     45  C   UNL     1      -3.337   5.285  -3.399  0.00  0.00    -0.000 A 
ATOM     46  C   UNL     1      -2.435   5.503  -4.400  0.00  0.00    -0.004 A 
ENDBRANCH  40  41
ENDBRANCH  25  40
ENDBRANCH  24  25
ENDBRANCH   1  24
TORSDOF 15
ENDMDL
MODEL 9
REMARK VINA RESULT:      -8.4      2.301     10.493
REMARK  Name = 
REMARK  15 active torsions:
REMARK  status: ('A' for Active; 'I' for Inactive)
REMARK    1  A    between atoms: C_8  and  O_9
REMARK    2  A    between atoms: O_9  and  C_10
REMARK    3  A    between atoms: C_10  and  C_11
REMARK    4  A    between atoms: N_13  and  C_14
REMARK    5  A    between atoms: C_14  and  C_15
REMARK    6  A    between atoms: C_14  and  C_22
REMARK    7  A    between atoms: C_15  and  C_16
REMARK    8  A    between atoms: C_22  and  C_24
REMARK    9  A    between atoms: C_24  and  C_25
REMARK   10  A    between atoms: C_25  and  C_26
REMARK   11  A    between atoms: C_25  and  N_33
REMARK   12  A    between atoms: C_26  and  C_27
REMARK   13  A    between atoms: C_34  and  C_36
REMARK   14  A    between atoms: C_36  and  C_37
REMARK   15  A    between atoms: C_36  and  N_40
REMARK                            x       y       z     vdW  Elec       q    Type
REMARK                         _______ _______ _______ _____ _____    ______ ____
ROOT
ATOM      1  C   UNL     1       2.700   6.210  -9.937  0.00  0.00    +0.174 C 
ATOM      2  O   UNL     1       2.111   4.822  -9.893  0.00  0.00    -0.221 OA
ENDROOT
BRANCH   1   3
ATOM      3  C   UNL     1       4.056   5.628 -10.818  0.00  0.00    +0.130 C 
BRANCH   3   5
ATOM      4  C   UNL     1       4.046   5.453 -13.291  0.00  0.00    +0.286 C 
ATOM      5  N   UNL     1       3.314   5.878 -12.167  0.00  0.00    -0.201 NA
ATOM      6  O   UNL     1       4.650   4.357 -13.217  0.00  0.00    -0.269 OA
BRANCH   4   7
ATOM      7  C   UNL     1       3.759   5.986 -14.655  0.00  0.00    +0.291 C 
BRANCH   7   8
ATOM      8  O   UNL     1       2.879   7.074 -14.583  0.00  0.00    -0.466 OA
BRANCH   8  11
ATOM      9  C   UNL     1       3.261   8.620 -16.827  0.00  0.00    +0.034 C 
ATOM     10  C   UNL     1       2.136   8.079 -16.633  0.00  0.00    +0.012 A 
ATOM     11  C   UNL     1       1.855   7.317 -15.503  0.00  0.00    +0.131 A 
ATOM     12  C   UNL     1       0.557   6.937 -15.185  0.00  0.00    +0.012 A 
ATOM     13  C   UNL     1       0.194   6.410 -13.867  0.00  0.00    +0.034 C 
ATOM     14  C   UNL     1      -0.479   7.241 -16.049  0.00  0.00    -0.001 A 
ATOM     15  C   UNL     1      -0.177   7.749 -17.298  0.00  0.00    -0.000 A 
ATOM     16  C   UNL     1       1.131   8.084 -17.594  0.00  0.00    -0.001 A 
ENDBRANCH   8  11
ENDBRANCH   7   8
ENDBRANCH   4   7
ENDBRANCH   3   5
BRANCH   3  17
ATOM     17  C   UNL     1       4.859   7.036 -10.883  0.00  0.00    +0.051 C 
BRANCH  17  18
ATOM     18  C   UNL     1       6.284   6.857 -11.017  0.00  0.00    -0.020 A 
ATOM     19  C   UNL     1       6.882   5.789 -10.346  0.00  0.00    -0.004 A 
ATOM     20  C   UNL     1       8.224   5.484 -10.548  0.00  0.00    -0.000 A 
ATOM     21  C   UNL     1       8.747   5.813 -11.787  0.00  0.00    -0.000 A 
ATOM     22  C   UNL     1       7.927   6.385 -12.752  0.00  0.00    -0.000 A 
ATOM     23  C   UNL     1       6.792   7.038 -12.301  0.00  0.00    -0.004 A 
ENDBRANCH  17  18
ENDBRANCH   3  17
ENDBRANCH   1   3
BRANCH   1  24
ATOM     24  C   UNL     1       3.575   6.135  -8.566  0.00  0.00    +0.057 C 
BRANCH  24  25
ATOM     25  C   UNL     1       2.575   5.540  -7.426  0.00  0.00    +0.102 C 
BRANCH  25  26
ATOM     26  N   UNL     1       3.472   6.108  -6.266  0.00  0.00    -0.205 NA
ATOM     27  C   UNL     1       3.207   5.558  -5.022  0.00  0.00    +0.259 C 
ATOM     28  O   UNL     1       3.035   4.363  -4.862  0.00  0.00    -0.272 OA
BRANCH  27  29
ATOM     29  C   UNL     1       3.340   6.529  -3.745  0.00  0.00    +0.155 C 
BRANCH  29  30
ATOM     30  N   UNL     1       2.614   5.493  -2.814  0.00  0.00    -0.256 N 
ATOM     31  C   UNL     1       2.858   5.471  -1.455  0.00  0.00    +0.324 C 
ATOM     32  O   UNL     1       4.057   5.579  -1.126  0.00  0.00    -0.251 OA
ATOM     33  N   UNL     1       1.829   4.968  -0.598  0.00  0.00    -0.188 NA
ATOM     34  C   UNL     1       0.489   5.477  -0.882  0.00  0.00    +0.119 C 
ATOM     35  C   UNL     1       0.365   6.047  -2.264  0.00  0.00    +0.045 C 
ATOM     36  C   UNL     1       1.238   5.319  -3.275  0.00  0.00    +0.097 C 
ENDBRANCH  29  30
BRANCH  29  37
ATOM     37  C   UNL     1       4.881   6.051  -3.416  0.00  0.00    +0.027 C 
ATOM     38  C   UNL     1       5.632   7.274  -3.945  0.00  0.00    +0.002 C 
ATOM     39  C   UNL     1       5.189   4.931  -4.369  0.00  0.00    +0.002 C 
ENDBRANCH  29  37
ENDBRANCH  27  29
ENDBRANCH  25  26
BRANCH  25  40
ATOM     40  C   UNL     1       1.603   6.849  -7.503  0.00  0.00    +0.048 C 
BRANCH  40  41
ATOM     41  C   UNL     1       0.257   6.537  -7.101  0.00  0.00    -0.020 A 
ATOM     42  C   UNL     1      -0.097   7.232  -5.945  0.00  0.00    -0.004 A 
ATOM     43  C   UNL     1      -1.244   6.953  -5.255  0.00  0.00    -0.000 A 
ATOM     44  C   UNL     1      -2.124   5.980  -5.703  0.00  0.00    -0.000 A 
ATOM     45  C   UNL     1      -1.720   5.164  -6.752  0.00  0.00    -0.000 A 
ATOM     46  C   UNL     1      -0.491   5.410  -7.293  0.00  0.00    -0.004 A 
ENDBRANCH  40  41
ENDBRANCH  25  40
ENDBRANCH  24  25
ENDBRANCH   1  24
TORSDOF 15
ENDMDL
