MODEL 1
REMARK VINA RESULT:      -8.5      0.000      0.000
REMARK  Name = 
REMARK  7 active torsions:
REMARK  status: ('A' for Active; 'I' for Inactive)
REMARK    1  A    between atoms: N_2  and  C_3
REMARK    2  A    between atoms: C_3  and  C_5
REMARK    3  A    between atoms: C_10  and  O_11
REMARK    4  A    between atoms: O_11  and  C_12
REMARK    5  A    between atoms: C_18  and  O_19
REMARK    6  A    between atoms: O_19  and  C_20
REMARK    7  A    between atoms: C_26  and  N_27
REMARK                            x       y       z     vdW  Elec       q    Type
REMARK                         _______ _______ _______ _____ _____    ______ ____
ROOT
ATOM      1  C   UNL     1       1.614   6.177  -5.378  0.00  0.00    +0.168 C 
ATOM      2  C   UNL     1       2.540   5.023  -6.213  0.00  0.00    +0.209 C 
ATOM      3  O   UNL     1       1.607   4.421  -7.180  0.00  0.00    -0.218 OA
ATOM      4  C   UNL     1       3.286   6.176  -7.277  0.00  0.00    +0.168 C 
ATOM      5  C   UNL     1       2.064   7.357  -7.135  0.00  0.00    +0.123 C 
ATOM      6  N   UNL     1       2.479   8.085  -8.446  0.00  0.00    -0.130 NA
ATOM      7  C   UNL     1       0.777   6.498  -7.629  0.00  0.00    +0.043 C 
ATOM      8  C   UNL     1       0.110   6.208  -6.177  0.00  0.00    +0.123 C 
ATOM      9  N   UNL     1      -0.185   4.678  -6.258  0.00  0.00    -0.130 NA
ENDROOT
BRANCH   1  10
ATOM     10  O   UNL     1       1.174   5.224  -4.288  0.00  0.00    -0.328 OA
BRANCH  10  13
ATOM     11  C   UNL     1       2.589   6.026  -1.265  0.00  0.00    +0.134 C 
ATOM     12  O   UNL     1       2.753   5.504  -2.668  0.00  0.00    -0.331 OA
ATOM     13  C   UNL     1       1.562   6.267  -3.244  0.00  0.00    +0.253 C 
ATOM     14  C   UNL     1       0.457   5.813  -1.977  0.00  0.00    +0.148 C 
ATOM     15  N   UNL     1      -0.649   5.156  -2.863  0.00  0.00    -0.128 NA
ATOM     16  C   UNL     1       1.033   4.342  -1.630  0.00  0.00    +0.027 C 
ATOM     17  C   UNL     1       2.226   4.530  -0.688  0.00  0.00    +0.033 C 
BRANCH  11  18
ATOM     18  C   UNL     1       4.233   5.932  -0.799  0.00  0.00    +0.100 C 
ATOM     19  C   UNL     1       4.743   7.279  -1.559  0.00  0.00    +0.021 C 
BRANCH  18  21
ATOM     20  C   UNL     1       4.692   7.233   0.884  0.00  0.00    +0.107 C 
ATOM     21  N   UNL     1       3.932   6.636   0.562  0.00  0.00    -0.215 NA
ENDBRANCH  18  21
ENDBRANCH  11  18
ENDBRANCH  10  13
ENDBRANCH   1  10
BRANCH   4  22
ATOM     22  O   UNL     1       3.058   5.495  -8.557  0.00  0.00    -0.327 OA
BRANCH  22  23
ATOM     23  C   UNL     1       4.209   5.064  -9.374  0.00  0.00    +0.268 C 
ATOM     24  C   UNL     1       3.937   6.109 -10.731  0.00  0.00    +0.226 C 
ATOM     25  O   UNL     1       4.628   7.329 -10.256  0.00  0.00    -0.216 OA
ATOM     26  C   UNL     1       5.261   5.309 -11.482  0.00  0.00    +0.138 C 
ATOM     27  C   UNL     1       6.490   6.007 -10.696  0.00  0.00    +0.171 C 
ATOM     28  O   UNL     1       6.753   7.252 -11.136  0.00  0.00    -0.222 OA
ATOM     29  C   UNL     1       7.600   5.114 -11.282  0.00  0.00    +0.037 C 
ATOM     30  C   UNL     1       6.405   5.786  -9.260  0.00  0.00    +0.176 C 
ATOM     31  O   UNL     1       5.181   6.002  -8.657  0.00  0.00    -0.326 OA
BRANCH  26  32
ATOM     32  N   UNL     1       5.221   6.286 -12.703  0.00  0.00    -0.213 NA
ATOM     33  C   UNL     1       4.976   5.220 -13.687  0.00  0.00    +0.108 C 
ENDBRANCH  26  32
ENDBRANCH  22  23
ENDBRANCH   4  22
TORSDOF 7
ENDMDL
MODEL 2
REMARK VINA RESULT:      -8.4      2.023      8.897
REMARK  Name = 
REMARK  7 active torsions:
REMARK  status: ('A' for Active; 'I' for Inactive)
REMARK    1  A    between atoms: N_2  and  C_3
REMARK    2  A    between atoms: C_3  and  C_5
REMARK    3  A    between atoms: C_10  and  O_11
REMARK    4  A    between atoms: O_11  and  C_12
REMARK    5  A    between atoms: C_18  and  O_19
REMARK    6  A    between atoms: O_19  and  C_20
REMARK    7  A    between atoms: C_26  and  N_27
REMARK                            x       y       z     vdW  Elec       q    Type
REMARK                         _______ _______ _______ _____ _____    ______ ____
ROOT
ATOM      1  C   UNL     1       3.688   5.487  -7.273  0.00  0.00    +0.168 C 
ATOM      2  C   UNL     1       3.201   6.847  -6.380  0.00  0.00    +0.209 C 
ATOM      3  O   UNL     1       1.827   6.540  -5.947  0.00  0.00    -0.218 OA
ATOM      4  C   UNL     1       4.027   6.373  -4.927  0.00  0.00    +0.168 C 
ATOM      5  C   UNL     1       4.073   4.707  -5.291  0.00  0.00    +0.123 C 
ATOM      6  N   UNL     1       4.310   4.291  -3.812  0.00  0.00    -0.130 NA
ATOM      7  C   UNL     1       2.485   4.409  -5.466  0.00  0.00    +0.043 C 
ATOM      8  C   UNL     1       2.429   4.356  -7.089  0.00  0.00    +0.123 C 
ATOM      9  N   UNL     1       1.200   5.265  -7.398  0.00  0.00    -0.130 NA
ENDROOT
BRANCH   1  10
ATOM     10  O   UNL     1       3.200   6.024  -8.601  0.00  0.00    -0.328 OA
BRANCH  10  13
ATOM     11  C   UNL     1       5.873   5.756 -10.739  0.00  0.00    +0.134 C 
ATOM     12  O   UNL     1       5.308   6.259  -9.438  0.00  0.00    -0.331 OA
ATOM     13  C   UNL     1       4.246   5.169  -9.311  0.00  0.00    +0.253 C 
ATOM     14  C   UNL     1       3.666   5.325 -10.945  0.00  0.00    +0.148 C 
ATOM     15  N   UNL     1       2.163   5.609 -10.628  0.00  0.00    -0.128 NA
ATOM     16  C   UNL     1       3.903   6.909 -11.167  0.00  0.00    +0.027 C 
ATOM     17  C   UNL     1       5.376   7.101 -11.543  0.00  0.00    +0.033 C 
BRANCH  11  18
ATOM     18  C   UNL     1       7.469   6.333 -10.527  0.00  0.00    +0.100 C 
ATOM     19  C   UNL     1       7.925   5.271  -9.380  0.00  0.00    +0.021 C 
BRANCH  18  21
ATOM     20  C   UNL     1       8.892   5.779 -12.077  0.00  0.00    +0.107 C 
ATOM     21  N   UNL     1       7.984   5.479 -11.730  0.00  0.00    -0.215 NA
ENDBRANCH  18  21
ENDBRANCH  11  18
ENDBRANCH  10  13
ENDBRANCH   1  10
BRANCH   4  22
ATOM     22  O   UNL     1       2.935   6.558  -3.965  0.00  0.00    -0.327 OA
BRANCH  22  23
ATOM     23  C   UNL     1       3.124   7.446  -2.802  0.00  0.00    +0.268 C 
ATOM     24  C   UNL     1       2.178   6.544  -1.663  0.00  0.00    +0.226 C 
ATOM     25  O   UNL     1       3.197   5.579  -1.193  0.00  0.00    -0.216 OA
ATOM     26  C   UNL     1       2.474   7.827  -0.556  0.00  0.00    +0.138 C 
ATOM     27  C   UNL     1       4.001   7.492  -0.143  0.00  0.00    +0.171 C 
ATOM     28  O   UNL     1       4.095   6.470   0.729  0.00  0.00    -0.222 OA
ATOM     29  C   UNL     1       4.241   8.769   0.683  0.00  0.00    +0.037 C 
ATOM     30  C   UNL     1       4.885   7.494  -1.299  0.00  0.00    +0.176 C 
ATOM     31  O   UNL     1       4.462   6.808  -2.422  0.00  0.00    -0.326 OA
BRANCH  26  32
ATOM     32  N   UNL     1       1.774   7.050   0.607  0.00  0.00    -0.213 NA
ATOM     33  C   UNL     1       0.784   8.106   0.863  0.00  0.00    +0.108 C 
ENDBRANCH  26  32
ENDBRANCH  22  23
ENDBRANCH   4  22
TORSDOF 7
ENDMDL
MODEL 3
REMARK VINA RESULT:      -8.3      1.748      8.603
REMARK  Name = 
REMARK  7 active torsions:
REMARK  status: ('A' for Active; 'I' for Inactive)
REMARK    1  A    between atoms: N_2  and  C_3
REMARK    2  A    between atoms: C_3  and  C_5
REMARK    3  A    between atoms: C_10  and  O_11
REMARK    4  A    between atoms: O_11  and  C_12
REMARK    5  A    between atoms: C_18  and  O_19
REMARK    6  A    between atoms: O_19  and  C_20
REMARK    7  A    between atoms: C_26  and  N_27
REMARK                            x       y       z     vdW  Elec       q    Type
REMARK                         _______ _______ _______ _____ _____    ______ ____
ROOT
ATOM      1  C   UNL     1       2.823   5.445  -8.935  0.00  0.00    +0.168 C 
ATOM      2  C   UNL     1       3.201   6.605  -7.753  0.00  0.00    +0.209 C 
ATOM      3  O   UNL     1       1.948   7.354  -7.549  0.00  0.00    -0.218 OA
ATOM      4  C   UNL     1       3.050   5.508  -6.416  0.00  0.00    +0.168 C 
ATOM      5  C   UNL     1       2.026   4.402  -7.215  0.00  0.00    +0.123 C 
ATOM      6  N   UNL     1       1.511   3.771  -5.890  0.00  0.00    -0.130 NA
ATOM      7  C   UNL     1       0.795   5.386  -7.610  0.00  0.00    +0.043 C 
ATOM      8  C   UNL     1       1.145   5.587  -9.184  0.00  0.00    +0.123 C 
ATOM      9  N   UNL     1       1.025   7.134  -9.345  0.00  0.00    -0.130 NA
ENDROOT
BRANCH   1  10
ATOM     10  O   UNL     1       3.213   6.322 -10.105  0.00  0.00    -0.328 OA
BRANCH  10  13
ATOM     11  C   UNL     1       6.336   5.748 -11.410  0.00  0.00    +0.134 C 
ATOM     12  O   UNL     1       5.476   6.411 -10.367  0.00  0.00    -0.331 OA
ATOM     13  C   UNL     1       4.363   5.367 -10.415  0.00  0.00    +0.253 C 
ATOM     14  C   UNL     1       4.242   5.346 -12.151  0.00  0.00    +0.148 C 
ATOM     15  N   UNL     1       2.726   5.698 -12.280  0.00  0.00    -0.128 NA
ATOM     16  C   UNL     1       4.612   6.888 -12.468  0.00  0.00    +0.027 C 
ATOM     17  C   UNL     1       6.140   7.002 -12.454  0.00  0.00    +0.033 C 
BRANCH  11  18
ATOM     18  C   UNL     1       7.849   6.310 -10.840  0.00  0.00    +0.100 C 
ATOM     19  C   UNL     1       8.018   5.250  -9.615  0.00  0.00    +0.021 C 
BRANCH  18  21
ATOM     20  C   UNL     1       9.490   5.863 -12.196  0.00  0.00    +0.107 C 
ATOM     21  N   UNL     1       8.615   5.444 -11.890  0.00  0.00    -0.215 NA
ENDBRANCH  18  21
ENDBRANCH  11  18
ENDBRANCH  10  13
ENDBRANCH   1  10
BRANCH   4  22
ATOM     22  O   UNL     1       2.189   6.315  -5.544  0.00  0.00    -0.327 OA
BRANCH  22  23
ATOM     23  C   UNL     1       2.743   6.912  -4.313  0.00  0.00    +0.268 C 
ATOM     24  C   UNL     1       1.921   5.898  -3.173  0.00  0.00    +0.226 C 
ATOM     25  O   UNL     1       2.854   4.749  -3.133  0.00  0.00    -0.216 OA
ATOM     26  C   UNL     1       2.628   6.877  -1.948  0.00  0.00    +0.138 C 
ATOM     27  C   UNL     1       4.137   6.297  -1.964  0.00  0.00    +0.171 C 
ATOM     28  O   UNL     1       4.248   5.111  -1.338  0.00  0.00    -0.222 OA
ATOM     29  C   UNL     1       4.732   7.337  -0.996  0.00  0.00    +0.037 C 
ATOM     30  C   UNL     1       4.758   6.448  -3.271  0.00  0.00    +0.176 C 
ATOM     31  O   UNL     1       4.017   6.065  -4.373  0.00  0.00    -0.326 OA
BRANCH  26  32
ATOM     32  N   UNL     1       2.068   5.953  -0.817  0.00  0.00    -0.213 NA
ATOM     33  C   UNL     1       1.356   7.041  -0.129  0.00  0.00    +0.108 C 
ENDBRANCH  26  32
ENDBRANCH  22  23
ENDBRANCH   4  22
TORSDOF 7
ENDMDL
MODEL 4
REMARK VINA RESULT:      -7.8      2.829      4.595
REMARK  Name = 
REMARK  7 active torsions:
REMARK  status: ('A' for Active; 'I' for Inactive)
REMARK    1  A    between atoms: N_2  and  C_3
REMARK    2  A    between atoms: C_3  and  C_5
REMARK    3  A    between atoms: C_10  and  O_11
REMARK    4  A    between atoms: O_11  and  C_12
REMARK    5  A    between atoms: C_18  and  O_19
REMARK    6  A    between atoms: O_19  and  C_20
REMARK    7  A    between atoms: C_26  and  N_27
REMARK                            x       y       z     vdW  Elec       q    Type
REMARK                         _______ _______ _______ _____ _____    ______ ____
ROOT
ATOM      1  C   UNL     1       3.097   5.938  -3.438  0.00  0.00    +0.168 C 
ATOM      2  C   UNL     1       2.740   7.035  -4.686  0.00  0.00    +0.209 C 
ATOM      3  O   UNL     1       4.001   7.176  -5.433  0.00  0.00    -0.218 OA
ATOM      4  C   UNL     1       1.980   5.854  -5.708  0.00  0.00    +0.168 C 
ATOM      5  C   UNL     1       2.767   4.503  -5.025  0.00  0.00    +0.123 C 
ATOM      6  N   UNL     1       2.488   3.596  -6.257  0.00  0.00    -0.130 NA
ATOM      7  C   UNL     1       4.318   4.922  -5.269  0.00  0.00    +0.043 C 
ATOM      8  C   UNL     1       4.679   5.395  -3.758  0.00  0.00    +0.123 C 
ATOM      9  N   UNL     1       5.388   6.761  -4.009  0.00  0.00    -0.130 NA
ENDROOT
BRANCH   1  10
ATOM     10  O   UNL     1       3.511   7.002  -2.446  0.00  0.00    -0.328 OA
BRANCH  10  13
ATOM     11  C   UNL     1       1.268   7.094   0.152  0.00  0.00    +0.134 C 
ATOM     12  O   UNL     1       1.551   7.280  -1.315  0.00  0.00    -0.331 OA
ATOM     13  C   UNL     1       2.706   6.283  -1.367  0.00  0.00    +0.253 C 
ATOM     14  C   UNL     1       3.516   6.908   0.042  0.00  0.00    +0.148 C 
ATOM     15  N   UNL     1       4.902   7.217  -0.608  0.00  0.00    -0.128 NA
ATOM     16  C   UNL     1       3.121   8.471  -0.090  0.00  0.00    +0.027 C 
ATOM     17  C   UNL     1       1.715   8.637   0.495  0.00  0.00    +0.033 C 
BRANCH  11  18
ATOM     18  C   UNL     1      -0.401   7.466   0.106  0.00  0.00    +0.100 C 
ATOM     19  C   UNL     1      -0.911   6.061  -0.543  0.00  0.00    +0.021 C 
BRANCH  18  21
ATOM     20  C   UNL     1      -1.547   7.098   1.919  0.00  0.00    +0.107 C 
ATOM     21  N   UNL     1      -0.587   7.018   1.590  0.00  0.00    -0.215 NA
ENDBRANCH  18  21
ENDBRANCH  11  18
ENDBRANCH  10  13
ENDBRANCH   1  10
BRANCH   4  22
ATOM     22  O   UNL     1       2.677   6.149  -6.965  0.00  0.00    -0.327 OA
BRANCH  22  23
ATOM     23  C   UNL     1       1.907   6.592  -8.144  0.00  0.00    +0.268 C 
ATOM     24  C   UNL     1       2.664   5.563  -9.317  0.00  0.00    +0.226 C 
ATOM     25  O   UNL     1       1.850   4.339  -9.145  0.00  0.00    -0.216 OA
ATOM     26  C   UNL     1       1.708   6.374 -10.494  0.00  0.00    +0.138 C 
ATOM     27  C   UNL     1       0.278   5.669 -10.226  0.00  0.00    +0.171 C 
ATOM     28  O   UNL     1       0.200   4.430 -10.747  0.00  0.00    -0.222 OA
ATOM     29  C   UNL     1      -0.539   6.571 -11.170  0.00  0.00    +0.037 C 
ATOM     30  C   UNL     1      -0.174   5.872  -8.858  0.00  0.00    +0.176 C 
ATOM     31  O   UNL     1       0.742   5.647  -7.848  0.00  0.00    -0.326 OA
BRANCH  26  32
ATOM     32  N   UNL     1       2.199   5.412 -11.626  0.00  0.00    -0.213 NA
ATOM     33  C   UNL     1       2.486   6.498 -12.575  0.00  0.00    +0.108 C 
ENDBRANCH  26  32
ENDBRANCH  22  23
ENDBRANCH   4  22
TORSDOF 7
ENDMDL
MODEL 5
REMARK VINA RESULT:      -7.8      2.831      9.589
REMARK  Name = 
REMARK  7 active torsions:
REMARK  status: ('A' for Active; 'I' for Inactive)
REMARK    1  A    between atoms: N_2  and  C_3
REMARK    2  A    between atoms: C_3  and  C_5
REMARK    3  A    between atoms: C_10  and  O_11
REMARK    4  A    between atoms: O_11  and  C_12
REMARK    5  A    between atoms: C_18  and  O_19
REMARK    6  A    between atoms: O_19  and  C_20
REMARK    7  A    between atoms: C_26  and  N_27
REMARK                            x       y       z     vdW  Elec       q    Type
REMARK                         _______ _______ _______ _____ _____    ______ ____
ROOT
ATOM      1  C   UNL     1       3.421   6.008  -9.366  0.00  0.00    +0.168 C 
ATOM      2  C   UNL     1       2.252   4.966  -8.708  0.00  0.00    +0.209 C 
ATOM      3  O   UNL     1       3.007   4.076  -7.808  0.00  0.00    -0.218 OA
ATOM      4  C   UNL     1       1.695   6.102  -7.518  0.00  0.00    +0.168 C 
ATOM      5  C   UNL     1       3.127   7.027  -7.480  0.00  0.00    +0.123 C 
ATOM      6  N   UNL     1       2.802   7.655  -6.094  0.00  0.00    -0.130 NA
ATOM      7  C   UNL     1       4.201   5.877  -7.075  0.00  0.00    +0.043 C 
ATOM      8  C   UNL     1       4.864   5.642  -8.540  0.00  0.00    +0.123 C 
ATOM      9  N   UNL     1       4.854   4.086  -8.652  0.00  0.00    -0.130 NA
ENDROOT
BRANCH   1  10
ATOM     10  O   UNL     1       3.717   5.130 -10.562  0.00  0.00    -0.328 OA
BRANCH  10  13
ATOM     11  C   UNL     1       2.466   6.280 -13.544  0.00  0.00    +0.134 C 
ATOM     12  O   UNL     1       2.236   5.567 -12.238  0.00  0.00    -0.331 OA
ATOM     13  C   UNL     1       3.349   6.289 -11.483  0.00  0.00    +0.253 C 
ATOM     14  C   UNL     1       4.555   6.054 -12.717  0.00  0.00    +0.148 C 
ATOM     15  N   UNL     1       5.631   5.325 -11.850  0.00  0.00    -0.128 NA
ATOM     16  C   UNL     1       4.073   4.623 -13.297  0.00  0.00    +0.027 C 
ATOM     17  C   UNL     1       2.936   4.892 -14.288  0.00  0.00    +0.033 C 
BRANCH  11  18
ATOM     18  C   UNL     1       0.862   6.188 -14.134  0.00  0.00    +0.100 C 
ATOM     19  C   UNL     1       0.286   7.512 -13.380  0.00  0.00    +0.021 C 
BRANCH  18  21
ATOM     20  C   UNL     1       0.457   7.174 -16.031  0.00  0.00    +0.107 C 
ATOM     21  N   UNL     1       1.257   6.929 -15.450  0.00  0.00    -0.215 NA
ENDBRANCH  18  21
ENDBRANCH  11  18
ENDBRANCH  10  13
ENDBRANCH   1  10
BRANCH   4  22
ATOM     22  O   UNL     1       1.729   5.237  -6.333  0.00  0.00    -0.327 OA
BRANCH  22  23
ATOM     23  C   UNL     1       0.477   4.927  -5.614  0.00  0.00    +0.268 C 
ATOM     24  C   UNL     1       0.674   6.052  -4.310  0.00  0.00    +0.226 C 
ATOM     25  O   UNL     1       0.108   7.269  -4.935  0.00  0.00    -0.216 OA
ATOM     26  C   UNL     1      -0.766   5.381  -3.650  0.00  0.00    +0.138 C 
ATOM     27  C   UNL     1      -1.865   6.083  -4.606  0.00  0.00    +0.171 C 
ATOM     28  O   UNL     1      -2.095   7.369  -4.279  0.00  0.00    -0.222 OA
ATOM     29  C   UNL     1      -3.080   5.295  -4.080  0.00  0.00    +0.037 C 
ATOM     30  C   UNL     1      -1.649   5.755  -6.006  0.00  0.00    +0.176 C 
ATOM     31  O   UNL     1      -0.359   5.862  -6.491  0.00  0.00    -0.326 OA
BRANCH  26  32
ATOM     32  N   UNL     1      -0.791   6.440  -2.499  0.00  0.00    -0.213 NA
ATOM     33  C   UNL     1      -0.681   5.439  -1.427  0.00  0.00    +0.108 C 
ENDBRANCH  26  32
ENDBRANCH  22  23
ENDBRANCH   4  22
TORSDOF 7
ENDMDL
MODEL 6
REMARK VINA RESULT:      -7.8      2.130      8.963
REMARK  Name = 
REMARK  7 active torsions:
REMARK  status: ('A' for Active; 'I' for Inactive)
REMARK    1  A    between atoms: N_2  and  C_3
REMARK    2  A    between atoms: C_3  and  C_5
REMARK    3  A    between atoms: C_10  and  O_11
REMARK    4  A    between atoms: O_11  and  C_12
REMARK    5  A    between atoms: C_18  and  O_19
REMARK    6  A    between atoms: O_19  and  C_20
REMARK    7  A    between atoms: C_26  and  N_27
REMARK                            x       y       z     vdW  Elec       q    Type
REMARK                         _______ _______ _______ _____ _____    ______ ____
ROOT
ATOM      1  C   UNL     1       2.728   5.689  -6.810  0.00  0.00    +0.168 C 
ATOM      2  C   UNL     1       2.177   6.749  -5.602  0.00  0.00    +0.209 C 
ATOM      3  O   UNL     1       1.359   5.909  -4.710  0.00  0.00    -0.218 OA
ATOM      4  C   UNL     1       3.654   6.711  -4.688  0.00  0.00    +0.168 C 
ATOM      5  C   UNL     1       4.189   5.207  -5.287  0.00  0.00    +0.123 C 
ATOM      6  N   UNL     1       5.174   4.976  -4.106  0.00  0.00    -0.130 NA
ATOM      7  C   UNL     1       2.935   4.266  -4.859  0.00  0.00    +0.043 C 
ATOM      8  C   UNL     1       2.222   4.141  -6.313  0.00  0.00    +0.123 C 
ATOM      9  N   UNL     1       0.731   4.442  -5.966  0.00  0.00    -0.130 NA
ENDROOT
BRANCH   1  10
ATOM     10  O   UNL     1       1.556   5.930  -7.736  0.00  0.00    -0.328 OA
BRANCH  10  13
ATOM     11  C   UNL     1       2.912   5.664 -10.879  0.00  0.00    +0.134 C 
ATOM     12  O   UNL     1       2.960   6.267  -9.500  0.00  0.00    -0.331 OA
ATOM     13  C   UNL     1       2.257   5.101  -8.809  0.00  0.00    +0.253 C 
ATOM     14  C   UNL     1       0.959   4.994  -9.965  0.00  0.00    +0.148 C 
ATOM     15  N   UNL     1      -0.241   5.164  -8.979  0.00  0.00    -0.128 NA
ATOM     16  C   UNL     1       0.828   6.554 -10.371  0.00  0.00    +0.027 C 
ATOM     17  C   UNL     1       1.903   6.842 -11.423  0.00  0.00    +0.033 C 
BRANCH  11  18
ATOM     18  C   UNL     1       4.315   6.419 -11.501  0.00  0.00    +0.100 C 
ATOM     19  C   UNL     1       5.409   5.557 -10.656  0.00  0.00    +0.021 C 
BRANCH  18  21
ATOM     20  C   UNL     1       5.235   5.399 -13.189  0.00  0.00    +0.107 C 
ATOM     21  N   UNL     1       4.320   5.479 -12.749  0.00  0.00    -0.215 NA
ENDBRANCH  18  21
ENDBRANCH  11  18
ENDBRANCH  10  13
ENDBRANCH   1  10
BRANCH   4  22
ATOM     22  O   UNL     1       3.098   6.452  -3.354  0.00  0.00    -0.327 OA
BRANCH  22  23
ATOM     23  C   UNL     1       3.284   7.444  -2.277  0.00  0.00    +0.268 C 
ATOM     24  C   UNL     1       2.215   6.727  -1.115  0.00  0.00    +0.226 C 
ATOM     25  O   UNL     1       3.137   5.753  -0.487  0.00  0.00    -0.216 OA
ATOM     26  C   UNL     1       2.539   8.097  -0.126  0.00  0.00    +0.138 C 
ATOM     27  C   UNL     1       4.013   7.710   0.413  0.00  0.00    +0.171 C 
ATOM     28  O   UNL     1       3.987   6.782   1.388  0.00  0.00    -0.222 OA
ATOM     29  C   UNL     1       4.295   9.050   1.120  0.00  0.00    +0.037 C 
ATOM     30  C   UNL     1       4.957   7.536  -0.680  0.00  0.00    +0.176 C 
ATOM     31  O   UNL     1       4.551   6.765  -1.752  0.00  0.00    -0.326 OA
BRANCH  26  32
ATOM     32  N   UNL     1       1.723   7.492   1.064  0.00  0.00    -0.213 NA
ATOM     33  C   UNL     1       0.793   8.629   1.148  0.00  0.00    +0.108 C 
ENDBRANCH  26  32
ENDBRANCH  22  23
ENDBRANCH   4  22
TORSDOF 7
ENDMDL
MODEL 7
REMARK VINA RESULT:      -7.5      3.438      5.224
REMARK  Name = 
REMARK  7 active torsions:
REMARK  status: ('A' for Active; 'I' for Inactive)
REMARK    1  A    between atoms: N_2  and  C_3
REMARK    2  A    between atoms: C_3  and  C_5
REMARK    3  A    between atoms: C_10  and  O_11
REMARK    4  A    between atoms: O_11  and  C_12
REMARK    5  A    between atoms: C_18  and  O_19
REMARK    6  A    between atoms: O_19  and  C_20
REMARK    7  A    between atoms: C_26  and  N_27
REMARK                            x       y       z     vdW  Elec       q    Type
REMARK                         _______ _______ _______ _____ _____    ______ ____
ROOT
ATOM      1  C   UNL     1      -1.650   7.322  -1.524  0.00  0.00    +0.168 C 
ATOM      2  C   UNL     1      -0.316   6.372  -1.976  0.00  0.00    +0.209 C 
ATOM      3  O   UNL     1      -0.896   5.083  -2.389  0.00  0.00    -0.218 OA
ATOM      4  C   UNL     1      -0.155   7.084  -3.552  0.00  0.00    +0.168 C 
ATOM      5  C   UNL     1      -1.770   7.621  -3.664  0.00  0.00    +0.123 C 
ATOM      6  N   UNL     1      -1.722   7.753  -5.213  0.00  0.00    -0.130 NA
ATOM      7  C   UNL     1      -2.554   6.210  -3.478  0.00  0.00    +0.043 C 
ATOM      8  C   UNL     1      -3.019   6.396  -1.933  0.00  0.00    +0.123 C 
ATOM      9  N   UNL     1      -2.614   5.025  -1.308  0.00  0.00    -0.130 NA
ENDROOT
BRANCH   1  10
ATOM     10  O   UNL     1      -1.622   6.899  -0.072  0.00  0.00    -0.328 OA
BRANCH  10  13
ATOM     11  C   UNL     1       0.201   9.037   1.902  0.00  0.00    +0.134 C 
ATOM     12  O   UNL     1       0.173   7.961   0.849  0.00  0.00    -0.331 OA
ATOM     13  C   UNL     1      -1.212   8.317   0.315  0.00  0.00    +0.253 C 
ATOM     14  C   UNL     1      -1.967   8.404   1.882  0.00  0.00    +0.148 C 
ATOM     15  N   UNL     1      -3.103   7.359   1.647  0.00  0.00    -0.128 NA
ATOM     16  C   UNL     1      -1.108   7.275   2.659  0.00  0.00    +0.027 C 
ATOM     17  C   UNL     1       0.198   7.932   3.117  0.00  0.00    +0.033 C 
BRANCH  11  18
ATOM     18  C   UNL     1       1.896   9.257   1.951  0.00  0.00    +0.100 C 
ATOM     19  C   UNL     1       2.023  10.206   0.633  0.00  0.00    +0.021 C 
BRANCH  18  21
ATOM     20  C   UNL     1       2.641  10.901   3.167  0.00  0.00    +0.107 C 
ATOM     21  N   UNL     1       1.758  10.435   2.967  0.00  0.00    -0.215 NA
ENDBRANCH  18  21
ENDBRANCH  11  18
ENDBRANCH  10  13
ENDBRANCH   1  10
BRANCH   4  22
ATOM     22  O   UNL     1      -0.068   5.860  -4.355  0.00  0.00    -0.327 OA
BRANCH  22  23
ATOM     23  C   UNL     1       1.230   5.444  -4.922  0.00  0.00    +0.268 C 
ATOM     24  C   UNL     1       0.786   5.514  -6.597  0.00  0.00    +0.226 C 
ATOM     25  O   UNL     1       1.036   6.948  -6.867  0.00  0.00    -0.216 OA
ATOM     26  C   UNL     1       2.352   4.888  -6.932  0.00  0.00    +0.138 C 
ATOM     27  C   UNL     1       3.240   6.222  -6.711  0.00  0.00    +0.171 C 
ATOM     28  O   UNL     1       3.159   7.080  -7.744  0.00  0.00    -0.222 OA
ATOM     29  C   UNL     1       4.614   5.539  -6.841  0.00  0.00    +0.037 C 
ATOM     30  C   UNL     1       3.091   6.749  -5.362  0.00  0.00    +0.176 C 
ATOM     31  O   UNL     1       1.808   6.860  -4.863  0.00  0.00    -0.326 OA
BRANCH  26  32
ATOM     32  N   UNL     1       2.137   5.041  -8.474  0.00  0.00    -0.213 NA
ATOM     33  C   UNL     1       2.606   3.682  -8.785  0.00  0.00    +0.108 C 
ENDBRANCH  26  32
ENDBRANCH  22  23
ENDBRANCH   4  22
TORSDOF 7
ENDMDL
MODEL 8
REMARK VINA RESULT:      -7.4      2.448      5.023
REMARK  Name = 
REMARK  7 active torsions:
REMARK  status: ('A' for Active; 'I' for Inactive)
REMARK    1  A    between atoms: N_2  and  C_3
REMARK    2  A    between atoms: C_3  and  C_5
REMARK    3  A    between atoms: C_10  and  O_11
REMARK    4  A    between atoms: O_11  and  C_12
REMARK    5  A    between atoms: C_18  and  O_19
REMARK    6  A    between atoms: O_19  and  C_20
REMARK    7  A    between atoms: C_26  and  N_27
REMARK                            x       y       z     vdW  Elec       q    Type
REMARK                         _______ _______ _______ _____ _____    ______ ____
ROOT
ATOM      1  C   UNL     1       2.481   6.114  -1.956  0.00  0.00    +0.168 C 
ATOM      2  C   UNL     1       2.092   6.973  -3.369  0.00  0.00    +0.209 C 
ATOM      3  O   UNL     1       3.237   7.873  -3.589  0.00  0.00    -0.218 OA
ATOM      4  C   UNL     1       2.569   5.701  -4.451  0.00  0.00    +0.168 C 
ATOM      5  C   UNL     1       3.633   4.936  -3.359  0.00  0.00    +0.123 C 
ATOM      6  N   UNL     1       4.398   4.180  -4.482  0.00  0.00    -0.130 NA
ATOM      7  C   UNL     1       4.648   6.165  -3.041  0.00  0.00    +0.043 C 
ATOM      8  C   UNL     1       4.076   6.575  -1.577  0.00  0.00    +0.123 C 
ATOM      9  N   UNL     1       3.948   8.125  -1.704  0.00  0.00    -0.130 NA
ENDROOT
BRANCH   1  10
ATOM     10  O   UNL     1       1.823   7.104  -1.020  0.00  0.00    -0.328 OA
BRANCH  10  13
ATOM     11  C   UNL     1      -1.549   6.530  -0.720  0.00  0.00    +0.134 C 
ATOM     12  O   UNL     1      -0.389   6.990  -1.562  0.00  0.00    -0.331 OA
ATOM     13  C   UNL     1       0.656   6.136  -0.847  0.00  0.00    +0.253 C 
ATOM     14  C   UNL     1       0.157   6.590   0.758  0.00  0.00    +0.148 C 
ATOM     15  N   UNL     1       1.524   7.142   1.276  0.00  0.00    -0.128 NA
ATOM     16  C   UNL     1      -0.330   8.106   0.472  0.00  0.00    +0.027 C 
ATOM     17  C   UNL     1      -1.756   8.030  -0.081  0.00  0.00    +0.033 C 
BRANCH  11  18
ATOM     18  C   UNL     1      -2.773   6.736  -1.897  0.00  0.00    +0.100 C 
ATOM     19  C   UNL     1      -1.801   7.117  -3.147  0.00  0.00    +0.021 C 
BRANCH  18  21
ATOM     20  C   UNL     1      -2.954   4.989  -3.180  0.00  0.00    +0.107 C 
ATOM     21  N   UNL     1      -2.805   5.204  -2.196  0.00  0.00    -0.215 NA
ENDBRANCH  18  21
ENDBRANCH  11  18
ENDBRANCH  10  13
ENDBRANCH   1  10
BRANCH   4  22
ATOM     22  O   UNL     1       3.406   6.477  -5.372  0.00  0.00    -0.327 OA
BRANCH  22  23
ATOM     23  C   UNL     1       2.881   6.857  -6.699  0.00  0.00    +0.268 C 
ATOM     24  C   UNL     1       4.005   5.953  -7.661  0.00  0.00    +0.226 C 
ATOM     25  O   UNL     1       3.326   4.637  -7.679  0.00  0.00    -0.216 OA
ATOM     26  C   UNL     1       3.256   6.675  -9.030  0.00  0.00    +0.138 C 
ATOM     27  C   UNL     1       1.897   5.801  -9.098  0.00  0.00    +0.171 C 
ATOM     28  O   UNL     1       2.090   4.575  -9.619  0.00  0.00    -0.222 OA
ATOM     29  C   UNL     1       1.217   6.624 -10.208  0.00  0.00    +0.037 C 
ATOM     30  C   UNL     1       1.122   5.916  -7.872  0.00  0.00    +0.176 C 
ATOM     31  O   UNL     1       1.800   5.774  -6.677  0.00  0.00    -0.326 OA
BRANCH  26  32
ATOM     32  N   UNL     1       4.105   5.806 -10.015  0.00  0.00    -0.213 NA
ATOM     33  C   UNL     1       4.681   6.964 -10.714  0.00  0.00    +0.108 C 
ENDBRANCH  26  32
ENDBRANCH  22  23
ENDBRANCH   4  22
TORSDOF 7
ENDMDL
MODEL 9
REMARK VINA RESULT:      -7.0      2.319      8.989
REMARK  Name = 
REMARK  7 active torsions:
REMARK  status: ('A' for Active; 'I' for Inactive)
REMARK    1  A    between atoms: N_2  and  C_3
REMARK    2  A    between atoms: C_3  and  C_5
REMARK    3  A    between atoms: C_10  and  O_11
REMARK    4  A    between atoms: O_11  and  C_12
REMARK    5  A    between atoms: C_18  and  O_19
REMARK    6  A    between atoms: O_19  and  C_20
REMARK    7  A    between atoms: C_26  and  N_27
REMARK                            x       y       z     vdW  Elec       q    Type
REMARK                         _______ _______ _______ _____ _____    ______ ____
ROOT
ATOM      1  C   UNL     1       3.274   5.739  -8.057  0.00  0.00    +0.168 C 
ATOM      2  C   UNL     1       1.919   6.538  -7.414  0.00  0.00    +0.209 C 
ATOM      3  O   UNL     1       0.843   5.533  -7.443  0.00  0.00    -0.218 OA
ATOM      4  C   UNL     1       2.400   6.334  -5.758  0.00  0.00    +0.168 C 
ATOM      5  C   UNL     1       3.400   4.980  -6.034  0.00  0.00    +0.123 C 
ATOM      6  N   UNL     1       3.369   4.531  -4.546  0.00  0.00    -0.130 NA
ATOM      7  C   UNL     1       2.326   3.964  -6.707  0.00  0.00    +0.043 C 
ATOM      8  C   UNL     1       2.786   4.120  -8.257  0.00  0.00    +0.123 C 
ATOM      9  N   UNL     1       1.420   4.336  -8.978  0.00  0.00    -0.130 NA
ENDROOT
BRANCH   1  10
ATOM     10  O   UNL     1       2.997   6.148  -9.487  0.00  0.00    -0.328 OA
BRANCH  10  13
ATOM     11  C   UNL     1       6.039   5.797 -11.039  0.00  0.00    +0.134 C 
ATOM     12  O   UNL     1       5.231   6.347  -9.893  0.00  0.00    -0.331 OA
ATOM     13  C   UNL     1       4.154   5.265  -9.945  0.00  0.00    +0.253 C 
ATOM     14  C   UNL     1       3.913   5.366 -11.666  0.00  0.00    +0.148 C 
ATOM     15  N   UNL     1       2.380   5.665 -11.666  0.00  0.00    -0.128 NA
ATOM     16  C   UNL     1       4.206   6.940 -11.890  0.00  0.00    +0.027 C 
ATOM     17  C   UNL     1       5.726   7.114 -11.970  0.00  0.00    +0.033 C 
BRANCH  11  18
ATOM     18  C   UNL     1       7.567   6.376 -10.531  0.00  0.00    +0.100 C 
ATOM     19  C   UNL     1       7.729   5.420  -9.222  0.00  0.00    +0.021 C 
BRANCH  18  21
ATOM     20  C   UNL     1       9.025   5.871 -12.065  0.00  0.00    +0.107 C 
ATOM     21  N   UNL     1       8.306   5.410 -11.510  0.00  0.00    -0.215 NA
ENDBRANCH  18  21
ENDBRANCH  11  18
ENDBRANCH  10  13
ENDBRANCH   1  10
BRANCH   4  22
ATOM     22  O   UNL     1       1.142   5.815  -5.210  0.00  0.00    -0.327 OA
BRANCH  22  23
ATOM     23  C   UNL     1       0.431   6.572  -4.160  0.00  0.00    +0.268 C 
ATOM     24  C   UNL     1      -0.856   5.442  -3.891  0.00  0.00    +0.226 C 
ATOM     25  O   UNL     1      -0.205   4.541  -2.913  0.00  0.00    -0.216 OA
ATOM     26  C   UNL     1      -1.512   6.605  -2.807  0.00  0.00    +0.138 C 
ATOM     27  C   UNL     1      -0.534   6.388  -1.538  0.00  0.00    +0.171 C 
ATOM     28  O   UNL     1      -0.836   5.285  -0.829  0.00  0.00    -0.222 OA
ATOM     29  C   UNL     1      -1.060   7.575  -0.709  0.00  0.00    +0.037 C 
ATOM     30  C   UNL     1       0.859   6.625  -1.886  0.00  0.00    +0.176 C 
ATOM     31  O   UNL     1       1.332   6.039  -3.044  0.00  0.00    -0.326 OA
BRANCH  26  32
ATOM     32  N   UNL     1      -2.645   5.623  -2.361  0.00  0.00    -0.213 NA
ATOM     33  C   UNL     1      -3.733   6.560  -2.678  0.00  0.00    +0.108 C 
ENDBRANCH  26  32
ENDBRANCH  22  23
ENDBRANCH   4  22
TORSDOF 7
ENDMDL
