MODEL 1
REMARK VINA RESULT:      -9.2      0.000      0.000
REMARK  Name = 
REMARK  0 active torsions:
REMARK  status: ('A' for Active; 'I' for Inactive)
REMARK                            x       y       z     vdW  Elec       q    Type
REMARK                         _______ _______ _______ _____ _____    ______ ____
ROOT
ATOM      1  C   UNL     1       2.266   5.358  -4.606  0.00  0.00    +0.090 C 
ATOM      2  N   UNL     1       1.554   5.171  -5.832  0.00  0.00    -0.265 NA
ATOM      3  C   UNL     1       1.264   6.336  -6.573  0.00  0.00    +0.124 C 
ATOM      4  C   UNL     1       2.064   6.557  -7.813  0.00  0.00    +0.220 C 
ATOM      5  N   UNL     1       2.039   5.318  -8.585  0.00  0.00    -0.188 N 
ATOM      6  C   UNL     1       2.511   5.433  -9.933  0.00  0.00    +0.325 C 
ATOM      7  C   UNL     1       1.623   6.150 -10.854  0.00  0.00    +0.097 A 
ATOM      8  C   UNL     1       1.790   6.292 -12.227  0.00  0.00    +0.078 A 
ATOM      9  C   UNL     1       0.975   7.151 -12.953  0.00  0.00    +0.017 A 
ATOM     10  C   UNL     1      -0.158   7.593 -12.306  0.00  0.00    +0.001 A 
ATOM     11  C   UNL     1      -0.585   6.972 -11.144  0.00  0.00    +0.000 A 
ATOM     12  N   UNL     1       2.887   5.811 -13.012  0.00  0.00    -0.208 NA
ATOM     13  C   UNL     1       4.155   5.412 -12.486  0.00  0.00    +0.113 A 
ATOM     14  C   UNL     1       4.627   5.423 -11.179  0.00  0.00    +0.209 A 
ATOM     15  C   UNL     1       5.975   5.559 -10.899  0.00  0.00    +0.059 A 
ATOM     16  C   UNL     1       6.848   5.746 -11.964  0.00  0.00    +0.061 A 
ATOM     17  C   UNL     1       6.432   5.226 -13.180  0.00  0.00    +0.013 A 
ATOM     18 CL   UNL     1       8.396   6.532 -11.754  0.00  0.00    -0.082 Cl
ATOM     19  C   UNL     1       5.082   5.103 -13.474  0.00  0.00    +0.021 A 
ATOM     20  C   UNL     1       0.369   6.390 -10.323  0.00  0.00    +0.009 A 
ATOM     21  N   UNL     1       3.810   5.449 -10.002  0.00  0.00    -0.039 NA
ATOM     22  C   UNL     1       2.491   4.132  -7.864  0.00  0.00    +0.220 C 
ATOM     23  C   UNL     1       1.820   3.976  -6.536  0.00  0.00    +0.124 C 
ENDROOT
TORSDOF 0
ENDMDL
MODEL 2
REMARK VINA RESULT:      -9.0      4.089      8.688
REMARK  Name = 
REMARK  0 active torsions:
REMARK  status: ('A' for Active; 'I' for Inactive)
REMARK                            x       y       z     vdW  Elec       q    Type
REMARK                         _______ _______ _______ _____ _____    ______ ____
ROOT
ATOM      1  C   UNL     1       1.802   5.372 -10.650  0.00  0.00    +0.090 C 
ATOM      2  N   UNL     1       2.646   5.284  -9.499  0.00  0.00    -0.265 NA
ATOM      3  C   UNL     1       2.929   6.495  -8.833  0.00  0.00    +0.124 C 
ATOM      4  C   UNL     1       2.247   6.718  -7.527  0.00  0.00    +0.220 C 
ATOM      5  N   UNL     1       2.433   5.517  -6.717  0.00  0.00    -0.188 N 
ATOM      6  C   UNL     1       2.094   5.659  -5.332  0.00  0.00    +0.325 C 
ATOM      7  C   UNL     1       3.020   6.469  -4.535  0.00  0.00    +0.097 A 
ATOM      8  C   UNL     1       2.984   6.659  -3.158  0.00  0.00    +0.078 A 
ATOM      9  C   UNL     1       3.808   7.599  -2.552  0.00  0.00    +0.017 A 
ATOM     10  C   UNL     1       4.837   8.084  -3.329  0.00  0.00    +0.001 A 
ATOM     11  C   UNL     1       5.186   7.441  -4.506  0.00  0.00    +0.000 A 
ATOM     12  N   UNL     1       2.007   6.144  -2.247  0.00  0.00    -0.208 NA
ATOM     13  C   UNL     1       0.722   5.643  -2.622  0.00  0.00    +0.113 A 
ATOM     14  C   UNL     1       0.121   5.568  -3.874  0.00  0.00    +0.209 A 
ATOM     15  C   UNL     1      -1.256   5.606  -4.016  0.00  0.00    +0.059 A 
ATOM     16  C   UNL     1      -2.026   5.782  -2.874  0.00  0.00    +0.061 A 
ATOM     17  C   UNL     1      -1.455   5.342  -1.690  0.00  0.00    +0.013 A 
ATOM     18 CL   UNL     1      -3.637   6.459  -2.950  0.00  0.00    -0.082 Cl
ATOM     19  C   UNL     1      -0.077   5.318  -1.533  0.00  0.00    +0.021 A 
ATOM     20  C   UNL     1       4.195   6.766  -5.202  0.00  0.00    +0.009 A 
ATOM     21  N   UNL     1       0.810   5.596  -5.129  0.00  0.00    -0.039 NA
ATOM     22  C   UNL     1       1.992   4.275  -7.344  0.00  0.00    +0.220 C 
ATOM     23  C   UNL     1       2.533   4.105  -8.728  0.00  0.00    +0.124 C 
ENDROOT
TORSDOF 0
ENDMDL
MODEL 3
REMARK VINA RESULT:      -9.0      2.447      5.881
REMARK  Name = 
REMARK  0 active torsions:
REMARK  status: ('A' for Active; 'I' for Inactive)
REMARK                            x       y       z     vdW  Elec       q    Type
REMARK                         _______ _______ _______ _____ _____    ______ ____
ROOT
ATOM      1  C   UNL     1       8.342   6.063 -12.642  0.00  0.00    +0.090 C 
ATOM      2  N   UNL     1       6.975   6.470 -12.727  0.00  0.00    -0.265 NA
ATOM      3  C   UNL     1       6.014   5.437 -12.772  0.00  0.00    +0.124 C 
ATOM      4  C   UNL     1       5.208   5.218 -11.537  0.00  0.00    +0.220 C 
ATOM      5  N   UNL     1       4.693   6.515 -11.106  0.00  0.00    -0.188 N 
ATOM      6  C   UNL     1       3.667   6.460 -10.107  0.00  0.00    +0.325 C 
ATOM      7  C   UNL     1       2.362   5.975 -10.567  0.00  0.00    +0.097 A 
ATOM      8  C   UNL     1       1.182   5.941  -9.832  0.00  0.00    +0.078 A 
ATOM      9  C   UNL     1       0.061   5.286 -10.325  0.00  0.00    +0.017 A 
ATOM     10  C   UNL     1       0.098   4.958 -11.663  0.00  0.00    +0.001 A 
ATOM     11  C   UNL     1       1.051   5.523 -12.494  0.00  0.00    +0.000 A 
ATOM     12  N   UNL     1       1.013   6.326  -8.463  0.00  0.00    -0.208 NA
ATOM     13  C   UNL     1       2.076   6.479  -7.520  0.00  0.00    +0.113 A 
ATOM     14  C   UNL     1       3.443   6.273  -7.669  0.00  0.00    +0.209 A 
ATOM     15  C   UNL     1       4.240   5.911  -6.596  0.00  0.00    +0.059 A 
ATOM     16  C   UNL     1       3.625   5.699  -5.369  0.00  0.00    +0.061 A 
ATOM     17  C   UNL     1       2.441   6.388  -5.162  0.00  0.00    +0.013 A 
ATOM     18 CL   UNL     1       4.346   4.674  -4.148  0.00  0.00    -0.082 Cl
ATOM     19  C   UNL     1       1.629   6.739  -6.230  0.00  0.00    +0.021 A 
ATOM     20  C   UNL     1       2.274   5.875 -11.943  0.00  0.00    +0.009 A 
ATOM     21  N   UNL     1       4.149   6.257  -8.916  0.00  0.00    -0.039 NA
ATOM     22  C   UNL     1       5.706   7.546 -10.905  0.00  0.00    +0.220 C 
ATOM     23  C   UNL     1       6.636   7.673 -12.070  0.00  0.00    +0.124 C 
ENDROOT
TORSDOF 0
ENDMDL
MODEL 4
REMARK VINA RESULT:      -8.7      3.483      6.406
REMARK  Name = 
REMARK  0 active torsions:
REMARK  status: ('A' for Active; 'I' for Inactive)
REMARK                            x       y       z     vdW  Elec       q    Type
REMARK                         _______ _______ _______ _____ _____    ______ ____
ROOT
ATOM      1  C   UNL     1      -3.663   6.287  -2.625  0.00  0.00    +0.090 C 
ATOM      2  N   UNL     1      -2.296   6.707  -2.636  0.00  0.00    -0.265 NA
ATOM      3  C   UNL     1      -1.325   5.687  -2.555  0.00  0.00    +0.124 C 
ATOM      4  C   UNL     1      -0.574   5.375  -3.805  0.00  0.00    +0.220 C 
ATOM      5  N   UNL     1      -0.092   6.636  -4.360  0.00  0.00    -0.188 N 
ATOM      6  C   UNL     1       0.887   6.508  -5.399  0.00  0.00    +0.325 C 
ATOM      7  C   UNL     1       2.217   6.069  -4.963  0.00  0.00    +0.097 A 
ATOM      8  C   UNL     1       3.361   5.983  -5.747  0.00  0.00    +0.078 A 
ATOM      9  C   UNL     1       4.510   5.375  -5.257  0.00  0.00    +0.017 A 
ATOM     10  C   UNL     1       4.538   5.155  -3.897  0.00  0.00    +0.001 A 
ATOM     11  C   UNL     1       3.618   5.779  -3.069  0.00  0.00    +0.000 A 
ATOM     12  N   UNL     1       3.464   6.258  -7.149  0.00  0.00    -0.208 NA
ATOM     13  C   UNL     1       2.357   6.330  -8.050  0.00  0.00    +0.113 A 
ATOM     14  C   UNL     1       1.000   6.129  -7.822  0.00  0.00    +0.209 A 
ATOM     15  C   UNL     1       0.159   5.678  -8.824  0.00  0.00    +0.059 A 
ATOM     16  C   UNL     1       0.718   5.373 -10.059  0.00  0.00    +0.061 A 
ATOM     17  C   UNL     1       1.885   6.050 -10.374  0.00  0.00    +0.013 A 
ATOM     18 CL   UNL     1      -0.048   4.250 -11.159  0.00  0.00    -0.082 Cl
ATOM     19  C   UNL     1       2.742   6.489  -9.376  0.00  0.00    +0.021 A 
ATOM     20  C   UNL     1       2.368   6.079  -3.589  0.00  0.00    +0.009 A 
ATOM     21  N   UNL     1       0.353   6.208  -6.546  0.00  0.00    -0.039 NA
ATOM     22  C   UNL     1      -1.123   7.643  -4.595  0.00  0.00    +0.220 C 
ATOM     23  C   UNL     1      -2.000   7.857  -3.402  0.00  0.00    +0.124 C 
ENDROOT
TORSDOF 0
ENDMDL
MODEL 5
REMARK VINA RESULT:      -8.4      3.543      7.703
REMARK  Name = 
REMARK  0 active torsions:
REMARK  status: ('A' for Active; 'I' for Inactive)
REMARK                            x       y       z     vdW  Elec       q    Type
REMARK                         _______ _______ _______ _____ _____    ______ ____
ROOT
ATOM      1  C   UNL     1       4.065   5.084 -10.245  0.00  0.00    +0.090 C 
ATOM      2  N   UNL     1       2.920   5.707  -9.657  0.00  0.00    -0.265 NA
ATOM      3  C   UNL     1       1.909   4.844  -9.185  0.00  0.00    +0.124 C 
ATOM      4  C   UNL     1       1.793   4.694  -7.706  0.00  0.00    +0.220 C 
ATOM      5  N   UNL     1       1.777   6.033  -7.123  0.00  0.00    -0.188 N 
ATOM      6  C   UNL     1       1.384   6.091  -5.746  0.00  0.00    +0.325 C 
ATOM      7  C   UNL     1      -0.038   5.844  -5.484  0.00  0.00    +0.097 A 
ATOM      8  C   UNL     1      -0.689   5.961  -4.261  0.00  0.00    +0.078 A 
ATOM      9  C   UNL     1      -1.998   5.518  -4.112  0.00  0.00    +0.017 A 
ATOM     10  C   UNL     1      -2.680   5.257  -5.281  0.00  0.00    +0.001 A 
ATOM     11  C   UNL     1      -2.182   5.705  -6.494  0.00  0.00    +0.000 A 
ATOM     12  N   UNL     1      -0.097   6.297  -3.002  0.00  0.00    -0.208 NA
ATOM     13  C   UNL     1       1.302   6.231  -2.713  0.00  0.00    +0.113 A 
ATOM     14  C   UNL     1       2.363   5.819  -3.511  0.00  0.00    +0.209 A 
ATOM     15  C   UNL     1       3.513   5.280  -2.960  0.00  0.00    +0.059 A 
ATOM     16  C   UNL     1       3.559   5.107  -1.583  0.00  0.00    +0.061 A 
ATOM     17  C   UNL     1       2.761   5.965  -0.842  0.00  0.00    +0.013 A 
ATOM     18 CL   UNL     1       4.608   3.920  -0.843  0.00  0.00    -0.082 Cl
ATOM     19  C   UNL     1       1.597   6.494  -1.381  0.00  0.00    +0.021 A 
ATOM     20  C   UNL     1      -0.808   5.829  -6.632  0.00  0.00    +0.009 A 
ATOM     21  N   UNL     1       2.349   5.754  -4.942  0.00  0.00    -0.039 NA
ATOM     22  C   UNL     1       2.910   6.878  -7.485  0.00  0.00    +0.220 C 
ATOM     23  C   UNL     1       3.152   6.914  -8.961  0.00  0.00    +0.124 C 
ENDROOT
TORSDOF 0
ENDMDL
MODEL 6
REMARK VINA RESULT:      -8.3      2.903      6.693
REMARK  Name = 
REMARK  0 active torsions:
REMARK  status: ('A' for Active; 'I' for Inactive)
REMARK                            x       y       z     vdW  Elec       q    Type
REMARK                         _______ _______ _______ _____ _____    ______ ____
ROOT
ATOM      1  C   UNL     1      -0.235   6.677 -15.340  0.00  0.00    +0.090 C 
ATOM      2  N   UNL     1       0.895   6.005 -14.776  0.00  0.00    -0.265 NA
ATOM      3  C   UNL     1       1.850   6.818 -14.130  0.00  0.00    +0.124 C 
ATOM      4  C   UNL     1       1.879   6.763 -12.640  0.00  0.00    +0.220 C 
ATOM      5  N   UNL     1       1.905   5.356 -12.247  0.00  0.00    -0.188 N 
ATOM      6  C   UNL     1       2.222   5.116 -10.871  0.00  0.00    +0.325 C 
ATOM      7  C   UNL     1       3.618   5.358 -10.492  0.00  0.00    +0.097 A 
ATOM      8  C   UNL     1       4.203   5.087  -9.261  0.00  0.00    +0.078 A 
ATOM      9  C   UNL     1       5.487   5.536  -8.974  0.00  0.00    +0.017 A 
ATOM     10  C   UNL     1       6.224   5.974 -10.053  0.00  0.00    +0.001 A 
ATOM     11  C   UNL     1       5.809   5.689 -11.344  0.00  0.00    +0.000 A 
ATOM     12  N   UNL     1       3.552   4.564  -8.098  0.00  0.00    -0.208 NA
ATOM     13  C   UNL     1       2.139   4.555  -7.887  0.00  0.00    +0.113 A 
ATOM     14  C   UNL     1       1.111   5.050  -8.682  0.00  0.00    +0.209 A 
ATOM     15  C   UNL     1      -0.085   5.478  -8.132  0.00  0.00    +0.059 A 
ATOM     16  C   UNL     1      -0.213   5.456  -6.749  0.00  0.00    +0.061 A 
ATOM     17  C   UNL     1       0.569   4.523  -6.088  0.00  0.00    +0.013 A 
ATOM     18 CL   UNL     1      -1.340   6.503  -5.917  0.00  0.00    -0.082 Cl
ATOM     19  C   UNL     1       1.778   4.102  -6.624  0.00  0.00    +0.021 A 
ATOM     20  C   UNL     1       4.450   5.552 -11.580  0.00  0.00    +0.009 A 
ATOM     21  N   UNL     1       1.203   5.314 -10.087  0.00  0.00    -0.039 NA
ATOM     22  C   UNL     1       0.822   4.543 -12.790  0.00  0.00    +0.220 C 
ATOM     23  C   UNL     1       0.664   4.707 -14.269  0.00  0.00    +0.124 C 
ENDROOT
TORSDOF 0
ENDMDL
MODEL 7
REMARK VINA RESULT:      -8.2      2.189      3.445
REMARK  Name = 
REMARK  0 active torsions:
REMARK  status: ('A' for Active; 'I' for Inactive)
REMARK                            x       y       z     vdW  Elec       q    Type
REMARK                         _______ _______ _______ _____ _____    ______ ____
ROOT
ATOM      1  C   UNL     1       4.871   7.140  -2.161  0.00  0.00    +0.090 C 
ATOM      2  N   UNL     1       3.964   6.283  -2.859  0.00  0.00    -0.265 NA
ATOM      3  C   UNL     1       2.875   6.911  -3.500  0.00  0.00    +0.124 C 
ATOM      4  C   UNL     1       2.933   7.001  -4.987  0.00  0.00    +0.220 C 
ATOM      5  N   UNL     1       3.264   5.674  -5.500  0.00  0.00    -0.188 N 
ATOM      6  C   UNL     1       3.081   5.506  -6.912  0.00  0.00    +0.325 C 
ATOM      7  C   UNL     1       1.688   5.452  -7.366  0.00  0.00    +0.097 A 
ATOM      8  C   UNL     1       1.245   5.177  -8.655  0.00  0.00    +0.078 A 
ATOM      9  C   UNL     1      -0.093   5.340  -8.993  0.00  0.00    +0.017 A 
ATOM     10  C   UNL     1      -0.965   5.483  -7.936  0.00  0.00    +0.001 A 
ATOM     11  C   UNL     1      -0.558   5.173  -6.648  0.00  0.00    +0.000 A 
ATOM     12  N   UNL     1       2.058   4.940  -9.810  0.00  0.00    -0.208 NA
ATOM     13  C   UNL     1       3.441   5.284  -9.919  0.00  0.00    +0.113 A 
ATOM     14  C   UNL     1       4.281   5.922  -9.013  0.00  0.00    +0.209 A 
ATOM     15  C   UNL     1       5.365   6.671  -9.437  0.00  0.00    +0.059 A 
ATOM     16  C   UNL     1       5.561   6.820 -10.804  0.00  0.00    +0.061 A 
ATOM     17  C   UNL     1       5.059   5.800 -11.598  0.00  0.00    +0.013 A 
ATOM     18 CL   UNL     1       6.444   8.179 -11.461  0.00  0.00    -0.082 Cl
ATOM     19  C   UNL     1       3.962   5.057 -11.187  0.00  0.00    +0.021 A 
ATOM     20  C   UNL     1       0.782   5.335  -6.328  0.00  0.00    +0.009 A 
ATOM     21  N   UNL     1       4.060   6.015  -7.600  0.00  0.00    -0.039 NA
ATOM     22  C   UNL     1       4.482   5.086  -4.954  0.00  0.00    +0.220 C 
ATOM     23  C   UNL     1       4.524   5.133  -3.459  0.00  0.00    +0.124 C 
ENDROOT
TORSDOF 0
ENDMDL
MODEL 8
REMARK VINA RESULT:      -8.1      2.508      4.418
REMARK  Name = 
REMARK  0 active torsions:
REMARK  status: ('A' for Active; 'I' for Inactive)
REMARK                            x       y       z     vdW  Elec       q    Type
REMARK                         _______ _______ _______ _____ _____    ______ ____
ROOT
ATOM      1  C   UNL     1       1.061   5.015  -5.199  0.00  0.00    +0.090 C 
ATOM      2  N   UNL     1       2.129   5.667  -5.889  0.00  0.00    -0.265 NA
ATOM      3  C   UNL     1       3.138   4.833  -6.416  0.00  0.00    +0.124 C 
ATOM      4  C   UNL     1       3.148   4.645  -7.895  0.00  0.00    +0.220 C 
ATOM      5  N   UNL     1       3.061   5.966  -8.512  0.00  0.00    -0.188 N 
ATOM      6  C   UNL     1       3.345   6.001  -9.916  0.00  0.00    +0.325 C 
ATOM      7  C   UNL     1       4.752   5.805 -10.281  0.00  0.00    +0.097 A 
ATOM      8  C   UNL     1       5.303   5.913 -11.553  0.00  0.00    +0.078 A 
ATOM      9  C   UNL     1       6.614   5.520 -11.791  0.00  0.00    +0.017 A 
ATOM     10  C   UNL     1       7.393   5.322 -10.672  0.00  0.00    +0.001 A 
ATOM     11  C   UNL     1       6.971   5.783  -9.436  0.00  0.00    +0.000 A 
ATOM     12  N   UNL     1       4.602   6.188 -12.770  0.00  0.00    -0.208 NA
ATOM     13  C   UNL     1       3.190   6.056 -12.948  0.00  0.00    +0.113 A 
ATOM     14  C   UNL     1       2.211   5.624 -12.060  0.00  0.00    +0.209 A 
ATOM     15  C   UNL     1       1.047   5.023 -12.506  0.00  0.00    +0.059 A 
ATOM     16  C   UNL     1       0.904   4.807 -13.871  0.00  0.00    +0.061 A 
ATOM     17  C   UNL     1       1.605   5.676 -14.694  0.00  0.00    +0.013 A 
ATOM     18 CL   UNL     1      -0.147   3.557 -14.497  0.00  0.00    -0.082 Cl
ATOM     19  C   UNL     1       2.782   6.268 -14.260  0.00  0.00    +0.021 A 
ATOM     20  C   UNL     1       5.607   5.855  -9.195  0.00  0.00    +0.009 A 
ATOM     21  N   UNL     1       2.337   5.601 -10.633  0.00  0.00    -0.039 NA
ATOM     22  C   UNL     1       1.924   6.774  -8.085  0.00  0.00    +0.220 C 
ATOM     23  C   UNL     1       1.793   6.843  -6.596  0.00  0.00    +0.124 C 
ENDROOT
TORSDOF 0
ENDMDL
MODEL 9
REMARK VINA RESULT:      -7.6      3.472      7.280
REMARK  Name = 
REMARK  0 active torsions:
REMARK  status: ('A' for Active; 'I' for Inactive)
REMARK                            x       y       z     vdW  Elec       q    Type
REMARK                         _______ _______ _______ _____ _____    ______ ____
ROOT
ATOM      1  C   UNL     1       0.164   6.538 -13.589  0.00  0.00    +0.090 C 
ATOM      2  N   UNL     1       1.032   5.761 -12.760  0.00  0.00    -0.265 NA
ATOM      3  C   UNL     1       2.027   6.469 -12.054  0.00  0.00    +0.124 C 
ATOM      4  C   UNL     1       1.820   6.634 -10.587  0.00  0.00    +0.220 C 
ATOM      5  N   UNL     1       1.494   5.322 -10.034  0.00  0.00    -0.188 N 
ATOM      6  C   UNL     1       1.544   5.236  -8.604  0.00  0.00    +0.325 C 
ATOM      7  C   UNL     1       2.887   5.268  -8.016  0.00  0.00    +0.097 A 
ATOM      8  C   UNL     1       3.212   5.081  -6.677  0.00  0.00    +0.078 A 
ATOM      9  C   UNL     1       4.503   5.321  -6.223  0.00  0.00    +0.017 A 
ATOM     10  C   UNL     1       5.468   5.447  -7.198  0.00  0.00    +0.001 A 
ATOM     11  C   UNL     1       5.201   5.053  -8.500  0.00  0.00    +0.000 A 
ATOM     12  N   UNL     1       2.299   4.869  -5.595  0.00  0.00    -0.208 NA
ATOM     13  C   UNL     1       0.900   5.155  -5.637  0.00  0.00    +0.113 A 
ATOM     14  C   UNL     1       0.128   5.707  -6.654  0.00  0.00    +0.209 A 
ATOM     15  C   UNL     1      -1.020   6.428  -6.378  0.00  0.00    +0.059 A 
ATOM     16  C   UNL     1      -1.356   6.638  -5.047  0.00  0.00    +0.061 A 
ATOM     17  C   UNL     1      -0.893   5.685  -4.152  0.00  0.00    +0.013 A 
ATOM     18 CL   UNL     1      -2.352   7.989  -4.555  0.00  0.00    -0.082 Cl
ATOM     19  C   UNL     1       0.267   4.972  -4.414  0.00  0.00    +0.021 A 
ATOM     20  C   UNL     1       3.894   5.138  -8.955  0.00  0.00    +0.009 A 
ATOM     21  N   UNL     1       0.483   5.736  -8.042  0.00  0.00    -0.039 NA
ATOM     22  C   UNL     1       0.359   4.652 -10.660  0.00  0.00    +0.220 C 
ATOM     23  C   UNL     1       0.462   4.619 -12.152  0.00  0.00    +0.124 C 
ENDROOT
TORSDOF 0
ENDMDL
