MODEL 1
REMARK VINA RESULT:      -5.3      0.000      0.000
REMARK  Name = 
REMARK  3 active torsions:
REMARK  status: ('A' for Active; 'I' for Inactive)
REMARK    1  A    between atoms: C_5  and  N_6
REMARK    2  A    between atoms: N_9  and  C_10
REMARK    3  A    between atoms: C_10  and  C_11
REMARK                            x       y       z     vdW  Elec       q    Type
REMARK                         _______ _______ _______ _____ _____    ______ ____
ROOT
ATOM      1  C   UNL     1       6.988   5.739  -9.253  0.00  0.00    +0.072 C 
ATOM      2  C   UNL     1       5.765   5.984  -9.981  0.00  0.00    +0.125 A 
ATOM      3  N   UNL     1       5.734   6.117 -11.325  0.00  0.00    -0.255 N 
ATOM      4  C   UNL     1       4.470   5.936 -11.780  0.00  0.00    +0.378 A 
ATOM      5  C   UNL     1       3.682   5.666 -10.669  0.00  0.00    +0.195 A 
ATOM      6  N   UNL     1       4.509   5.697  -9.606  0.00  0.00    -0.223 NA
ENDROOT
BRANCH   4   7
ATOM      7  N   UNL     1       4.119   5.571 -13.122  0.00  0.00    +0.101 N 
ATOM      8  O   UNL     1       4.486   4.299 -13.529  0.00  0.00    -0.575 OA
ATOM      9  O   UNL     1       3.060   5.995 -13.615  0.00  0.00    +0.043 OA
ENDBRANCH   4   7
BRANCH   3  10
ATOM     10  C   UNL     1       6.875   6.526 -12.142  0.00  0.00    +0.146 C 
BRANCH  10  11
ATOM     11  C   UNL     1       7.694   5.092 -12.162  0.00  0.00    +0.175 C 
ATOM     12  O   UNL     1       7.557   4.983 -13.672  0.00  0.00    -0.221 OA
ATOM     13  C   UNL     1       9.148   5.863 -12.290  0.00  0.00    +0.038 C 
ENDBRANCH  10  11
ENDBRANCH   3  10
TORSDOF 3
ENDMDL
MODEL 2
REMARK VINA RESULT:      -5.1      8.777     10.417
REMARK  Name = 
REMARK  3 active torsions:
REMARK  status: ('A' for Active; 'I' for Inactive)
REMARK    1  A    between atoms: C_5  and  N_6
REMARK    2  A    between atoms: N_9  and  C_10
REMARK    3  A    between atoms: C_10  and  C_11
REMARK                            x       y       z     vdW  Elec       q    Type
REMARK                         _______ _______ _______ _____ _____    ______ ____
ROOT
ATOM      1  C   UNL     1       2.055   5.270  -4.851  0.00  0.00    +0.072 C 
ATOM      2  C   UNL     1       1.104   5.658  -3.836  0.00  0.00    +0.125 A 
ATOM      3  N   UNL     1      -0.154   6.051  -4.132  0.00  0.00    -0.255 N 
ATOM      4  C   UNL     1      -0.937   5.968  -3.028  0.00  0.00    +0.378 A 
ATOM      5  C   UNL     1      -0.131   5.491  -2.003  0.00  0.00    +0.195 A 
ATOM      6  N   UNL     1       1.091   5.310  -2.540  0.00  0.00    -0.223 NA
ENDROOT
BRANCH   4   7
ATOM      7  N   UNL     1      -2.368   5.874  -3.035  0.00  0.00    +0.101 N 
ATOM      8  O   UNL     1      -2.904   4.627  -2.755  0.00  0.00    -0.575 OA
ATOM      9  O   UNL     1      -3.048   6.837  -2.643  0.00  0.00    +0.043 OA
ENDBRANCH   4   7
BRANCH   3  10
ATOM     10  C   UNL     1      -0.566   6.605  -5.419  0.00  0.00    +0.146 C 
BRANCH  10  11
ATOM     11  C   UNL     1      -1.289   5.261  -6.050  0.00  0.00    +0.175 C 
ATOM     12  O   UNL     1      -2.514   6.059  -6.467  0.00  0.00    -0.221 OA
ATOM     13  C   UNL     1      -0.565   5.493  -7.515  0.00  0.00    +0.038 C 
ENDBRANCH  10  11
ENDBRANCH   3  10
TORSDOF 3
ENDMDL
MODEL 3
REMARK VINA RESULT:      -5.0      5.408      7.224
REMARK  Name = 
REMARK  3 active torsions:
REMARK  status: ('A' for Active; 'I' for Inactive)
REMARK    1  A    between atoms: C_5  and  N_6
REMARK    2  A    between atoms: N_9  and  C_10
REMARK    3  A    between atoms: C_10  and  C_11
REMARK                            x       y       z     vdW  Elec       q    Type
REMARK                         _______ _______ _______ _____ _____    ______ ____
ROOT
ATOM      1  C   UNL     1       4.609   5.665  -4.492  0.00  0.00    +0.072 C 
ATOM      2  C   UNL     1       4.043   5.594  -5.819  0.00  0.00    +0.125 A 
ATOM      3  N   UNL     1       2.854   6.154  -6.133  0.00  0.00    -0.255 N 
ATOM      4  C   UNL     1       2.749   6.296  -7.477  0.00  0.00    +0.378 A 
ATOM      5  C   UNL     1       3.932   5.813  -8.022  0.00  0.00    +0.195 A 
ATOM      6  N   UNL     1       4.686   5.407  -6.982  0.00  0.00    -0.223 NA
ENDROOT
BRANCH   4   7
ATOM      7  N   UNL     1       1.872   7.214  -8.145  0.00  0.00    +0.101 N 
ATOM      8  O   UNL     1       2.116   8.561  -7.935  0.00  0.00    -0.575 OA
ATOM      9  O   UNL     1       1.431   6.930  -9.271  0.00  0.00    +0.043 OA
ENDBRANCH   4   7
BRANCH   3  10
ATOM     10  C   UNL     1       1.794   6.438  -5.169  0.00  0.00    +0.146 C 
BRANCH  10  11
ATOM     11  C   UNL     1       0.995   4.995  -5.243  0.00  0.00    +0.175 C 
ATOM     12  O   UNL     1       0.663   5.050  -3.760  0.00  0.00    -0.221 OA
ATOM     13  C   UNL     1      -0.422   5.738  -5.648  0.00  0.00    +0.038 C 
ENDBRANCH  10  11
ENDBRANCH   3  10
TORSDOF 3
ENDMDL
MODEL 4
REMARK VINA RESULT:      -5.0      7.523      9.167
REMARK  Name = 
REMARK  3 active torsions:
REMARK  status: ('A' for Active; 'I' for Inactive)
REMARK    1  A    between atoms: C_5  and  N_6
REMARK    2  A    between atoms: N_9  and  C_10
REMARK    3  A    between atoms: C_10  and  C_11
REMARK                            x       y       z     vdW  Elec       q    Type
REMARK                         _______ _______ _______ _____ _____    ______ ____
ROOT
ATOM      1  C   UNL     1       3.899   5.310  -5.718  0.00  0.00    +0.072 C 
ATOM      2  C   UNL     1       2.932   5.825  -4.778  0.00  0.00    +0.125 A 
ATOM      3  N   UNL     1       1.669   5.350  -4.702  0.00  0.00    -0.255 N 
ATOM      4  C   UNL     1       1.113   5.699  -3.516  0.00  0.00    +0.378 A 
ATOM      5  C   UNL     1       2.078   6.416  -2.819  0.00  0.00    +0.195 A 
ATOM      6  N   UNL     1       3.163   6.459  -3.618  0.00  0.00    -0.223 NA
ENDROOT
BRANCH   4   7
ATOM      7  N   UNL     1       0.002   5.038  -2.897  0.00  0.00    +0.101 N 
ATOM      8  O   UNL     1       0.217   4.532  -1.625  0.00  0.00    -0.575 OA
ATOM      9  O   UNL     1      -1.152   5.449  -3.109  0.00  0.00    +0.043 OA
ENDBRANCH   4   7
BRANCH   3  10
ATOM     10  C   UNL     1       0.973   4.673  -5.793  0.00  0.00    +0.146 C 
BRANCH  10  11
ATOM     11  C   UNL     1       0.339   6.000  -6.546  0.00  0.00    +0.175 C 
ATOM     12  O   UNL     1       0.802   5.505  -7.907  0.00  0.00    -0.221 OA
ATOM     13  C   UNL     1      -1.131   5.270  -6.714  0.00  0.00    +0.038 C 
ENDBRANCH  10  11
ENDBRANCH   3  10
TORSDOF 3
ENDMDL
MODEL 5
REMARK VINA RESULT:      -5.0      9.340     10.985
REMARK  Name = 
REMARK  3 active torsions:
REMARK  status: ('A' for Active; 'I' for Inactive)
REMARK    1  A    between atoms: C_5  and  N_6
REMARK    2  A    between atoms: N_9  and  C_10
REMARK    3  A    between atoms: C_10  and  C_11
REMARK                            x       y       z     vdW  Elec       q    Type
REMARK                         _______ _______ _______ _____ _____    ______ ____
ROOT
ATOM      1  C   UNL     1      -2.618   7.574  -5.212  0.00  0.00    +0.072 C 
ATOM      2  C   UNL     1      -2.384   6.547  -4.225  0.00  0.00    +0.125 A 
ATOM      3  N   UNL     1      -1.152   6.268  -3.745  0.00  0.00    -0.255 N 
ATOM      4  C   UNL     1      -1.253   5.579  -2.582  0.00  0.00    +0.378 A 
ATOM      5  C   UNL     1      -2.609   5.434  -2.321  0.00  0.00    +0.195 A 
ATOM      6  N   UNL     1      -3.253   6.042  -3.336  0.00  0.00    -0.223 NA
ENDROOT
BRANCH   4   7
ATOM      7  N   UNL     1      -0.229   5.491  -1.582  0.00  0.00    +0.101 N 
ATOM      8  O   UNL     1      -0.495   6.115  -0.373  0.00  0.00    -0.575 OA
ATOM      9  O   UNL     1       0.462   4.462  -1.500  0.00  0.00    +0.043 OA
ENDBRANCH   4   7
BRANCH   3  10
ATOM     10  C   UNL     1       0.095   6.555  -4.450  0.00  0.00    +0.146 C 
BRANCH  10  11
ATOM     11  C   UNL     1       0.249   5.133  -5.276  0.00  0.00    +0.175 C 
ATOM     12  O   UNL     1       0.467   5.866  -6.590  0.00  0.00    -0.221 OA
ATOM     13  C   UNL     1       1.870   5.071  -4.974  0.00  0.00    +0.038 C 
ENDBRANCH  10  11
ENDBRANCH   3  10
TORSDOF 3
ENDMDL
MODEL 6
REMARK VINA RESULT:      -5.0      8.568     10.360
REMARK  Name = 
REMARK  3 active torsions:
REMARK  status: ('A' for Active; 'I' for Inactive)
REMARK    1  A    between atoms: C_5  and  N_6
REMARK    2  A    between atoms: N_9  and  C_10
REMARK    3  A    between atoms: C_10  and  C_11
REMARK                            x       y       z     vdW  Elec       q    Type
REMARK                         _______ _______ _______ _____ _____    ______ ____
ROOT
ATOM      1  C   UNL     1      -2.770   6.843  -2.751  0.00  0.00    +0.072 C 
ATOM      2  C   UNL     1      -1.606   5.990  -2.788  0.00  0.00    +0.125 A 
ATOM      3  N   UNL     1      -0.664   6.089  -3.751  0.00  0.00    -0.255 N 
ATOM      4  C   UNL     1       0.479   5.483  -3.346  0.00  0.00    +0.378 A 
ATOM      5  C   UNL     1       0.240   4.995  -2.068  0.00  0.00    +0.195 A 
ATOM      6  N   UNL     1      -1.030   5.333  -1.770  0.00  0.00    -0.223 NA
ENDROOT
BRANCH   4   7
ATOM      7  N   UNL     1       1.787   5.747  -3.873  0.00  0.00    +0.101 N 
ATOM      8  O   UNL     1       2.156   5.022  -4.994  0.00  0.00    -0.575 OA
ATOM      9  O   UNL     1       2.250   6.899  -3.817  0.00  0.00    +0.043 OA
ENDBRANCH   4   7
BRANCH   3  10
ATOM     10  C   UNL     1      -0.895   6.652  -5.079  0.00  0.00    +0.146 C 
BRANCH  10  11
ATOM     11  C   UNL     1      -1.611   5.342  -5.785  0.00  0.00    +0.175 C 
ATOM     12  O   UNL     1      -2.681   6.213  -6.424  0.00  0.00    -0.221 OA
ATOM     13  C   UNL     1      -0.639   5.458  -7.114  0.00  0.00    +0.038 C 
ENDBRANCH  10  11
ENDBRANCH   3  10
TORSDOF 3
ENDMDL
MODEL 7
REMARK VINA RESULT:      -4.9      3.675      5.139
REMARK  Name = 
REMARK  3 active torsions:
REMARK  status: ('A' for Active; 'I' for Inactive)
REMARK    1  A    between atoms: C_5  and  N_6
REMARK    2  A    between atoms: N_9  and  C_10
REMARK    3  A    between atoms: C_10  and  C_11
REMARK                            x       y       z     vdW  Elec       q    Type
REMARK                         _______ _______ _______ _____ _____    ______ ____
ROOT
ATOM      1  C   UNL     1       0.874   5.483 -11.798  0.00  0.00    +0.072 C 
ATOM      2  C   UNL     1       1.087   5.456 -10.370  0.00  0.00    +0.125 A 
ATOM      3  N   UNL     1       2.111   6.105  -9.776  0.00  0.00    -0.255 N 
ATOM      4  C   UNL     1       1.860   6.255  -8.452  0.00  0.00    +0.378 A 
ATOM      5  C   UNL     1       0.617   5.681  -8.215  0.00  0.00    +0.195 A 
ATOM      6  N   UNL     1       0.185   5.219  -9.405  0.00  0.00    -0.223 NA
ENDROOT
BRANCH   4   7
ATOM      7  N   UNL     1       2.466   7.237  -7.601  0.00  0.00    +0.101 N 
ATOM      8  O   UNL     1       2.128   8.558  -7.848  0.00  0.00    -0.575 OA
ATOM      9  O   UNL     1       2.683   6.965  -6.408  0.00  0.00    +0.043 OA
ENDBRANCH   4   7
BRANCH   3  10
ATOM     10  C   UNL     1       3.357   6.472 -10.445  0.00  0.00    +0.146 C 
BRANCH  10  11
ATOM     11  C   UNL     1       4.188   5.063 -10.215  0.00  0.00    +0.175 C 
ATOM     12  O   UNL     1       4.778   5.129 -11.615  0.00  0.00    -0.221 OA
ATOM     13  C   UNL     1       5.478   5.865  -9.570  0.00  0.00    +0.038 C 
ENDBRANCH  10  11
ENDBRANCH   3  10
TORSDOF 3
ENDMDL
MODEL 8
REMARK VINA RESULT:      -4.9      5.022      6.860
REMARK  Name = 
REMARK  3 active torsions:
REMARK  status: ('A' for Active; 'I' for Inactive)
REMARK    1  A    between atoms: C_5  and  N_6
REMARK    2  A    between atoms: N_9  and  C_10
REMARK    3  A    between atoms: C_10  and  C_11
REMARK                            x       y       z     vdW  Elec       q    Type
REMARK                         _______ _______ _______ _____ _____    ______ ____
ROOT
ATOM      1  C   UNL     1      -1.294   5.367  -6.961  0.00  0.00    +0.072 C 
ATOM      2  C   UNL     1       0.082   5.082  -6.630  0.00  0.00    +0.125 A 
ATOM      3  N   UNL     1       1.119   5.611  -7.315  0.00  0.00    -0.255 N 
ATOM      4  C   UNL     1       2.255   5.521  -6.581  0.00  0.00    +0.378 A 
ATOM      5  C   UNL     1       1.906   4.917  -5.380  0.00  0.00    +0.195 A 
ATOM      6  N   UNL     1       0.582   4.678  -5.452  0.00  0.00    -0.223 NA
ENDROOT
BRANCH   4   7
ATOM      7  N   UNL     1       3.424   6.332  -6.762  0.00  0.00    +0.101 N 
ATOM      8  O   UNL     1       3.563   7.410  -5.903  0.00  0.00    -0.575 OA
ATOM      9  O   UNL     1       4.490   5.801  -7.115  0.00  0.00    +0.043 OA
ENDBRANCH   4   7
BRANCH   3  10
ATOM     10  C   UNL     1       1.041   6.089  -8.694  0.00  0.00    +0.146 C 
BRANCH  10  11
ATOM     11  C   UNL     1       1.622   4.744  -9.457  0.00  0.00    +0.175 C 
ATOM     12  O   UNL     1       0.338   4.586 -10.255  0.00  0.00    -0.221 OA
ATOM     13  C   UNL     1       2.318   5.653 -10.645  0.00  0.00    +0.038 C 
ENDBRANCH  10  11
ENDBRANCH   3  10
TORSDOF 3
ENDMDL
MODEL 9
REMARK VINA RESULT:      -4.9      2.046      3.637
REMARK  Name = 
REMARK  3 active torsions:
REMARK  status: ('A' for Active; 'I' for Inactive)
REMARK    1  A    between atoms: C_5  and  N_6
REMARK    2  A    between atoms: N_9  and  C_10
REMARK    3  A    between atoms: C_10  and  C_11
REMARK                            x       y       z     vdW  Elec       q    Type
REMARK                         _______ _______ _______ _____ _____    ______ ____
ROOT
ATOM      1  C   UNL     1       7.626   5.835 -10.016  0.00  0.00    +0.072 C 
ATOM      2  C   UNL     1       7.216   5.548 -11.371  0.00  0.00    +0.125 A 
ATOM      3  N   UNL     1       6.163   6.160 -11.956  0.00  0.00    -0.255 N 
ATOM      4  C   UNL     1       6.237   6.024 -13.302  0.00  0.00    +0.378 A 
ATOM      5  C   UNL     1       7.395   5.304 -13.567  0.00  0.00    +0.195 A 
ATOM      6  N   UNL     1       7.957   5.046 -12.370  0.00  0.00    -0.223 NA
ENDROOT
BRANCH   4   7
ATOM      7  N   UNL     1       5.583   6.872 -14.256  0.00  0.00    +0.101 N 
ATOM      8  O   UNL     1       6.376   7.822 -14.879  0.00  0.00    -0.575 OA
ATOM      9  O   UNL     1       4.666   6.413 -14.958  0.00  0.00    +0.043 OA
ENDBRANCH   4   7
BRANCH   3  10
ATOM     10  C   UNL     1       5.048   6.762 -11.229  0.00  0.00    +0.146 C 
BRANCH  10  11
ATOM     11  C   UNL     1       4.086   5.426 -11.094  0.00  0.00    +0.175 C 
ATOM     12  O   UNL     1       3.684   5.801  -9.677  0.00  0.00    -0.221 OA
ATOM     13  C   UNL     1       2.793   6.225 -11.736  0.00  0.00    +0.038 C 
ENDBRANCH  10  11
ENDBRANCH   3  10
TORSDOF 3
ENDMDL
