MODEL 1
REMARK VINA RESULT:      -7.3      0.000      0.000
REMARK  Name = 
REMARK  6 active torsions:
REMARK  status: ('A' for Active; 'I' for Inactive)
REMARK    1  A    between atoms: C_4  and  C_5
REMARK    2  A    between atoms: C_5  and  C_11
REMARK    3  A    between atoms: C_6  and  C_7
REMARK    4  A    between atoms: C_7  and  C_8
REMARK    5  A    between atoms: N_13  and  C_14
REMARK    6  A    between atoms: C_18  and  C_19
REMARK                            x       y       z     vdW  Elec       q    Type
REMARK                         _______ _______ _______ _____ _____    ______ ____
ROOT
ATOM      1  C   UNK A   0       4.288   5.501  -8.317  0.00  0.00    +0.266 C 
ATOM      2  N   UNK A   2       3.445   5.561  -7.198  0.00  0.00    -0.191 NA
ATOM      3  O   UNK A   0       5.478   5.094  -8.153  0.00  0.00    -0.268 OA
ENDROOT
BRANCH   2   4
ATOM      4  C   UNK A   2       4.287   6.142  -5.965  0.00  0.00    +0.200 C 
ATOM      5  C   UNK A   2       3.056   7.076  -5.265  0.00  0.00    +0.157 C 
ATOM      6  N   UNK A   2       2.452   5.709  -4.972  0.00  0.00    -0.242 N 
ATOM      7  C   UNK A   2       1.254   5.826  -4.210  0.00  0.00    +0.132 C 
ATOM      8  C   UNK A   2       0.392   6.734  -4.640  0.00  0.00    +0.007 C 
ATOM      9  C   UNK A   2       0.301   7.105  -6.087  0.00  0.00    +0.087 C 
ATOM     10  S   UNK A   2       1.950   7.525  -6.752  0.00  0.00    -0.114 S 
ATOM     11  C   UNK A   2       3.701   4.998  -4.969  0.00  0.00    +0.253 C 
ATOM     12  O   UNK A   2       4.373   4.295  -4.163  0.00  0.00    -0.273 OA
BRANCH   7  13
ATOM     13  C   UNK A   2       1.003   5.047  -2.989  0.00  0.00    +0.401 C 
ATOM     14  O   UNK A   2      -0.325   4.867  -2.588  0.00  0.00    -0.239 OA
ATOM     15  O   UNK A   2       1.860   5.200  -2.074  0.00  0.00    -0.239 OA
ENDBRANCH   7  13
ENDBRANCH   2   4
BRANCH   1  16
ATOM     16  C   UNK A   0       4.009   6.046  -9.651  0.00  0.00    +0.070 C 
ATOM     17  C   UNK A   0       2.869   5.580 -10.174  0.00  0.00    -0.008 C 
BRANCH  16  22
ATOM     18  N   UNK A   0       7.534   4.622 -12.596  0.00  0.00    -0.100 NA
ATOM     19  C   UNK A   0       6.732   5.612 -11.949  0.00  0.00    +0.201 A 
ATOM     20  S   UNK A   0       6.869   7.320 -11.888  0.00  0.00    -0.048 S 
ATOM     21  C   UNK A   0       5.467   7.633 -10.946  0.00  0.00    +0.057 A 
ATOM     22  C   UNK A   0       5.117   6.334 -10.586  0.00  0.00    +0.094 A 
ATOM     23  N   UNK A   0       5.441   5.471 -11.561  0.00  0.00    -0.221 NA
ENDBRANCH  16  22
BRANCH  17  24
ATOM     24  C   UNK A   0       2.174   4.389  -9.587  0.00  0.00    +0.140 C 
BRANCH  24  25
ATOM     25  C   UNK A   0       0.732   4.499  -9.821  0.00  0.00    +0.369 C 
ATOM     26  O   UNK A   0       0.008   5.333  -8.999  0.00  0.00    -0.245 OA
ATOM     27  O   UNK A   0       0.288   4.207 -10.971  0.00  0.00    -0.245 OA
ENDBRANCH  24  25
ENDBRANCH  17  24
ENDBRANCH   1  16
TORSDOF 6
ENDMDL
MODEL 2
REMARK VINA RESULT:      -7.0      2.298      3.541
REMARK  Name = 
REMARK  6 active torsions:
REMARK  status: ('A' for Active; 'I' for Inactive)
REMARK    1  A    between atoms: C_4  and  C_5
REMARK    2  A    between atoms: C_5  and  C_11
REMARK    3  A    between atoms: C_6  and  C_7
REMARK    4  A    between atoms: C_7  and  C_8
REMARK    5  A    between atoms: N_13  and  C_14
REMARK    6  A    between atoms: C_18  and  C_19
REMARK                            x       y       z     vdW  Elec       q    Type
REMARK                         _______ _______ _______ _____ _____    ______ ____
ROOT
ATOM      1  C   UNK A   0       2.039   6.167 -10.917  0.00  0.00    +0.266 C 
ATOM      2  N   UNK A   2       2.381   5.831  -9.599  0.00  0.00    -0.191 NA
ATOM      3  O   UNK A   0       0.812   6.179 -11.236  0.00  0.00    -0.268 OA
ENDROOT
BRANCH   2   4
ATOM      4  C   UNK A   2       1.461   4.603  -9.139  0.00  0.00    +0.200 C 
ATOM      5  C   UNK A   2       2.387   4.107  -7.807  0.00  0.00    +0.157 C 
ATOM      6  N   UNK A   2       1.921   5.439  -7.234  0.00  0.00    -0.242 N 
ATOM      7  C   UNK A   2       2.368   5.608  -5.891  0.00  0.00    +0.132 C 
ATOM      8  C   UNK A   2       3.642   5.326  -5.676  0.00  0.00    +0.007 C 
ATOM      9  C   UNK A   2       4.674   5.490  -6.748  0.00  0.00    +0.087 C 
ATOM     10  S   UNK A   2       4.155   4.644  -8.281  0.00  0.00    -0.114 S 
ATOM     11  C   UNK A   2       0.720   5.521  -8.020  0.00  0.00    +0.253 C 
ATOM     12  O   UNK A   2      -0.524   5.593  -7.817  0.00  0.00    -0.273 OA
BRANCH   7  13
ATOM     13  C   UNK A   2       1.473   6.005  -4.795  0.00  0.00    +0.401 C 
ATOM     14  O   UNK A   2       2.009   6.778  -3.759  0.00  0.00    -0.239 OA
ATOM     15  O   UNK A   2       0.608   5.143  -4.474  0.00  0.00    -0.239 OA
ENDBRANCH   7  13
ENDBRANCH   2   4
BRANCH   1  16
ATOM     16  C   UNK A   0       2.964   6.322 -12.047  0.00  0.00    +0.070 C 
ATOM     17  C   UNK A   0       2.536   5.709 -13.156  0.00  0.00    -0.008 C 
BRANCH  16  22
ATOM     18  N   UNK A   0       7.425   4.722 -12.865  0.00  0.00    -0.100 NA
ATOM     19  C   UNK A   0       6.472   5.588 -12.246  0.00  0.00    +0.201 A 
ATOM     20  S   UNK A   0       6.641   6.752 -10.998  0.00  0.00    -0.048 S 
ATOM     21  C   UNK A   0       5.013   7.301 -10.968  0.00  0.00    +0.057 A 
ATOM     22  C   UNK A   0       4.424   6.367 -11.816  0.00  0.00    +0.094 A 
ATOM     23  N   UNK A   0       5.286   5.983 -12.769  0.00  0.00    -0.221 NA
ENDBRANCH  16  22
BRANCH  17  24
ATOM     24  C   UNK A   0       1.421   4.708 -13.110  0.00  0.00    +0.140 C 
BRANCH  24  25
ATOM     25  C   UNK A   0       0.674   4.750 -14.370  0.00  0.00    +0.369 C 
ATOM     26  O   UNK A   0       0.894   5.816 -15.214  0.00  0.00    -0.245 OA
ATOM     27  O   UNK A   0       0.221   3.662 -14.834  0.00  0.00    -0.245 OA
ENDBRANCH  24  25
ENDBRANCH  17  24
ENDBRANCH   1  16
TORSDOF 6
ENDMDL
MODEL 3
REMARK VINA RESULT:      -7.0      2.529      3.849
REMARK  Name = 
REMARK  6 active torsions:
REMARK  status: ('A' for Active; 'I' for Inactive)
REMARK    1  A    between atoms: C_4  and  C_5
REMARK    2  A    between atoms: C_5  and  C_11
REMARK    3  A    between atoms: C_6  and  C_7
REMARK    4  A    between atoms: C_7  and  C_8
REMARK    5  A    between atoms: N_13  and  C_14
REMARK    6  A    between atoms: C_18  and  C_19
REMARK                            x       y       z     vdW  Elec       q    Type
REMARK                         _______ _______ _______ _____ _____    ______ ____
ROOT
ATOM      1  C   UNK A   0       4.242   4.973  -8.542  0.00  0.00    +0.266 C 
ATOM      2  N   UNK A   2       3.523   5.311  -7.387  0.00  0.00    -0.191 NA
ATOM      3  O   UNK A   0       5.451   4.611  -8.415  0.00  0.00    -0.268 OA
ENDROOT
BRANCH   2   4
ATOM      4  C   UNK A   2       4.481   6.171  -6.433  0.00  0.00    +0.200 C 
ATOM      5  C   UNK A   2       3.283   7.126  -5.704  0.00  0.00    +0.157 C 
ATOM      6  N   UNK A   2       2.876   5.796  -5.084  0.00  0.00    -0.242 N 
ATOM      7  C   UNK A   2       1.803   5.964  -4.159  0.00  0.00    +0.132 C 
ATOM      8  C   UNK A   2       0.797   6.710  -4.586  0.00  0.00    +0.007 C 
ATOM      9  C   UNK A   2       0.446   6.799  -6.038  0.00  0.00    +0.087 C 
ATOM     10  S   UNK A   2       1.920   7.208  -7.036  0.00  0.00    -0.114 S 
ATOM     11  C   UNK A   2       4.177   5.191  -5.171  0.00  0.00    +0.253 C 
ATOM     12  O   UNK A   2       5.033   4.702  -4.383  0.00  0.00    -0.273 OA
BRANCH   7  13
ATOM     13  C   UNK A   2       1.825   5.408  -2.799  0.00  0.00    +0.401 C 
ATOM     14  O   UNK A   2       0.611   4.996  -2.240  0.00  0.00    -0.239 OA
ATOM     15  O   UNK A   2       2.660   5.945  -2.018  0.00  0.00    -0.239 OA
ENDBRANCH   7  13
ENDBRANCH   2   4
BRANCH   1  16
ATOM     16  C   UNK A   0       3.810   5.176  -9.931  0.00  0.00    +0.070 C 
ATOM     17  C   UNK A   0       4.656   5.943 -10.630  0.00  0.00    -0.008 C 
BRANCH  16  22
ATOM     18  N   UNK A   0       0.094   7.422 -11.998  0.00  0.00    -0.100 NA
ATOM     19  C   UNK A   0       0.689   6.361 -11.248  0.00  0.00    +0.201 A 
ATOM     20  S   UNK A   0      -0.008   5.051 -10.388  0.00  0.00    -0.048 S 
ATOM     21  C   UNK A   0       1.452   4.307  -9.872  0.00  0.00    +0.057 A 
ATOM     22  C   UNK A   0       2.373   5.278 -10.258  0.00  0.00    +0.094 A 
ATOM     23  N   UNK A   0       1.959   5.906 -11.370  0.00  0.00    -0.221 NA
ENDBRANCH  16  22
BRANCH  17  24
ATOM     24  C   UNK A   0       5.713   6.756  -9.946  0.00  0.00    +0.140 C 
BRANCH  24  25
ATOM     25  C   UNK A   0       6.697   7.207 -10.934  0.00  0.00    +0.369 C 
ATOM     26  O   UNK A   0       6.507   8.441 -11.516  0.00  0.00    -0.245 OA
ATOM     27  O   UNK A   0       7.857   6.699 -10.898  0.00  0.00    -0.245 OA
ENDBRANCH  24  25
ENDBRANCH  17  24
ENDBRANCH   1  16
TORSDOF 6
ENDMDL
MODEL 4
REMARK VINA RESULT:      -6.9      3.976      7.950
REMARK  Name = 
REMARK  6 active torsions:
REMARK  status: ('A' for Active; 'I' for Inactive)
REMARK    1  A    between atoms: C_4  and  C_5
REMARK    2  A    between atoms: C_5  and  C_11
REMARK    3  A    between atoms: C_6  and  C_7
REMARK    4  A    between atoms: C_7  and  C_8
REMARK    5  A    between atoms: N_13  and  C_14
REMARK    6  A    between atoms: C_18  and  C_19
REMARK                            x       y       z     vdW  Elec       q    Type
REMARK                         _______ _______ _______ _____ _____    ______ ____
ROOT
ATOM      1  C   UNK A   0       4.416   6.993  -2.726  0.00  0.00    +0.266 C 
ATOM      2  N   UNK A   2       3.308   6.651  -3.516  0.00  0.00    -0.191 NA
ATOM      3  O   UNK A   0       5.563   6.987  -3.265  0.00  0.00    -0.268 OA
ENDROOT
BRANCH   2   4
ATOM      4  C   UNK A   2       3.714   5.404  -4.437  0.00  0.00    +0.200 C 
ATOM      5  C   UNK A   2       2.183   5.100  -5.101  0.00  0.00    +0.157 C 
ATOM      6  N   UNK A   2       2.427   6.440  -5.783  0.00  0.00    -0.242 N 
ATOM      7  C   UNK A   2       1.369   6.761  -6.683  0.00  0.00    +0.132 C 
ATOM      8  C   UNK A   2       0.146   6.595  -6.205  0.00  0.00    +0.007 C 
ATOM      9  C   UNK A   2      -0.153   6.738  -4.746  0.00  0.00    +0.087 C 
ATOM     10  S   UNK A   2       0.990   5.722  -3.748  0.00  0.00    -0.114 S 
ATOM     11  C   UNK A   2       3.861   6.362  -5.744  0.00  0.00    +0.253 C 
ATOM     12  O   UNK A   2       4.818   6.359  -6.567  0.00  0.00    -0.273 OA
BRANCH   7  13
ATOM     13  C   UNK A   2       1.601   7.188  -8.070  0.00  0.00    +0.401 C 
ATOM     14  O   UNK A   2       1.901   6.203  -9.016  0.00  0.00    -0.239 OA
ATOM     15  O   UNK A   2       2.190   8.298  -8.194  0.00  0.00    -0.239 OA
ENDBRANCH   7  13
ENDBRANCH   2   4
BRANCH   1  16
ATOM     16  C   UNK A   0       4.427   7.173  -1.269  0.00  0.00    +0.070 C 
ATOM     17  C   UNK A   0       4.466   6.013  -0.603  0.00  0.00    -0.008 C 
BRANCH  16  22
ATOM     18  N   UNK A   0       3.675  11.864  -0.525  0.00  0.00    -0.100 NA
ATOM     19  C   UNK A   0       3.373  10.479  -0.351  0.00  0.00    +0.201 A 
ATOM     20  S   UNK A   0       2.259   9.683   0.682  0.00  0.00    -0.048 S 
ATOM     21  C   UNK A   0       2.567   8.074   0.162  0.00  0.00    +0.057 A 
ATOM     22  C   UNK A   0       3.678   8.287  -0.649  0.00  0.00    +0.094 A 
ATOM     23  N   UNK A   0       3.606   9.487  -1.245  0.00  0.00    -0.221 NA
ENDBRANCH  16  22
BRANCH  17  24
ATOM     24  C   UNK A   0       4.180   4.712  -1.291  0.00  0.00    +0.140 C 
BRANCH  24  25
ATOM     25  C   UNK A   0       2.899   4.181  -0.818  0.00  0.00    +0.369 C 
ATOM     26  O   UNK A   0       2.880   2.900  -0.313  0.00  0.00    -0.245 OA
ATOM     27  O   UNK A   0       1.997   5.004  -0.482  0.00  0.00    -0.245 OA
ENDBRANCH  24  25
ENDBRANCH  17  24
ENDBRANCH   1  16
TORSDOF 6
ENDMDL
MODEL 5
REMARK VINA RESULT:      -6.8      2.892      7.668
REMARK  Name = 
REMARK  6 active torsions:
REMARK  status: ('A' for Active; 'I' for Inactive)
REMARK    1  A    between atoms: C_4  and  C_5
REMARK    2  A    between atoms: C_5  and  C_11
REMARK    3  A    between atoms: C_6  and  C_7
REMARK    4  A    between atoms: C_7  and  C_8
REMARK    5  A    between atoms: N_13  and  C_14
REMARK    6  A    between atoms: C_18  and  C_19
REMARK                            x       y       z     vdW  Elec       q    Type
REMARK                         _______ _______ _______ _____ _____    ______ ____
ROOT
ATOM      1  C   UNK A   0       2.450   6.327  -5.107  0.00  0.00    +0.266 C 
ATOM      2  N   UNK A   2       2.074   6.008  -6.420  0.00  0.00    -0.191 NA
ATOM      3  O   UNK A   0       3.665   6.178  -4.776  0.00  0.00    -0.268 OA
ENDROOT
BRANCH   2   4
ATOM      4  C   UNK A   2       2.820   4.654  -6.841  0.00  0.00    +0.200 C 
ATOM      5  C   UNK A   2       2.105   4.461  -8.367  0.00  0.00    +0.157 C 
ATOM      6  N   UNK A   2       2.919   5.707  -8.691  0.00  0.00    -0.242 N 
ATOM      7  C   UNK A   2       2.792   6.065 -10.065  0.00  0.00    +0.132 C 
ATOM      8  C   UNK A   2       1.557   6.070 -10.539  0.00  0.00    +0.007 C 
ATOM      9  C   UNK A   2       0.381   6.363  -9.662  0.00  0.00    +0.087 C 
ATOM     10  S   UNK A   2       0.411   5.315  -8.166  0.00  0.00    -0.114 S 
ATOM     11  C   UNK A   2       3.931   5.481  -7.695  0.00  0.00    +0.253 C 
ATOM     12  O   UNK A   2       5.181   5.308  -7.658  0.00  0.00    -0.273 OA
BRANCH   7  13
ATOM     13  C   UNK A   2       3.947   6.350 -10.927  0.00  0.00    +0.401 C 
ATOM     14  O   UNK A   2       4.570   5.272 -11.565  0.00  0.00    -0.239 OA
ATOM     15  O   UNK A   2       4.696   7.284 -10.525  0.00  0.00    -0.239 OA
ENDBRANCH   7  13
ENDBRANCH   2   4
BRANCH   1  16
ATOM     16  C   UNK A   0       1.548   6.637  -3.992  0.00  0.00    +0.070 C 
ATOM     17  C   UNK A   0       2.041   6.260  -2.806  0.00  0.00    -0.008 C 
BRANCH  16  22
ATOM     18  N   UNK A   0      -2.754   4.773  -2.917  0.00  0.00    -0.100 NA
ATOM     19  C   UNK A   0      -1.887   5.664  -3.623  0.00  0.00    +0.201 A 
ATOM     20  S   UNK A   0      -2.182   6.729  -4.934  0.00  0.00    -0.048 S 
ATOM     21  C   UNK A   0      -0.601   7.391  -5.056  0.00  0.00    +0.057 A 
ATOM     22  C   UNK A   0       0.083   6.560  -4.173  0.00  0.00    +0.094 A 
ATOM     23  N   UNK A   0      -0.719   6.177  -3.167  0.00  0.00    -0.221 NA
ENDBRANCH  16  22
BRANCH  17  24
ATOM     24  C   UNK A   0       3.212   5.329  -2.711  0.00  0.00    +0.140 C 
BRANCH  24  25
ATOM     25  C   UNK A   0       3.237   4.709  -1.384  0.00  0.00    +0.369 C 
ATOM     26  O   UNK A   0       4.449   4.625  -0.735  0.00  0.00    -0.245 OA
ATOM     27  O   UNK A   0       2.161   4.680  -0.716  0.00  0.00    -0.245 OA
ENDBRANCH  24  25
ENDBRANCH  17  24
ENDBRANCH   1  16
TORSDOF 6
ENDMDL
MODEL 6
REMARK VINA RESULT:      -6.7      3.188      5.026
REMARK  Name = 
REMARK  6 active torsions:
REMARK  status: ('A' for Active; 'I' for Inactive)
REMARK    1  A    between atoms: C_4  and  C_5
REMARK    2  A    between atoms: C_5  and  C_11
REMARK    3  A    between atoms: C_6  and  C_7
REMARK    4  A    between atoms: C_7  and  C_8
REMARK    5  A    between atoms: N_13  and  C_14
REMARK    6  A    between atoms: C_18  and  C_19
REMARK                            x       y       z     vdW  Elec       q    Type
REMARK                         _______ _______ _______ _____ _____    ______ ____
ROOT
ATOM      1  C   UNK A   0       3.031   5.037  -4.493  0.00  0.00    +0.266 C 
ATOM      2  N   UNK A   2       1.650   5.258  -4.384  0.00  0.00    -0.191 NA
ATOM      3  O   UNK A   0       3.684   4.781  -3.437  0.00  0.00    -0.268 OA
ENDROOT
BRANCH   2   4
ATOM      4  C   UNK A   2       1.387   6.159  -3.086  0.00  0.00    +0.200 C 
ATOM      5  C   UNK A   2       0.146   7.125  -3.723  0.00  0.00    +0.157 C 
ATOM      6  N   UNK A   2      -0.625   5.811  -3.695  0.00  0.00    -0.242 N 
ATOM      7  C   UNK A   2      -1.979   5.998  -4.100  0.00  0.00    +0.132 C 
ATOM      8  C   UNK A   2      -2.150   6.719  -5.196  0.00  0.00    +0.007 C 
ATOM      9  C   UNK A   2      -1.118   6.757  -6.280  0.00  0.00    +0.087 C 
ATOM     10  S   UNK A   2       0.529   7.148  -5.592  0.00  0.00    -0.114 S 
ATOM     11  C   UNK A   2       0.140   5.218  -2.632  0.00  0.00    +0.253 C 
ATOM     12  O   UNK A   2      -0.068   4.765  -1.473  0.00  0.00    -0.273 OA
BRANCH   7  13
ATOM     13  C   UNK A   2      -3.122   5.488  -3.330  0.00  0.00    +0.401 C 
ATOM     14  O   UNK A   2      -3.909   6.412  -2.636  0.00  0.00    -0.239 OA
ATOM     15  O   UNK A   2      -2.934   4.368  -2.777  0.00  0.00    -0.239 OA
ENDBRANCH   7  13
ENDBRANCH   2   4
BRANCH   1  16
ATOM     16  C   UNK A   0       3.860   5.261  -5.683  0.00  0.00    +0.070 C 
ATOM     17  C   UNK A   0       4.553   6.404  -5.626  0.00  0.00    -0.008 C 
BRANCH  16  22
ATOM     18  N   UNK A   0       4.160   5.247 -10.483  0.00  0.00    -0.100 NA
ATOM     19  C   UNK A   0       3.589   4.841  -9.238  0.00  0.00    +0.201 A 
ATOM     20  S   UNK A   0       2.181   3.930  -8.880  0.00  0.00    -0.048 S 
ATOM     21  C   UNK A   0       2.340   3.919  -7.169  0.00  0.00    +0.057 A 
ATOM     22  C   UNK A   0       3.393   4.816  -7.013  0.00  0.00    +0.094 A 
ATOM     23  N   UNK A   0       4.238   4.737  -8.053  0.00  0.00    -0.221 NA
ENDBRANCH  16  22
BRANCH  17  24
ATOM     24  C   UNK A   0       4.225   7.461  -4.615  0.00  0.00    +0.140 C 
BRANCH  24  25
ATOM     25  C   UNK A   0       5.346   7.611  -3.683  0.00  0.00    +0.369 C 
ATOM     26  O   UNK A   0       5.081   7.519  -2.335  0.00  0.00    -0.245 OA
ATOM     27  O   UNK A   0       6.516   7.379  -4.112  0.00  0.00    -0.245 OA
ENDBRANCH  24  25
ENDBRANCH  17  24
ENDBRANCH   1  16
TORSDOF 6
ENDMDL
MODEL 7
REMARK VINA RESULT:      -6.7      3.406      5.003
REMARK  Name = 
REMARK  6 active torsions:
REMARK  status: ('A' for Active; 'I' for Inactive)
REMARK    1  A    between atoms: C_4  and  C_5
REMARK    2  A    between atoms: C_5  and  C_11
REMARK    3  A    between atoms: C_6  and  C_7
REMARK    4  A    between atoms: C_7  and  C_8
REMARK    5  A    between atoms: N_13  and  C_14
REMARK    6  A    between atoms: C_18  and  C_19
REMARK                            x       y       z     vdW  Elec       q    Type
REMARK                         _______ _______ _______ _____ _____    ______ ____
ROOT
ATOM      1  C   UNK A   0       4.353   5.339 -11.619  0.00  0.00    +0.266 C 
ATOM      2  N   UNK A   2       3.300   5.618 -10.735  0.00  0.00    -0.191 NA
ATOM      3  O   UNK A   0       5.518   5.196 -11.141  0.00  0.00    -0.268 OA
ENDROOT
BRANCH   2   4
ATOM      4  C   UNK A   2       3.819   6.682  -9.656  0.00  0.00    +0.200 C 
ATOM      5  C   UNK A   2       2.329   7.000  -8.911  0.00  0.00    +0.157 C 
ATOM      6  N   UNK A   2       2.479   5.560  -8.437  0.00  0.00    -0.242 N 
ATOM      7  C   UNK A   2       1.416   5.190  -7.562  0.00  0.00    +0.132 C 
ATOM      8  C   UNK A   2       0.201   5.516  -7.974  0.00  0.00    +0.007 C 
ATOM      9  C   UNK A   2      -0.134   5.611  -9.429  0.00  0.00    +0.087 C 
ATOM     10  S   UNK A   2       1.067   6.674 -10.303  0.00  0.00    -0.114 S 
ATOM     11  C   UNK A   2       3.915   5.535  -8.507  0.00  0.00    +0.253 C 
ATOM     12  O   UNK A   2       4.884   5.346  -7.720  0.00  0.00    -0.273 OA
BRANCH   7  13
ATOM     13  C   UNK A   2       1.639   4.549  -6.259  0.00  0.00    +0.401 C 
ATOM     14  O   UNK A   2       2.076   5.352  -5.200  0.00  0.00    -0.239 OA
ATOM     15  O   UNK A   2       2.103   3.376  -6.315  0.00  0.00    -0.239 OA
ENDBRANCH   7  13
ENDBRANCH   2   4
BRANCH   1  16
ATOM     16  C   UNK A   0       4.297   5.386 -13.086  0.00  0.00    +0.070 C 
ATOM     17  C   UNK A   0       5.426   5.851 -13.633  0.00  0.00    -0.008 C 
BRANCH  16  22
ATOM     18  N   UNK A   0       1.587   8.226 -15.864  0.00  0.00    -0.100 NA
ATOM     19  C   UNK A   0       1.823   7.055 -15.080  0.00  0.00    +0.201 A 
ATOM     20  S   UNK A   0       0.766   5.810 -14.556  0.00  0.00    -0.048 S 
ATOM     21  C   UNK A   0       1.930   4.846 -13.737  0.00  0.00    +0.057 A 
ATOM     22  C   UNK A   0       3.028   5.701 -13.775  0.00  0.00    +0.094 A 
ATOM     23  N   UNK A   0       3.015   6.437 -14.897  0.00  0.00    -0.221 NA
ENDBRANCH  16  22
BRANCH  17  24
ATOM     24  C   UNK A   0       6.460   6.552 -12.805  0.00  0.00    +0.140 C 
BRANCH  24  25
ATOM     25  C   UNK A   0       7.755   5.890 -12.976  0.00  0.00    +0.369 C 
ATOM     26  O   UNK A   0       8.791   6.278 -12.155  0.00  0.00    -0.245 OA
ATOM     27  O   UNK A   0       7.775   4.744 -13.516  0.00  0.00    -0.245 OA
ENDBRANCH  24  25
ENDBRANCH  17  24
ENDBRANCH   1  16
TORSDOF 6
ENDMDL
MODEL 8
REMARK VINA RESULT:      -6.6      3.625      8.127
REMARK  Name = 
REMARK  6 active torsions:
REMARK  status: ('A' for Active; 'I' for Inactive)
REMARK    1  A    between atoms: C_4  and  C_5
REMARK    2  A    between atoms: C_5  and  C_11
REMARK    3  A    between atoms: C_6  and  C_7
REMARK    4  A    between atoms: C_7  and  C_8
REMARK    5  A    between atoms: N_13  and  C_14
REMARK    6  A    between atoms: C_18  and  C_19
REMARK                            x       y       z     vdW  Elec       q    Type
REMARK                         _______ _______ _______ _____ _____    ______ ____
ROOT
ATOM      1  C   UNK A   0      -0.100   5.150  -2.913  0.00  0.00    +0.266 C 
ATOM      2  N   UNK A   2       0.747   5.411  -3.999  0.00  0.00    -0.191 NA
ATOM      3  O   UNK A   0      -1.323   4.913  -3.147  0.00  0.00    -0.268 OA
ENDROOT
BRANCH   2   4
ATOM      4  C   UNK A   2      -0.032   6.363  -5.026  0.00  0.00    +0.200 C 
ATOM      5  C   UNK A   2       1.320   6.959  -5.859  0.00  0.00    +0.157 C 
ATOM      6  N   UNK A   2       1.413   5.519  -6.346  0.00  0.00    -0.242 N 
ATOM      7  C   UNK A   2       2.467   5.360  -7.292  0.00  0.00    +0.132 C 
ATOM      8  C   UNK A   2       3.623   5.908  -6.952  0.00  0.00    +0.007 C 
ATOM      9  C   UNK A   2       4.029   6.058  -5.520  0.00  0.00    +0.087 C 
ATOM     10  S   UNK A   2       2.709   6.872  -4.555  0.00  0.00    -0.114 S 
ATOM     11  C   UNK A   2       0.015   5.223  -6.186  0.00  0.00    +0.253 C 
ATOM     12  O   UNK A   2      -0.950   4.857  -6.913  0.00  0.00    -0.273 OA
BRANCH   7  13
ATOM     13  C   UNK A   2       2.285   4.694  -8.588  0.00  0.00    +0.401 C 
ATOM     14  O   UNK A   2       1.232   5.123  -9.403  0.00  0.00    -0.239 OA
ATOM     15  O   UNK A   2       2.542   3.457  -8.593  0.00  0.00    -0.239 OA
ENDBRANCH   7  13
ENDBRANCH   2   4
BRANCH   1  16
ATOM     16  C   UNK A   0       0.228   5.312  -1.491  0.00  0.00    +0.070 C 
ATOM     17  C   UNK A   0      -0.811   5.739  -0.764  0.00  0.00    -0.008 C 
BRANCH  16  22
ATOM     18  N   UNK A   0       3.213   8.643   0.274  0.00  0.00    -0.100 NA
ATOM     19  C   UNK A   0       2.909   7.348  -0.246  0.00  0.00    +0.201 A 
ATOM     20  S   UNK A   0       3.924   6.046  -0.710  0.00  0.00    -0.048 S 
ATOM     21  C   UNK A   0       2.690   4.934  -1.149  0.00  0.00    +0.057 A 
ATOM     22  C   UNK A   0       1.574   5.764  -1.082  0.00  0.00    +0.094 A 
ATOM     23  N   UNK A   0       1.731   6.689  -0.123  0.00  0.00    -0.221 NA
ENDBRANCH  16  22
BRANCH  17  24
ATOM     24  C   UNK A   0      -2.036   6.304  -1.417  0.00  0.00    +0.140 C 
BRANCH  24  25
ATOM     25  C   UNK A   0      -1.962   7.767  -1.413  0.00  0.00    +0.369 C 
ATOM     26  O   UNK A   0      -1.422   8.382  -0.305  0.00  0.00    -0.245 OA
ATOM     27  O   UNK A   0      -1.969   8.370  -2.527  0.00  0.00    -0.245 OA
ENDBRANCH  24  25
ENDBRANCH  17  24
ENDBRANCH   1  16
TORSDOF 6
ENDMDL
MODEL 9
REMARK VINA RESULT:      -6.6      5.742      8.294
REMARK  Name = 
REMARK  6 active torsions:
REMARK  status: ('A' for Active; 'I' for Inactive)
REMARK    1  A    between atoms: C_4  and  C_5
REMARK    2  A    between atoms: C_5  and  C_11
REMARK    3  A    between atoms: C_6  and  C_7
REMARK    4  A    between atoms: C_7  and  C_8
REMARK    5  A    between atoms: N_13  and  C_14
REMARK    6  A    between atoms: C_18  and  C_19
REMARK                            x       y       z     vdW  Elec       q    Type
REMARK                         _______ _______ _______ _____ _____    ______ ____
ROOT
ATOM      1  C   UNK A   0       2.995   7.373  -3.017  0.00  0.00    +0.266 C 
ATOM      2  N   UNK A   2       1.660   6.943  -3.037  0.00  0.00    -0.191 NA
ATOM      3  O   UNK A   0       3.634   7.404  -4.112  0.00  0.00    -0.268 OA
ENDROOT
BRANCH   2   4
ATOM      4  C   UNK A   2       1.555   5.682  -4.019  0.00  0.00    +0.200 C 
ATOM      5  C   UNK A   2       0.054   5.099  -3.484  0.00  0.00    +0.157 C 
ATOM      6  N   UNK A   2      -0.454   6.385  -4.123  0.00  0.00    -0.242 N 
ATOM      7  C   UNK A   2      -1.876   6.463  -4.068  0.00  0.00    +0.132 C 
ATOM      8  C   UNK A   2      -2.417   6.173  -2.895  0.00  0.00    +0.007 C 
ATOM      9  C   UNK A   2      -1.685   6.417  -1.612  0.00  0.00    +0.087 C 
ATOM     10  S   UNK A   2      -0.016   5.677  -1.668  0.00  0.00    -0.114 S 
ATOM     11  C   UNK A   2       0.626   6.516  -5.062  0.00  0.00    +0.253 C 
ATOM     12  O   UNK A   2       0.772   6.567  -6.315  0.00  0.00    -0.273 OA
BRANCH   7  13
ATOM     13  C   UNK A   2      -2.706   6.778  -5.239  0.00  0.00    +0.401 C 
ATOM     14  O   UNK A   2      -2.550   5.989  -6.383  0.00  0.00    -0.239 OA
ATOM     15  O   UNK A   2      -2.927   8.008  -5.419  0.00  0.00    -0.239 OA
ENDBRANCH   7  13
ENDBRANCH   2   4
BRANCH   1  16
ATOM     16  C   UNK A   0       3.817   7.615  -1.825  0.00  0.00    +0.070 C 
ATOM     17  C   UNK A   0       4.642   6.598  -1.549  0.00  0.00    -0.008 C 
BRANCH  16  22
ATOM     18  N   UNK A   0       1.458   7.835   2.360  0.00  0.00    -0.100 NA
ATOM     19  C   UNK A   0       2.175   8.410   1.266  0.00  0.00    +0.201 A 
ATOM     20  S   UNK A   0       2.468  10.044   0.836  0.00  0.00    -0.048 S 
ATOM     21  C   UNK A   0       3.429   9.750  -0.557  0.00  0.00    +0.057 A 
ATOM     22  C   UNK A   0       3.268   8.373  -0.681  0.00  0.00    +0.094 A 
ATOM     23  N   UNK A   0       3.134   7.803   0.526  0.00  0.00    -0.221 NA
ENDBRANCH  16  22
BRANCH  17  24
ATOM     24  C   UNK A   0       4.468   5.258  -2.197  0.00  0.00    +0.140 C 
BRANCH  24  25
ATOM     25  C   UNK A   0       4.020   4.286  -1.195  0.00  0.00    +0.369 C 
ATOM     26  O   UNK A   0       4.976   3.695  -0.399  0.00  0.00    -0.245 OA
ATOM     27  O   UNK A   0       2.819   4.345  -0.799  0.00  0.00    -0.245 OA
ENDBRANCH  24  25
ENDBRANCH  17  24
ENDBRANCH   1  16
TORSDOF 6
ENDMDL
