MODEL 1
REMARK VINA RESULT:      -7.9      0.000      0.000
REMARK  Name = 
REMARK  6 active torsions:
REMARK  status: ('A' for Active; 'I' for Inactive)
REMARK    1  A    between atoms: O_2  and  C_3
REMARK    2  A    between atoms: C_3  and  C_5
REMARK    3  A    between atoms: C_11  and  C_12
REMARK    4  A    between atoms: C_12  and  O_14
REMARK    5  A    between atoms: O_14  and  C_15
REMARK    6  A    between atoms: C_18  and  C_19
REMARK                            x       y       z     vdW  Elec       q    Type
REMARK                         _______ _______ _______ _____ _____    ______ ____
ROOT
ATOM      1  C   UNL     1       1.798   5.465  -4.874  0.00  0.00    +0.073 C 
ATOM      2  C   UNL     1       1.565   6.772  -5.812  0.00  0.00    +0.083 C 
ATOM      3  C   UNL     1       2.046   6.065  -7.189  0.00  0.00    +0.073 C 
ATOM      4  C   UNL     1       3.165   5.371  -7.109  0.00  0.00    +0.051 C 
ATOM      5  C   UNL     1       3.642   4.773  -8.397  0.00  0.00    +0.049 C 
ATOM      6  N   UNL     1       3.822   5.024  -5.908  0.00  0.00    -0.221 NA
ATOM      7  C   UNL     1       3.108   5.260  -4.714  0.00  0.00    +0.051 C 
ATOM      8  C   UNL     1       3.789   5.209  -3.404  0.00  0.00    +0.049 C 
ENDROOT
BRANCH   2   9
ATOM      9  C   UNL     1       0.011   6.414  -6.054  0.00  0.00    +0.009 A 
ATOM     10  C   UNL     1      -0.919   7.121  -5.386  0.00  0.00    +0.140 A 
ATOM     11  C   UNL     1      -2.263   6.788  -5.513  0.00  0.00    +0.143 A 
ATOM     12  N   UNL     1      -2.828   7.487  -4.494  0.00  0.00    -0.048 NA
ATOM     13  O   UNL     1      -2.045   8.469  -4.141  0.00  0.00    -0.242 OA
ATOM     14  C   UNL     1      -2.497   5.451  -5.817  0.00  0.00    +0.024 A 
ATOM     15  C   UNL     1      -1.586   4.842  -6.671  0.00  0.00    +0.001 A 
ATOM     16  N   UNL     1      -0.908   8.266  -4.701  0.00  0.00    -0.049 NA
ATOM     17  C   UNL     1      -0.246   5.220  -6.662  0.00  0.00    -0.002 A 
ENDBRANCH   2   9
BRANCH   1  18
ATOM     18  C   UNL     1       1.090   5.631  -3.590  0.00  0.00    +0.339 C 
ATOM     19  O   UNL     1       0.504   4.635  -3.061  0.00  0.00    -0.245 OA
BRANCH  18  21
ATOM     20  C   UNL     1       1.242   6.534  -1.318  0.00  0.00    +0.256 C 
ATOM     21  O   UNL     1       1.616   6.526  -2.649  0.00  0.00    -0.442 OA
ENDBRANCH  18  21
ENDBRANCH   1  18
BRANCH   3  22
ATOM     22  C   UNL     1       2.058   7.100  -8.242  0.00  0.00    +0.339 C 
ATOM     23  O   UNL     1       2.172   8.328  -7.991  0.00  0.00    -0.245 OA
BRANCH  22  24
ATOM     24  O   UNL     1       1.663   6.810  -9.552  0.00  0.00    -0.449 OA
BRANCH  24  25
ATOM     25  C   UNL     1       0.354   6.339  -9.868  0.00  0.00    +0.169 C 
ATOM     26  C   UNL     1      -0.061   7.159 -11.085  0.00  0.00    +0.047 C 
ATOM     27  C   UNL     1       0.530   4.899 -10.330  0.00  0.00    +0.047 C 
ENDBRANCH  24  25
ENDBRANCH  22  24
ENDBRANCH   3  22
TORSDOF 6
ENDMDL
MODEL 2
REMARK VINA RESULT:      -7.5      2.177      5.438
REMARK  Name = 
REMARK  6 active torsions:
REMARK  status: ('A' for Active; 'I' for Inactive)
REMARK    1  A    between atoms: O_2  and  C_3
REMARK    2  A    between atoms: C_3  and  C_5
REMARK    3  A    between atoms: C_11  and  C_12
REMARK    4  A    between atoms: C_12  and  O_14
REMARK    5  A    between atoms: O_14  and  C_15
REMARK    6  A    between atoms: C_18  and  C_19
REMARK                            x       y       z     vdW  Elec       q    Type
REMARK                         _______ _______ _______ _____ _____    ______ ____
ROOT
ATOM      1  C   UNL     1      -0.511   5.487  -4.238  0.00  0.00    +0.073 C 
ATOM      2  C   UNL     1       0.736   6.519  -4.092  0.00  0.00    +0.083 C 
ATOM      3  C   UNL     1       1.537   5.644  -2.989  0.00  0.00    +0.073 C 
ATOM      4  C   UNL     1       0.806   5.183  -1.991  0.00  0.00    +0.051 C 
ATOM      5  C   UNL     1       1.559   4.429  -0.939  0.00  0.00    +0.049 C 
ATOM      6  N   UNL     1      -0.606   5.201  -1.942  0.00  0.00    -0.221 NA
ATOM      7  C   UNL     1      -1.269   5.546  -3.139  0.00  0.00    +0.051 C 
ATOM      8  C   UNL     1      -2.708   5.877  -3.137  0.00  0.00    +0.049 C 
ENDROOT
BRANCH   2   9
ATOM      9  C   UNL     1       1.525   5.858  -5.334  0.00  0.00    +0.009 A 
ATOM     10  C   UNL     1       1.798   6.631  -6.402  0.00  0.00    +0.140 A 
ATOM     11  C   UNL     1       2.407   6.074  -7.520  0.00  0.00    +0.143 A 
ATOM     12  N   UNL     1       2.234   7.046  -8.454  0.00  0.00    -0.048 NA
ATOM     13  O   UNL     1       2.020   8.191  -7.869  0.00  0.00    -0.242 OA
ATOM     14  C   UNL     1       2.157   4.716  -7.695  0.00  0.00    +0.024 A 
ATOM     15  C   UNL     1       2.076   3.948  -6.539  0.00  0.00    +0.001 A 
ATOM     16  N   UNL     1       1.788   7.945  -6.630  0.00  0.00    -0.049 NA
ATOM     17  C   UNL     1       1.576   4.495  -5.360  0.00  0.00    -0.002 A 
ENDBRANCH   2   9
BRANCH   1  18
ATOM     18  C   UNL     1      -1.273   5.782  -5.467  0.00  0.00    +0.339 C 
ATOM     19  O   UNL     1      -1.385   6.984  -5.865  0.00  0.00    -0.245 OA
BRANCH  18  21
ATOM     20  C   UNL     1      -1.214   5.218  -7.849  0.00  0.00    +0.256 C 
ATOM     21  O   UNL     1      -1.235   4.855  -6.515  0.00  0.00    -0.442 OA
ENDBRANCH  18  21
ENDBRANCH   1  18
BRANCH   3  22
ATOM     22  C   UNL     1       2.707   6.432  -2.556  0.00  0.00    +0.339 C 
ATOM     23  O   UNL     1       2.615   7.612  -2.127  0.00  0.00    -0.245 OA
BRANCH  22  24
ATOM     24  O   UNL     1       4.011   6.026  -2.859  0.00  0.00    -0.449 OA
BRANCH  24  25
ATOM     25  C   UNL     1       4.589   6.216  -4.150  0.00  0.00    +0.169 C 
ATOM     26  C   UNL     1       5.761   7.162  -3.905  0.00  0.00    +0.047 C 
ATOM     27  C   UNL     1       5.172   4.866  -4.546  0.00  0.00    +0.047 C 
ENDBRANCH  24  25
ENDBRANCH  22  24
ENDBRANCH   3  22
TORSDOF 6
ENDMDL
MODEL 3
REMARK VINA RESULT:      -7.4      2.303      5.707
REMARK  Name = 
REMARK  6 active torsions:
REMARK  status: ('A' for Active; 'I' for Inactive)
REMARK    1  A    between atoms: O_2  and  C_3
REMARK    2  A    between atoms: C_3  and  C_5
REMARK    3  A    between atoms: C_11  and  C_12
REMARK    4  A    between atoms: C_12  and  O_14
REMARK    5  A    between atoms: O_14  and  C_15
REMARK    6  A    between atoms: C_18  and  C_19
REMARK                            x       y       z     vdW  Elec       q    Type
REMARK                         _______ _______ _______ _____ _____    ______ ____
ROOT
ATOM      1  C   UNL     1       2.033   5.977  -4.646  0.00  0.00    +0.073 C 
ATOM      2  C   UNL     1       1.336   5.541  -3.245  0.00  0.00    +0.083 C 
ATOM      3  C   UNL     1       1.946   6.766  -2.377  0.00  0.00    +0.073 C 
ATOM      4  C   UNL     1       3.234   6.998  -2.551  0.00  0.00    +0.051 C 
ATOM      5  C   UNL     1       3.809   8.088  -1.701  0.00  0.00    +0.049 C 
ATOM      6  N   UNL     1       4.031   6.429  -3.568  0.00  0.00    -0.221 NA
ATOM      7  C   UNL     1       3.345   5.734  -4.586  0.00  0.00    +0.051 C 
ATOM      8  C   UNL     1       4.075   4.864  -5.531  0.00  0.00    +0.049 C 
ENDROOT
BRANCH   2   9
ATOM      9  C   UNL     1      -0.026   6.332  -3.589  0.00  0.00    +0.009 A 
ATOM     10  C   UNL     1      -1.195   5.799  -3.186  0.00  0.00    +0.140 A 
ATOM     11  C   UNL     1      -2.392   6.414  -3.533  0.00  0.00    +0.143 A 
ATOM     12  N   UNL     1      -3.305   5.455  -3.231  0.00  0.00    -0.048 NA
ATOM     13  O   UNL     1      -2.797   4.612  -2.374  0.00  0.00    -0.242 OA
ATOM     14  C   UNL     1      -2.338   7.152  -4.711  0.00  0.00    +0.024 A 
ATOM     15  C   UNL     1      -1.152   7.832  -4.963  0.00  0.00    +0.001 A 
ATOM     16  N   UNL     1      -1.535   4.839  -2.324  0.00  0.00    -0.049 NA
ATOM     17  C   UNL     1       0.066   7.310  -4.536  0.00  0.00    -0.002 A 
ENDBRANCH   2   9
BRANCH   1  18
ATOM     18  C   UNL     1       1.380   5.285  -5.774  0.00  0.00    +0.339 C 
ATOM     19  O   UNL     1       0.659   4.263  -5.553  0.00  0.00    -0.245 OA
BRANCH  18  21
ATOM     20  C   UNL     1       0.113   5.551  -7.853  0.00  0.00    +0.256 C 
ATOM     21  O   UNL     1       0.936   6.050  -6.860  0.00  0.00    -0.442 OA
ENDBRANCH  18  21
ENDBRANCH   1  18
BRANCH   3  22
ATOM     22  C   UNL     1       1.563   6.550  -0.968  0.00  0.00    +0.339 C 
ATOM     23  O   UNL     1       1.753   5.459  -0.368  0.00  0.00    -0.245 OA
BRANCH  22  24
ATOM     24  O   UNL     1       0.716   7.440  -0.299  0.00  0.00    -0.449 OA
BRANCH  24  25
ATOM     25  C   UNL     1      -0.469   7.010   0.369  0.00  0.00    +0.169 C 
ATOM     26  C   UNL     1      -0.245   7.399   1.827  0.00  0.00    +0.047 C 
ATOM     27  C   UNL     1      -1.590   7.889  -0.168  0.00  0.00    +0.047 C 
ENDBRANCH  24  25
ENDBRANCH  22  24
ENDBRANCH   3  22
TORSDOF 6
ENDMDL
MODEL 4
REMARK VINA RESULT:      -7.4      2.040      5.900
REMARK  Name = 
REMARK  6 active torsions:
REMARK  status: ('A' for Active; 'I' for Inactive)
REMARK    1  A    between atoms: O_2  and  C_3
REMARK    2  A    between atoms: C_3  and  C_5
REMARK    3  A    between atoms: C_11  and  C_12
REMARK    4  A    between atoms: C_12  and  O_14
REMARK    5  A    between atoms: O_14  and  C_15
REMARK    6  A    between atoms: C_18  and  C_19
REMARK                            x       y       z     vdW  Elec       q    Type
REMARK                         _______ _______ _______ _____ _____    ______ ____
ROOT
ATOM      1  C   UNL     1       1.666   5.733  -7.680  0.00  0.00    +0.073 C 
ATOM      2  C   UNL     1       1.417   6.779  -6.462  0.00  0.00    +0.083 C 
ATOM      3  C   UNL     1       0.125   6.011  -5.856  0.00  0.00    +0.073 C 
ATOM      4  C   UNL     1      -0.781   5.640  -6.742  0.00  0.00    +0.051 C 
ATOM      5  C   UNL     1      -2.004   4.989  -6.175  0.00  0.00    +0.049 C 
ATOM      6  N   UNL     1      -0.601   5.658  -8.143  0.00  0.00    -0.221 NA
ATOM      7  C   UNL     1       0.712   5.889  -8.603  0.00  0.00    +0.051 C 
ATOM      8  C   UNL     1       0.970   6.213 -10.020  0.00  0.00    +0.049 C 
ENDROOT
BRANCH   2   9
ATOM      9  C   UNL     1       2.451   6.010  -5.491  0.00  0.00    +0.009 A 
ATOM     10  C   UNL     1       3.509   6.693  -5.016  0.00  0.00    +0.140 A 
ATOM     11  C   UNL     1       4.461   6.041  -4.241  0.00  0.00    +0.143 A 
ATOM     12  N   UNL     1       5.480   6.940  -4.221  0.00  0.00    -0.048 NA
ATOM     13  O   UNL     1       5.026   8.131  -4.499  0.00  0.00    -0.242 OA
ATOM     14  C   UNL     1       4.576   4.678  -4.498  0.00  0.00    +0.024 A 
ATOM     15  C   UNL     1       3.399   4.004  -4.799  0.00  0.00    +0.001 A 
ATOM     16  N   UNL     1       3.832   7.986  -4.947  0.00  0.00    -0.049 NA
ATOM     17  C   UNL     1       2.368   4.648  -5.477  0.00  0.00    -0.002 A 
ENDBRANCH   2   9
BRANCH   1  18
ATOM     18  C   UNL     1       3.022   5.912  -8.233  0.00  0.00    +0.339 C 
ATOM     19  O   UNL     1       3.575   7.055  -8.188  0.00  0.00    -0.245 OA
BRANCH  18  21
ATOM     20  C   UNL     1       5.302   5.017  -8.227  0.00  0.00    +0.256 C 
ATOM     21  O   UNL     1       3.933   4.854  -8.121  0.00  0.00    -0.442 OA
ENDBRANCH  18  21
ENDBRANCH   1  18
BRANCH   3  22
ATOM     22  C   UNL     1      -0.416   6.840  -4.762  0.00  0.00    +0.339 C 
ATOM     23  O   UNL     1      -0.940   7.969  -4.955  0.00  0.00    -0.245 OA
BRANCH  22  24
ATOM     24  O   UNL     1      -0.128   6.556  -3.423  0.00  0.00    -0.449 OA
BRANCH  24  25
ATOM     25  C   UNL     1      -0.547   5.347  -2.792  0.00  0.00    +0.169 C 
ATOM     26  C   UNL     1       0.559   5.040  -1.787  0.00  0.00    +0.047 C 
ATOM     27  C   UNL     1      -1.796   5.704  -1.997  0.00  0.00    +0.047 C 
ENDBRANCH  24  25
ENDBRANCH  22  24
ENDBRANCH   3  22
TORSDOF 6
ENDMDL
MODEL 5
REMARK VINA RESULT:      -7.3      3.353      7.667
REMARK  Name = 
REMARK  6 active torsions:
REMARK  status: ('A' for Active; 'I' for Inactive)
REMARK    1  A    between atoms: O_2  and  C_3
REMARK    2  A    between atoms: C_3  and  C_5
REMARK    3  A    between atoms: C_11  and  C_12
REMARK    4  A    between atoms: C_12  and  O_14
REMARK    5  A    between atoms: O_14  and  C_15
REMARK    6  A    between atoms: C_18  and  C_19
REMARK                            x       y       z     vdW  Elec       q    Type
REMARK                         _______ _______ _______ _____ _____    ______ ____
ROOT
ATOM      1  C   UNL     1       2.733   5.436 -10.615  0.00  0.00    +0.073 C 
ATOM      2  C   UNL     1       3.013   6.801  -9.780  0.00  0.00    +0.083 C 
ATOM      3  C   UNL     1       2.604   6.189  -8.336  0.00  0.00    +0.073 C 
ATOM      4  C   UNL     1       1.482   5.495  -8.312  0.00  0.00    +0.051 C 
ATOM      5  C   UNL     1       1.072   4.985  -6.965  0.00  0.00    +0.049 C 
ATOM      6  N   UNL     1       0.765   5.071  -9.453  0.00  0.00    -0.221 NA
ATOM      7  C   UNL     1       1.416   5.225 -10.694  0.00  0.00    +0.051 C 
ATOM      8  C   UNL     1       0.669   5.089 -11.961  0.00  0.00    +0.049 C 
ENDROOT
BRANCH   2   9
ATOM      9  C   UNL     1       4.578   6.455  -9.594  0.00  0.00    +0.009 A 
ATOM     10  C   UNL     1       5.475   7.132 -10.334  0.00  0.00    +0.140 A 
ATOM     11  C   UNL     1       6.824   6.805 -10.256  0.00  0.00    +0.143 A 
ATOM     12  N   UNL     1       7.339   7.460 -11.329  0.00  0.00    -0.048 NA
ATOM     13  O   UNL     1       6.539   8.425 -11.688  0.00  0.00    -0.242 OA
ATOM     14  C   UNL     1       7.075   5.483  -9.904  0.00  0.00    +0.024 A 
ATOM     15  C   UNL     1       6.205   4.911  -8.983  0.00  0.00    +0.001 A 
ATOM     16  N   UNL     1       5.430   8.246 -11.068  0.00  0.00    -0.049 NA
ATOM     17  C   UNL     1       4.865   5.288  -8.947  0.00  0.00    -0.002 A 
ENDBRANCH   2   9
BRANCH   1  18
ATOM     18  C   UNL     1       3.374   5.513 -11.943  0.00  0.00    +0.339 C 
ATOM     19  O   UNL     1       3.301   6.588 -12.615  0.00  0.00    -0.245 OA
BRANCH  18  21
ATOM     20  C   UNL     1       5.389   5.017 -13.242  0.00  0.00    +0.256 C 
ATOM     21  O   UNL     1       4.569   4.813 -12.148  0.00  0.00    -0.442 OA
ENDBRANCH  18  21
ENDBRANCH   1  18
BRANCH   3  22
ATOM     22  C   UNL     1       2.646   7.291  -7.355  0.00  0.00    +0.339 C 
ATOM     23  O   UNL     1       1.962   8.341  -7.478  0.00  0.00    -0.245 OA
BRANCH  22  24
ATOM     24  O   UNL     1       3.649   7.363  -6.383  0.00  0.00    -0.449 OA
BRANCH  24  25
ATOM     25  C   UNL     1       3.536   6.712  -5.119  0.00  0.00    +0.169 C 
ATOM     26  C   UNL     1       4.380   5.449  -5.265  0.00  0.00    +0.047 C 
ATOM     27  C   UNL     1       4.244   7.617  -4.120  0.00  0.00    +0.047 C 
ENDBRANCH  24  25
ENDBRANCH  22  24
ENDBRANCH   3  22
TORSDOF 6
ENDMDL
MODEL 6
REMARK VINA RESULT:      -7.3      2.461      5.640
REMARK  Name = 
REMARK  6 active torsions:
REMARK  status: ('A' for Active; 'I' for Inactive)
REMARK    1  A    between atoms: O_2  and  C_3
REMARK    2  A    between atoms: C_3  and  C_5
REMARK    3  A    between atoms: C_11  and  C_12
REMARK    4  A    between atoms: C_12  and  O_14
REMARK    5  A    between atoms: O_14  and  C_15
REMARK    6  A    between atoms: C_18  and  C_19
REMARK                            x       y       z     vdW  Elec       q    Type
REMARK                         _______ _______ _______ _____ _____    ______ ____
ROOT
ATOM      1  C   UNL     1       1.252   5.270  -5.377  0.00  0.00    +0.073 C 
ATOM      2  C   UNL     1       0.801   6.703  -4.757  0.00  0.00    +0.083 C 
ATOM      3  C   UNL     1      -0.770   6.331  -4.629  0.00  0.00    +0.073 C 
ATOM      4  C   UNL     1      -1.305   5.754  -5.688  0.00  0.00    +0.051 C 
ATOM      5  C   UNL     1      -2.772   5.470  -5.592  0.00  0.00    +0.049 C 
ATOM      6  N   UNL     1      -0.581   5.249  -6.791  0.00  0.00    -0.221 NA
ATOM      7  C   UNL     1       0.820   5.173  -6.637  0.00  0.00    +0.051 C 
ATOM      8  C   UNL     1       1.696   4.939  -7.803  0.00  0.00    +0.049 C 
ENDROOT
BRANCH   2   9
ATOM      9  C   UNL     1       1.136   6.240  -3.249  0.00  0.00    +0.009 A 
ATOM     10  C   UNL     1       2.231   6.748  -2.653  0.00  0.00    +0.140 A 
ATOM     11  C   UNL     1       2.591   6.312  -1.383  0.00  0.00    +0.143 A 
ATOM     12  N   UNL     1       3.856   6.793  -1.263  0.00  0.00    -0.048 NA
ATOM     13  O   UNL     1       4.037   7.780  -2.097  0.00  0.00    -0.242 OA
ATOM     14  C   UNL     1       2.174   5.020  -1.079  0.00  0.00    +0.024 A 
ATOM     15  C   UNL     1       0.936   4.635  -1.579  0.00  0.00    +0.001 A 
ATOM     16  N   UNL     1       3.046   7.772  -2.912  0.00  0.00    -0.049 NA
ATOM     17  C   UNL     1       0.480   5.132  -2.797  0.00  0.00    -0.002 A 
ENDBRANCH   2   9
BRANCH   1  18
ATOM     18  C   UNL     1       2.715   5.108  -5.268  0.00  0.00    +0.339 C 
ATOM     19  O   UNL     1       3.224   3.944  -5.291  0.00  0.00    -0.245 OA
BRANCH  18  21
ATOM     20  C   UNL     1       4.862   6.266  -5.489  0.00  0.00    +0.256 C 
ATOM     21  O   UNL     1       3.539   6.082  -5.846  0.00  0.00    -0.442 OA
ENDBRANCH  18  21
ENDBRANCH   1  18
BRANCH   3  22
ATOM     22  C   UNL     1      -1.483   7.546  -4.187  0.00  0.00    +0.339 C 
ATOM     23  O   UNL     1      -1.507   8.607  -4.864  0.00  0.00    -0.245 OA
BRANCH  22  24
ATOM     24  O   UNL     1      -1.934   7.687  -2.871  0.00  0.00    -0.449 OA
BRANCH  24  25
ATOM     25  C   UNL     1      -2.432   6.587  -2.112  0.00  0.00    +0.169 C 
ATOM     26  C   UNL     1      -2.259   7.018  -0.659  0.00  0.00    +0.047 C 
ATOM     27  C   UNL     1      -3.927   6.529  -2.393  0.00  0.00    +0.047 C 
ENDBRANCH  24  25
ENDBRANCH  22  24
ENDBRANCH   3  22
TORSDOF 6
ENDMDL
MODEL 7
REMARK VINA RESULT:      -7.2      2.447      4.962
REMARK  Name = 
REMARK  6 active torsions:
REMARK  status: ('A' for Active; 'I' for Inactive)
REMARK    1  A    between atoms: O_2  and  C_3
REMARK    2  A    between atoms: C_3  and  C_5
REMARK    3  A    between atoms: C_11  and  C_12
REMARK    4  A    between atoms: C_12  and  O_14
REMARK    5  A    between atoms: O_14  and  C_15
REMARK    6  A    between atoms: C_18  and  C_19
REMARK                            x       y       z     vdW  Elec       q    Type
REMARK                         _______ _______ _______ _____ _____    ______ ____
ROOT
ATOM      1  C   UNL     1       0.174   5.909  -3.320  0.00  0.00    +0.073 C 
ATOM      2  C   UNL     1       1.307   4.894  -3.892  0.00  0.00    +0.083 C 
ATOM      3  C   UNL     1       1.409   5.582  -5.356  0.00  0.00    +0.073 C 
ATOM      4  C   UNL     1       0.255   5.846  -5.940  0.00  0.00    +0.051 C 
ATOM      5  C   UNL     1       0.351   6.422  -7.319  0.00  0.00    +0.049 C 
ATOM      6  N   UNL     1      -1.007   5.788  -5.308  0.00  0.00    -0.221 NA
ATOM      7  C   UNL     1      -0.998   5.643  -3.905  0.00  0.00    +0.051 C 
ATOM      8  C   UNL     1      -2.231   5.285  -3.175  0.00  0.00    +0.049 C 
ENDROOT
BRANCH   2   9
ATOM      9  C   UNL     1       2.512   5.778  -3.285  0.00  0.00    +0.009 A 
ATOM     10  C   UNL     1       3.182   5.298  -2.220  0.00  0.00    +0.140 A 
ATOM     11  C   UNL     1       4.174   6.069  -1.624  0.00  0.00    +0.143 A 
ATOM     12  N   UNL     1       4.382   5.410  -0.454  0.00  0.00    -0.048 NA
ATOM     13  O   UNL     1       3.965   4.179  -0.557  0.00  0.00    -0.242 OA
ATOM     14  C   UNL     1       4.002   7.441  -1.772  0.00  0.00    +0.024 A 
ATOM     15  C   UNL     1       3.475   7.872  -2.984  0.00  0.00    +0.001 A 
ATOM     16  N   UNL     1       3.270   4.104  -1.633  0.00  0.00    -0.049 NA
ATOM     17  C   UNL     1       2.560   7.084  -3.677  0.00  0.00    -0.002 A 
ENDBRANCH   2   9
BRANCH   1  18
ATOM     18  C   UNL     1       0.105   5.814  -1.849  0.00  0.00    +0.339 C 
ATOM     19  O   UNL     1       0.244   4.685  -1.283  0.00  0.00    -0.245 OA
BRANCH  18  21
ATOM     20  C   UNL     1       0.510   6.937   0.290  0.00  0.00    +0.256 C 
ATOM     21  O   UNL     1       0.606   6.879  -1.088  0.00  0.00    -0.442 OA
ENDBRANCH  18  21
ENDBRANCH   1  18
BRANCH   3  22
ATOM     22  C   UNL     1       2.317   4.756  -6.176  0.00  0.00    +0.339 C 
ATOM     23  O   UNL     1       2.216   3.503  -6.255  0.00  0.00    -0.245 OA
BRANCH  22  24
ATOM     24  O   UNL     1       3.511   5.275  -6.687  0.00  0.00    -0.449 OA
BRANCH  24  25
ATOM     25  C   UNL     1       3.847   5.197  -8.071  0.00  0.00    +0.169 C 
ATOM     26  C   UNL     1       3.517   6.581  -8.622  0.00  0.00    +0.047 C 
ATOM     27  C   UNL     1       5.360   5.037  -8.123  0.00  0.00    +0.047 C 
ENDBRANCH  24  25
ENDBRANCH  22  24
ENDBRANCH   3  22
TORSDOF 6
ENDMDL
MODEL 8
REMARK VINA RESULT:      -6.9      2.751      5.828
REMARK  Name = 
REMARK  6 active torsions:
REMARK  status: ('A' for Active; 'I' for Inactive)
REMARK    1  A    between atoms: O_2  and  C_3
REMARK    2  A    between atoms: C_3  and  C_5
REMARK    3  A    between atoms: C_11  and  C_12
REMARK    4  A    between atoms: C_12  and  O_14
REMARK    5  A    between atoms: O_14  and  C_15
REMARK    6  A    between atoms: C_18  and  C_19
REMARK                            x       y       z     vdW  Elec       q    Type
REMARK                         _______ _______ _______ _____ _____    ______ ____
ROOT
ATOM      1  C   UNL     1       3.344   6.952  -3.793  0.00  0.00    +0.073 C 
ATOM      2  C   UNL     1       2.663   5.568  -3.284  0.00  0.00    +0.083 C 
ATOM      3  C   UNL     1       1.899   6.226  -2.015  0.00  0.00    +0.073 C 
ATOM      4  C   UNL     1       2.628   7.037  -1.273  0.00  0.00    +0.051 C 
ATOM      5  C   UNL     1       1.940   7.594  -0.065  0.00  0.00    +0.049 C 
ATOM      6  N   UNL     1       3.904   7.533  -1.623  0.00  0.00    -0.221 NA
ATOM      7  C   UNL     1       4.320   7.304  -2.952  0.00  0.00    +0.051 C 
ATOM      8  C   UNL     1       5.726   7.515  -3.349  0.00  0.00    +0.049 C 
ENDROOT
BRANCH   2   9
ATOM      9  C   UNL     1       1.394   5.743  -4.264  0.00  0.00    +0.009 A 
ATOM     10  C   UNL     1       1.317   4.960  -5.356  0.00  0.00    +0.140 A 
ATOM     11  C   UNL     1       0.279   5.138  -6.263  0.00  0.00    +0.143 A 
ATOM     12  N   UNL     1       0.704   4.414  -7.331  0.00  0.00    -0.048 NA
ATOM     13  O   UNL     1       1.591   3.538  -6.949  0.00  0.00    -0.242 OA
ATOM     14  C   UNL     1      -0.235   6.430  -6.301  0.00  0.00    +0.024 A 
ATOM     15  C   UNL     1      -0.297   7.108  -5.090  0.00  0.00    +0.001 A 
ATOM     16  N   UNL     1       1.937   3.846  -5.752  0.00  0.00    -0.049 NA
ATOM     17  C   UNL     1       0.659   6.881  -4.103  0.00  0.00    -0.002 A 
ENDBRANCH   2   9
BRANCH   1  18
ATOM     18  C   UNL     1       3.822   6.801  -5.182  0.00  0.00    +0.339 C 
ATOM     19  O   UNL     1       4.313   5.693  -5.561  0.00  0.00    -0.245 OA
BRANCH  18  21
ATOM     20  C   UNL     1       3.153   7.076  -7.521  0.00  0.00    +0.256 C 
ATOM     21  O   UNL     1       3.140   7.481  -6.199  0.00  0.00    -0.442 OA
ENDBRANCH  18  21
ENDBRANCH   1  18
BRANCH   3  22
ATOM     22  C   UNL     1       1.266   5.130  -1.256  0.00  0.00    +0.339 C 
ATOM     23  O   UNL     1       1.923   4.188  -0.740  0.00  0.00    -0.245 OA
BRANCH  22  24
ATOM     24  O   UNL     1      -0.115   4.915  -1.302  0.00  0.00    -0.449 OA
BRANCH  24  25
ATOM     25  C   UNL     1      -1.051   5.985  -1.433  0.00  0.00    +0.169 C 
ATOM     26  C   UNL     1      -2.191   5.394  -2.257  0.00  0.00    +0.047 C 
ATOM     27  C   UNL     1      -1.589   6.240  -0.032  0.00  0.00    +0.047 C 
ENDBRANCH  24  25
ENDBRANCH  22  24
ENDBRANCH   3  22
TORSDOF 6
ENDMDL
MODEL 9
REMARK VINA RESULT:      -6.9      2.101      5.372
REMARK  Name = 
REMARK  6 active torsions:
REMARK  status: ('A' for Active; 'I' for Inactive)
REMARK    1  A    between atoms: O_2  and  C_3
REMARK    2  A    between atoms: C_3  and  C_5
REMARK    3  A    between atoms: C_11  and  C_12
REMARK    4  A    between atoms: C_12  and  O_14
REMARK    5  A    between atoms: O_14  and  C_15
REMARK    6  A    between atoms: C_18  and  C_19
REMARK                            x       y       z     vdW  Elec       q    Type
REMARK                         _______ _______ _______ _____ _____    ______ ____
ROOT
ATOM      1  C   UNL     1       2.028   5.895  -5.983  0.00  0.00    +0.073 C 
ATOM      2  C   UNL     1       1.951   5.506  -4.407  0.00  0.00    +0.083 C 
ATOM      3  C   UNL     1       2.904   6.714  -3.901  0.00  0.00    +0.073 C 
ATOM      4  C   UNL     1       4.015   6.888  -4.592  0.00  0.00    +0.051 C 
ATOM      5  C   UNL     1       4.925   7.963  -4.083  0.00  0.00    +0.049 C 
ATOM      6  N   UNL     1       4.306   6.273  -5.829  0.00  0.00    -0.221 NA
ATOM      7  C   UNL     1       3.240   5.595  -6.457  0.00  0.00    +0.051 C 
ATOM      8  C   UNL     1       3.489   4.683  -7.592  0.00  0.00    +0.049 C 
ENDROOT
BRANCH   2   9
ATOM      9  C   UNL     1       0.595   6.351  -4.188  0.00  0.00    +0.009 A 
ATOM     10  C   UNL     1      -0.311   5.888  -3.306  0.00  0.00    +0.140 A 
ATOM     11  C   UNL     1      -1.523   6.550  -3.149  0.00  0.00    +0.143 A 
ATOM     12  N   UNL     1      -2.253   5.646  -2.444  0.00  0.00    -0.048 NA
ATOM     13  O   UNL     1      -1.458   4.809  -1.838  0.00  0.00    -0.242 OA
ATOM     14  C   UNL     1      -1.948   7.245  -4.277  0.00  0.00    +0.024 A 
ATOM     15  C   UNL     1      -0.959   7.857  -5.036  0.00  0.00    +0.001 A 
ATOM     16  N   UNL     1      -0.285   4.975  -2.333  0.00  0.00    -0.049 NA
ATOM     17  C   UNL     1       0.310   7.292  -5.134  0.00  0.00    -0.002 A 
ENDBRANCH   2   9
BRANCH   1  18
ATOM     18  C   UNL     1       0.947   5.217  -6.726  0.00  0.00    +0.339 C 
ATOM     19  O   UNL     1       0.244   4.331  -6.146  0.00  0.00    -0.245 OA
BRANCH  18  21
ATOM     20  C   UNL     1       0.124   5.564  -9.006  0.00  0.00    +0.256 C 
ATOM     21  O   UNL     1       0.233   5.949  -7.682  0.00  0.00    -0.442 OA
ENDBRANCH  18  21
ENDBRANCH   1  18
BRANCH   3  22
ATOM     22  C   UNL     1       3.125   6.533  -2.452  0.00  0.00    +0.339 C 
ATOM     23  O   UNL     1       3.718   5.532  -1.972  0.00  0.00    -0.245 OA
BRANCH  22  24
ATOM     24  O   UNL     1       2.446   7.312  -1.510  0.00  0.00    -0.449 OA
BRANCH  24  25
ATOM     25  C   UNL     1       3.072   7.784  -0.317  0.00  0.00    +0.169 C 
ATOM     26  C   UNL     1       3.705   9.112  -0.721  0.00  0.00    +0.047 C 
ATOM     27  C   UNL     1       1.938   8.097   0.650  0.00  0.00    +0.047 C 
ENDBRANCH  24  25
ENDBRANCH  22  24
ENDBRANCH   3  22
TORSDOF 6
ENDMDL
