MODEL 1
REMARK VINA RESULT:      -8.1      0.000      0.000
REMARK  Name = 
REMARK  5 active torsions:
REMARK  status: ('A' for Active; 'I' for Inactive)
REMARK    1  A    between atoms: C_6  and  O_7
REMARK    2  A    between atoms: O_7  and  C_8
REMARK    3  A    between atoms: C_8  and  C_10
REMARK    4  A    between atoms: C_10  and  C_11
REMARK    5  A    between atoms: C_10  and  C_13
REMARK                            x       y       z     vdW  Elec       q    Type
REMARK                         _______ _______ _______ _____ _____    ______ ____
ROOT
ATOM      1  O   UNL     1       4.112   5.761  -8.165  0.00  0.00    -0.452 OA
ENDROOT
BRANCH   1   9
ATOM      2  C   UNL     1       3.969   6.032 -11.959  0.00  0.00    +0.170 C 
ATOM      3  N   UNL     1       5.063   5.688 -11.709  0.00  0.00    +0.302 N 
ATOM      4  C   UNL     1       5.653   6.837 -10.689  0.00  0.00    +0.093 C 
ATOM      5  C   UNL     1       7.366   6.859 -10.771  0.00  0.00    +0.197 C 
ATOM      6  C   UNL     1       6.649   5.497 -11.085  0.00  0.00    +0.197 C 
ATOM      7  O   UNL     1       7.385   6.349 -12.351  0.00  0.00    -0.342 OA
ATOM      8  C   UNL     1       6.004   5.879  -9.356  0.00  0.00    +0.101 C 
ATOM      9  C   UNL     1       4.498   5.324  -9.595  0.00  0.00    +0.180 C 
ATOM     10  C   UNL     1       4.377   6.863 -10.129  0.00  0.00    +0.101 C 
ATOM     11  C   UNL     1       5.500   6.926 -11.448  0.00  0.00    +0.093 C 
ATOM     12  C   UNL     1       5.469   5.431 -12.920  0.00  0.00    +0.170 C 
ENDBRANCH   1   9
BRANCH   1  13
ATOM     13  C   UNL     1       2.939   5.057  -7.972  0.00  0.00    +0.323 C 
ATOM     14  O   UNL     1       2.767   4.283  -8.981  0.00  0.00    -0.250 OA
BRANCH  13  15
ATOM     15  C   UNL     1       1.560   5.889  -8.013  0.00  0.00    +0.154 C 
BRANCH  15  16
ATOM     16  C   UNL     1       0.872   5.107  -6.775  0.00  0.00    -0.009 A 
ATOM     17  C   UNL     1      -0.430   4.990  -7.259  0.00  0.00    -0.004 A 
ATOM     18  C   UNL     1      -1.466   5.739  -6.742  0.00  0.00    -0.000 A 
ATOM     19  C   UNL     1      -1.447   5.867  -5.353  0.00  0.00    -0.000 A 
ATOM     20  C   UNL     1      -0.264   5.518  -4.721  0.00  0.00    -0.000 A 
ATOM     21  C   UNL     1       0.892   5.536  -5.509  0.00  0.00    -0.004 A 
ENDBRANCH  15  16
BRANCH  15  22
ATOM     22  C   UNL     1       2.062   7.210  -7.201  0.00  0.00    +0.198 C 
ATOM     23  O   UNL     1       2.060   8.321  -7.823  0.00  0.00    -0.219 OA
ENDBRANCH  15  22
ENDBRANCH  13  15
ENDBRANCH   1  13
TORSDOF 5
ENDMDL
MODEL 2
REMARK VINA RESULT:      -8.0      2.007      2.876
REMARK  Name = 
REMARK  5 active torsions:
REMARK  status: ('A' for Active; 'I' for Inactive)
REMARK    1  A    between atoms: C_6  and  O_7
REMARK    2  A    between atoms: O_7  and  C_8
REMARK    3  A    between atoms: C_8  and  C_10
REMARK    4  A    between atoms: C_10  and  C_11
REMARK    5  A    between atoms: C_10  and  C_13
REMARK                            x       y       z     vdW  Elec       q    Type
REMARK                         _______ _______ _______ _____ _____    ______ ____
ROOT
ATOM      1  O   UNL     1       3.698   5.889  -9.013  0.00  0.00    -0.452 OA
ENDROOT
BRANCH   1   9
ATOM      2  C   UNL     1       4.980   5.988 -12.595  0.00  0.00    +0.170 C 
ATOM      3  N   UNL     1       5.904   5.683 -11.939  0.00  0.00    +0.302 N 
ATOM      4  C   UNL     1       6.063   6.890 -10.831  0.00  0.00    +0.093 C 
ATOM      5  C   UNL     1       7.682   6.950 -10.270  0.00  0.00    +0.197 C 
ATOM      6  C   UNL     1       7.143   5.558 -10.760  0.00  0.00    +0.197 C 
ATOM      7  O   UNL     1       8.293   6.372 -11.701  0.00  0.00    -0.342 OA
ATOM      8  C   UNL     1       5.897   6.001  -9.418  0.00  0.00    +0.101 C 
ATOM      9  C   UNL     1       4.592   5.399 -10.172  0.00  0.00    +0.180 C 
ATOM     10  C   UNL     1       4.670   6.909 -10.790  0.00  0.00    +0.101 C 
ATOM     11  C   UNL     1       6.204   6.942 -11.596  0.00  0.00    +0.093 C 
ATOM     12  C   UNL     1       6.734   5.382 -12.897  0.00  0.00    +0.170 C 
ENDBRANCH   1   9
BRANCH   1  13
ATOM     13  C   UNL     1       3.785   4.825  -8.134  0.00  0.00    +0.323 C 
ATOM     14  O   UNL     1       3.110   3.848  -8.621  0.00  0.00    -0.250 OA
BRANCH  13  15
ATOM     15  C   UNL     1       3.063   4.985  -6.702  0.00  0.00    +0.154 C 
BRANCH  15  16
ATOM     16  C   UNL     1       4.253   5.849  -6.027  0.00  0.00    -0.009 A 
ATOM     17  C   UNL     1       4.635   4.976  -5.010  0.00  0.00    -0.004 A 
ATOM     18  C   UNL     1       4.343   5.232  -3.687  0.00  0.00    -0.000 A 
ATOM     19  C   UNL     1       4.510   6.563  -3.306  0.00  0.00    -0.000 A 
ATOM     20  C   UNL     1       4.628   7.484  -4.335  0.00  0.00    -0.000 A 
ATOM     21  C   UNL     1       4.113   7.100  -5.578  0.00  0.00    -0.004 A 
ENDBRANCH  15  16
BRANCH  15  22
ATOM     22  C   UNL     1       2.068   6.219  -7.081  0.00  0.00    +0.198 C 
ATOM     23  O   UNL     1       0.830   5.957  -7.225  0.00  0.00    -0.219 OA
ENDBRANCH  15  22
ENDBRANCH  13  15
ENDBRANCH   1  13
TORSDOF 5
ENDMDL
MODEL 3
REMARK VINA RESULT:      -7.9      2.817      7.681
REMARK  Name = 
REMARK  5 active torsions:
REMARK  status: ('A' for Active; 'I' for Inactive)
REMARK    1  A    between atoms: C_6  and  O_7
REMARK    2  A    between atoms: O_7  and  C_8
REMARK    3  A    between atoms: C_8  and  C_10
REMARK    4  A    between atoms: C_10  and  C_11
REMARK    5  A    between atoms: C_10  and  C_13
REMARK                            x       y       z     vdW  Elec       q    Type
REMARK                         _______ _______ _______ _____ _____    ______ ____
ROOT
ATOM      1  O   UNL     1       0.471   5.693  -7.552  0.00  0.00    -0.452 OA
ENDROOT
BRANCH   1   9
ATOM      2  C   UNL     1       0.630   6.042  -3.765  0.00  0.00    +0.170 C 
ATOM      3  N   UNL     1      -0.476   5.733  -4.006  0.00  0.00    +0.302 N 
ATOM      4  C   UNL     1      -1.026   6.880  -5.051  0.00  0.00    +0.093 C 
ATOM      5  C   UNL     1      -2.737   6.965  -4.968  0.00  0.00    +0.197 C 
ATOM      6  C   UNL     1      -2.069   5.585  -4.624  0.00  0.00    +0.197 C 
ATOM      7  O   UNL     1      -2.771   6.491  -3.377  0.00  0.00    -0.342 OA
ATOM      8  C   UNL     1      -1.413   5.906  -6.361  0.00  0.00    +0.101 C 
ATOM      9  C   UNL     1       0.072   5.302  -6.112  0.00  0.00    +0.180 C 
ATOM     10  C   UNL     1       0.250   6.847  -5.612  0.00  0.00    +0.101 C 
ATOM     11  C   UNL     1      -0.869   6.980  -4.293  0.00  0.00    +0.093 C 
ATOM     12  C   UNL     1      -0.889   5.517  -2.789  0.00  0.00    +0.170 C 
ENDBRANCH   1   9
BRANCH   1  13
ATOM     13  C   UNL     1       1.656   4.997  -7.704  0.00  0.00    +0.323 C 
ATOM     14  O   UNL     1       1.835   4.279  -6.656  0.00  0.00    -0.250 OA
BRANCH  13  15
ATOM     15  C   UNL     1       3.022   5.851  -7.703  0.00  0.00    +0.154 C 
BRANCH  15  16
ATOM     16  C   UNL     1       3.716   5.032  -8.914  0.00  0.00    -0.009 A 
ATOM     17  C   UNL     1       5.023   4.962  -8.437  0.00  0.00    -0.004 A 
ATOM     18  C   UNL     1       6.040   5.709  -8.994  0.00  0.00    -0.000 A 
ATOM     19  C   UNL     1       6.007   5.779 -10.386  0.00  0.00    -0.000 A 
ATOM     20  C   UNL     1       4.826   5.381 -10.993  0.00  0.00    -0.000 A 
ATOM     21  C   UNL     1       3.676   5.408 -10.196  0.00  0.00    -0.004 A 
ENDBRANCH  15  16
BRANCH  15  22
ATOM     22  C   UNL     1       2.496   7.133  -8.562  0.00  0.00    +0.198 C 
ATOM     23  O   UNL     1       2.384   8.245  -7.954  0.00  0.00    -0.219 OA
ENDBRANCH  15  22
ENDBRANCH  13  15
ENDBRANCH   1  13
TORSDOF 5
ENDMDL
MODEL 4
REMARK VINA RESULT:      -7.7      3.507      7.503
REMARK  Name = 
REMARK  5 active torsions:
REMARK  status: ('A' for Active; 'I' for Inactive)
REMARK    1  A    between atoms: C_6  and  O_7
REMARK    2  A    between atoms: O_7  and  C_8
REMARK    3  A    between atoms: C_8  and  C_10
REMARK    4  A    between atoms: C_10  and  C_11
REMARK    5  A    between atoms: C_10  and  C_13
REMARK                            x       y       z     vdW  Elec       q    Type
REMARK                         _______ _______ _______ _____ _____    ______ ____
ROOT
ATOM      1  O   UNL     1       1.292   5.679  -6.608  0.00  0.00    -0.452 OA
ENDROOT
BRANCH   1   9
ATOM      2  C   UNL     1       0.054   5.702  -3.009  0.00  0.00    +0.170 C 
ATOM      3  N   UNL     1      -0.907   5.581  -3.671  0.00  0.00    +0.302 N 
ATOM      4  C   UNL     1      -0.895   6.876  -4.688  0.00  0.00    +0.093 C 
ATOM      5  C   UNL     1      -2.491   7.209  -5.220  0.00  0.00    +0.197 C 
ATOM      6  C   UNL     1      -2.157   5.723  -4.837  0.00  0.00    +0.197 C 
ATOM      7  O   UNL     1      -3.173   6.623  -3.824  0.00  0.00    -0.342 OA
ATOM      8  C   UNL     1      -0.866   6.077  -6.163  0.00  0.00    +0.101 C 
ATOM      9  C   UNL     1       0.341   5.240  -5.473  0.00  0.00    +0.180 C 
ATOM     10  C   UNL     1       0.486   6.697  -4.748  0.00  0.00    +0.101 C 
ATOM     11  C   UNL     1      -1.024   6.892  -3.919  0.00  0.00    +0.093 C 
ATOM     12  C   UNL     1      -1.768   5.335  -2.725  0.00  0.00    +0.170 C 
ENDBRANCH   1   9
BRANCH   1  13
ATOM     13  C   UNL     1       1.358   4.526  -7.368  0.00  0.00    +0.323 C 
ATOM     14  O   UNL     1       2.230   3.748  -6.839  0.00  0.00    -0.250 OA
BRANCH  13  15
ATOM     15  C   UNL     1       1.957   4.654  -8.858  0.00  0.00    +0.154 C 
BRANCH  15  16
ATOM     16  C   UNL     1       0.655   5.382  -9.485  0.00  0.00    -0.009 A 
ATOM     17  C   UNL     1       0.385   4.518 -10.545  0.00  0.00    -0.004 A 
ATOM     18  C   UNL     1       0.627   4.878 -11.854  0.00  0.00    -0.000 A 
ATOM     19  C   UNL     1       0.277   6.192 -12.164  0.00  0.00    -0.000 A 
ATOM     20  C   UNL     1       0.045   7.035 -11.089  0.00  0.00    -0.000 A 
ATOM     21  C   UNL     1       0.620   6.661  -9.869  0.00  0.00    -0.004 A 
ENDBRANCH  15  16
BRANCH  15  22
ATOM     22  C   UNL     1       2.875   5.982  -8.626  0.00  0.00    +0.198 C 
ATOM     23  O   UNL     1       4.125   5.880  -8.842  0.00  0.00    -0.219 OA
ENDBRANCH  15  22
ENDBRANCH  13  15
ENDBRANCH   1  13
TORSDOF 5
ENDMDL
MODEL 5
REMARK VINA RESULT:      -7.5      3.626      6.135
REMARK  Name = 
REMARK  5 active torsions:
REMARK  status: ('A' for Active; 'I' for Inactive)
REMARK    1  A    between atoms: C_6  and  O_7
REMARK    2  A    between atoms: O_7  and  C_8
REMARK    3  A    between atoms: C_8  and  C_10
REMARK    4  A    between atoms: C_10  and  C_11
REMARK    5  A    between atoms: C_10  and  C_13
REMARK                            x       y       z     vdW  Elec       q    Type
REMARK                         _______ _______ _______ _____ _____    ______ ____
ROOT
ATOM      1  O   UNL     1       3.515   5.149  -6.915  0.00  0.00    -0.452 OA
ENDROOT
BRANCH   1   9
ATOM      2  C   UNL     1       3.716   4.710  -3.139  0.00  0.00    +0.170 C 
ATOM      3  N   UNL     1       3.539   5.857  -3.313  0.00  0.00    +0.302 N 
ATOM      4  C   UNL     1       4.775   6.340  -4.288  0.00  0.00    +0.093 C 
ATOM      5  C   UNL     1       5.046   8.021  -4.088  0.00  0.00    +0.197 C 
ATOM      6  C   UNL     1       3.590   7.493  -3.827  0.00  0.00    +0.197 C 
ATOM      7  O   UNL     1       4.525   8.007  -2.512  0.00  0.00    -0.342 OA
ATOM      8  C   UNL     1       3.895   6.917  -5.595  0.00  0.00    +0.101 C 
ATOM      9  C   UNL     1       3.122   5.496  -5.462  0.00  0.00    +0.180 C 
ATOM     10  C   UNL     1       4.620   5.114  -4.934  0.00  0.00    +0.101 C 
ATOM     11  C   UNL     1       4.831   6.124  -3.541  0.00  0.00    +0.093 C 
ATOM     12  C   UNL     1       3.329   6.213  -2.077  0.00  0.00    +0.170 C 
ENDBRANCH   1   9
BRANCH   1  13
ATOM     13  C   UNL     1       2.322   4.657  -7.409  0.00  0.00    +0.323 C 
ATOM     14  O   UNL     1       2.127   3.495  -6.899  0.00  0.00    -0.250 OA
BRANCH  13  15
ATOM     15  C   UNL     1       2.262   4.294  -8.978  0.00  0.00    +0.154 C 
BRANCH  15  16
ATOM     16  C   UNL     1       0.963   5.205  -9.296  0.00  0.00    -0.009 A 
ATOM     17  C   UNL     1       0.359   4.424 -10.279  0.00  0.00    -0.004 A 
ATOM     18  C   UNL     1       0.357   4.800 -11.606  0.00  0.00    -0.000 A 
ATOM     19  C   UNL     1       0.126   6.159 -11.819  0.00  0.00    -0.000 A 
ATOM     20  C   UNL     1       0.246   6.983 -10.711  0.00  0.00    -0.000 A 
ATOM     21  C   UNL     1       1.016   6.492  -9.650  0.00  0.00    -0.004 A 
ENDBRANCH  15  16
BRANCH  15  22
ATOM     22  C   UNL     1       3.406   5.331  -9.499  0.00  0.00    +0.198 C 
ATOM     23  O   UNL     1       4.366   4.854 -10.185  0.00  0.00    -0.219 OA
ENDBRANCH  15  22
ENDBRANCH  13  15
ENDBRANCH   1  13
TORSDOF 5
ENDMDL
MODEL 6
REMARK VINA RESULT:      -7.5      2.464      7.364
REMARK  Name = 
REMARK  5 active torsions:
REMARK  status: ('A' for Active; 'I' for Inactive)
REMARK    1  A    between atoms: C_6  and  O_7
REMARK    2  A    between atoms: O_7  and  C_8
REMARK    3  A    between atoms: C_8  and  C_10
REMARK    4  A    between atoms: C_10  and  C_11
REMARK    5  A    between atoms: C_10  and  C_13
REMARK                            x       y       z     vdW  Elec       q    Type
REMARK                         _______ _______ _______ _____ _____    ______ ____
ROOT
ATOM      1  O   UNL     1       2.473   6.099  -7.171  0.00  0.00    -0.452 OA
ENDROOT
BRANCH   1   9
ATOM      2  C   UNL     1      -1.213   5.202  -6.851  0.00  0.00    +0.170 C 
ATOM      3  N   UNL     1      -1.037   6.084  -6.097  0.00  0.00    +0.302 N 
ATOM      4  C   UNL     1       0.165   5.564  -5.100  0.00  0.00    +0.093 C 
ATOM      5  C   UNL     1       0.074   6.396  -3.602  0.00  0.00    +0.197 C 
ATOM      6  C   UNL     1      -0.470   7.143  -4.872  0.00  0.00    +0.197 C 
ATOM      7  O   UNL     1      -1.572   6.591  -3.710  0.00  0.00    -0.342 OA
ATOM      8  C   UNL     1       1.305   6.764  -5.381  0.00  0.00    +0.101 C 
ATOM      9  C   UNL     1       0.985   6.440  -6.938  0.00  0.00    +0.180 C 
ATOM     10  C   UNL     1       0.731   4.988  -6.236  0.00  0.00    +0.101 C 
ATOM     11  C   UNL     1      -0.566   5.293  -5.125  0.00  0.00    +0.093 C 
ATOM     12  C   UNL     1      -2.278   6.318  -5.776  0.00  0.00    +0.170 C 
ENDBRANCH   1   9
BRANCH   1  13
ATOM     13  C   UNL     1       2.690   6.664  -8.414  0.00  0.00    +0.323 C 
ATOM     14  O   UNL     1       1.549   6.889  -8.956  0.00  0.00    -0.250 OA
BRANCH  13  15
ATOM     15  C   UNL     1       3.365   5.734  -9.544  0.00  0.00    +0.154 C 
BRANCH  15  16
ATOM     16  C   UNL     1       4.860   6.325  -9.355  0.00  0.00    -0.009 A 
ATOM     17  C   UNL     1       4.988   7.034 -10.549  0.00  0.00    -0.004 A 
ATOM     18  C   UNL     1       5.804   6.594 -11.570  0.00  0.00    -0.000 A 
ATOM     19  C   UNL     1       7.029   6.079 -11.147  0.00  0.00    -0.000 A 
ATOM     20  C   UNL     1       7.138   5.785  -9.797  0.00  0.00    -0.000 A 
ATOM     21  C   UNL     1       5.939   5.578  -9.106  0.00  0.00    -0.004 A 
ENDBRANCH  15  16
BRANCH  15  22
ATOM     22  C   UNL     1       3.539   4.379  -8.655  0.00  0.00    +0.198 C 
ATOM     23  O   UNL     1       2.675   3.457  -8.808  0.00  0.00    -0.219 OA
ENDBRANCH  15  22
ENDBRANCH  13  15
ENDBRANCH   1  13
TORSDOF 5
ENDMDL
MODEL 7
REMARK VINA RESULT:      -7.4      3.289      6.882
REMARK  Name = 
REMARK  5 active torsions:
REMARK  status: ('A' for Active; 'I' for Inactive)
REMARK    1  A    between atoms: C_6  and  O_7
REMARK    2  A    between atoms: O_7  and  C_8
REMARK    3  A    between atoms: C_8  and  C_10
REMARK    4  A    between atoms: C_10  and  C_11
REMARK    5  A    between atoms: C_10  and  C_13
REMARK                            x       y       z     vdW  Elec       q    Type
REMARK                         _______ _______ _______ _____ _____    ______ ____
ROOT
ATOM      1  O   UNL     1       2.798   5.116  -6.602  0.00  0.00    -0.452 OA
ENDROOT
BRANCH   1   9
ATOM      2  C   UNL     1       2.534   5.443  -2.819  0.00  0.00    +0.170 C 
ATOM      3  N   UNL     1       3.079   6.417  -3.182  0.00  0.00    +0.302 N 
ATOM      4  C   UNL     1       4.402   5.888  -4.007  0.00  0.00    +0.093 C 
ATOM      5  C   UNL     1       5.607   7.108  -4.009  0.00  0.00    +0.197 C 
ATOM      6  C   UNL     1       4.112   7.577  -3.909  0.00  0.00    +0.197 C 
ATOM      7  O   UNL     1       5.111   7.725  -2.550  0.00  0.00    -0.342 OA
ATOM      8  C   UNL     1       4.094   6.576  -5.506  0.00  0.00    +0.101 C 
ATOM      9  C   UNL     1       2.625   5.920  -5.295  0.00  0.00    +0.180 C 
ATOM     10  C   UNL     1       3.579   4.871  -4.487  0.00  0.00    +0.101 C 
ATOM     11  C   UNL     1       4.287   5.842  -3.237  0.00  0.00    +0.093 C 
ATOM     12  C   UNL     1       3.067   7.078  -2.059  0.00  0.00    +0.170 C 
ENDBRANCH   1   9
BRANCH   1  13
ATOM     13  C   UNL     1       2.747   6.121  -7.549  0.00  0.00    +0.323 C 
ATOM     14  O   UNL     1       1.522   6.472  -7.694  0.00  0.00    -0.250 OA
BRANCH  13  15
ATOM     15  C   UNL     1       3.113   5.728  -9.068  0.00  0.00    +0.154 C 
BRANCH  15  16
ATOM     16  C   UNL     1       4.630   6.291  -9.011  0.00  0.00    -0.009 A 
ATOM     17  C   UNL     1       4.709   6.891 -10.266  0.00  0.00    -0.004 A 
ATOM     18  C   UNL     1       5.458   6.343 -11.286  0.00  0.00    -0.000 A 
ATOM     19  C   UNL     1       6.692   5.832 -10.885  0.00  0.00    -0.000 A 
ATOM     20  C   UNL     1       6.867   5.651  -9.523  0.00  0.00    -0.000 A 
ATOM     21  C   UNL     1       5.703   5.537  -8.754  0.00  0.00    -0.004 A 
ENDBRANCH  15  16
BRANCH  15  22
ATOM     22  C   UNL     1       3.444   4.150  -8.826  0.00  0.00    +0.198 C 
ATOM     23  O   UNL     1       2.464   3.338  -8.814  0.00  0.00    -0.219 OA
ENDBRANCH  15  22
ENDBRANCH  13  15
ENDBRANCH   1  13
TORSDOF 5
ENDMDL
MODEL 8
REMARK VINA RESULT:      -7.4      3.401      6.425
REMARK  Name = 
REMARK  5 active torsions:
REMARK  status: ('A' for Active; 'I' for Inactive)
REMARK    1  A    between atoms: C_6  and  O_7
REMARK    2  A    between atoms: O_7  and  C_8
REMARK    3  A    between atoms: C_8  and  C_10
REMARK    4  A    between atoms: C_10  and  C_11
REMARK    5  A    between atoms: C_10  and  C_13
REMARK                            x       y       z     vdW  Elec       q    Type
REMARK                         _______ _______ _______ _____ _____    ______ ____
ROOT
ATOM      1  O   UNL     1       3.735   6.754  -7.210  0.00  0.00    -0.452 OA
ENDROOT
BRANCH   1   9
ATOM      2  C   UNL     1       1.535   5.249  -4.493  0.00  0.00    +0.170 C 
ATOM      3  N   UNL     1       2.077   6.161  -3.990  0.00  0.00    +0.302 N 
ATOM      4  C   UNL     1       3.685   5.870  -4.190  0.00  0.00    +0.093 C 
ATOM      5  C   UNL     1       4.577   6.698  -2.982  0.00  0.00    +0.197 C 
ATOM      6  C   UNL     1       3.200   7.321  -3.411  0.00  0.00    +0.197 C 
ATOM      7  O   UNL     1       3.338   6.609  -1.881  0.00  0.00    -0.342 OA
ATOM      8  C   UNL     1       4.114   7.240  -5.058  0.00  0.00    +0.101 C 
ATOM      9  C   UNL     1       2.828   6.841  -5.963  0.00  0.00    +0.180 C 
ATOM     10  C   UNL     1       3.344   5.379  -5.449  0.00  0.00    +0.101 C 
ATOM     11  C   UNL     1       3.197   5.478  -3.724  0.00  0.00    +0.093 C 
ATOM     12  C   UNL     1       1.417   6.185  -2.866  0.00  0.00    +0.170 C 
ENDBRANCH   1   9
BRANCH   1  13
ATOM     13  C   UNL     1       2.841   7.058  -8.219  0.00  0.00    +0.323 C 
ATOM     14  O   UNL     1       2.075   8.000  -7.804  0.00  0.00    -0.250 OA
BRANCH  13  15
ATOM     15  C   UNL     1       1.742   5.943  -8.597  0.00  0.00    +0.154 C 
BRANCH  15  16
ATOM     16  C   UNL     1       1.456   6.508 -10.086  0.00  0.00    -0.009 A 
ATOM     17  C   UNL     1       0.152   6.053 -10.269  0.00  0.00    -0.004 A 
ATOM     18  C   UNL     1      -0.140   5.011 -11.123  0.00  0.00    -0.000 A 
ATOM     19  C   UNL     1       0.564   5.037 -12.327  0.00  0.00    -0.000 A 
ATOM     20  C   UNL     1       1.659   5.886 -12.377  0.00  0.00    -0.000 A 
ATOM     21  C   UNL     1       2.224   6.248 -11.149  0.00  0.00    -0.004 A 
ENDBRANCH  15  16
BRANCH  15  22
ATOM     22  C   UNL     1       2.763   4.737  -8.999  0.00  0.00    +0.198 C 
ATOM     23  O   UNL     1       2.579   3.602  -8.454  0.00  0.00    -0.219 OA
ENDBRANCH  15  22
ENDBRANCH  13  15
ENDBRANCH   1  13
TORSDOF 5
ENDMDL
MODEL 9
REMARK VINA RESULT:      -7.3      4.207      5.618
REMARK  Name = 
REMARK  5 active torsions:
REMARK  status: ('A' for Active; 'I' for Inactive)
REMARK    1  A    between atoms: C_6  and  O_7
REMARK    2  A    between atoms: O_7  and  C_8
REMARK    3  A    between atoms: C_8  and  C_10
REMARK    4  A    between atoms: C_10  and  C_11
REMARK    5  A    between atoms: C_10  and  C_13
REMARK                            x       y       z     vdW  Elec       q    Type
REMARK                         _______ _______ _______ _____ _____    ______ ____
ROOT
ATOM      1  O   UNL     1       2.999   5.451  -6.697  0.00  0.00    -0.452 OA
ENDROOT
BRANCH   1   9
ATOM      2  C   UNL     1       4.030   4.521  -3.153  0.00  0.00    +0.170 C 
ATOM      3  N   UNL     1       3.790   5.669  -3.120  0.00  0.00    +0.302 N 
ATOM      4  C   UNL     1       4.770   6.347  -4.256  0.00  0.00    +0.093 C 
ATOM      5  C   UNL     1       5.034   8.000  -3.879  0.00  0.00    +0.197 C 
ATOM      6  C   UNL     1       3.685   7.359  -3.392  0.00  0.00    +0.197 C 
ATOM      7  O   UNL     1       4.871   7.745  -2.246  0.00  0.00    -0.342 OA
ATOM      8  C   UNL     1       3.611   7.044  -5.249  0.00  0.00    +0.101 C 
ATOM      9  C   UNL     1       2.924   5.577  -5.160  0.00  0.00    +0.180 C 
ATOM     10  C   UNL     1       4.510   5.213  -5.022  0.00  0.00    +0.101 C 
ATOM     11  C   UNL     1       4.994   6.037  -3.576  0.00  0.00    +0.093 C 
ATOM     12  C   UNL     1       3.846   5.844  -1.829  0.00  0.00    +0.170 C 
ENDBRANCH   1   9
BRANCH   1  13
ATOM     13  C   UNL     1       1.871   4.698  -6.963  0.00  0.00    +0.323 C 
ATOM     14  O   UNL     1       2.121   3.945  -7.972  0.00  0.00    -0.250 OA
BRANCH  13  15
ATOM     15  C   UNL     1       0.569   5.478  -7.506  0.00  0.00    +0.154 C 
BRANCH  15  16
ATOM     16  C   UNL     1      -0.039   5.798  -6.041  0.00  0.00    -0.009 A 
ATOM     17  C   UNL     1      -1.298   5.215  -6.173  0.00  0.00    -0.004 A 
ATOM     18  C   UNL     1      -2.441   5.977  -6.290  0.00  0.00    -0.000 A 
ATOM     19  C   UNL     1      -2.480   7.092  -5.453  0.00  0.00    -0.000 A 
ATOM     20  C   UNL     1      -1.278   7.462  -4.869  0.00  0.00    -0.000 A 
ATOM     21  C   UNL     1      -0.113   7.021  -5.508  0.00  0.00    -0.004 A 
ENDBRANCH  15  16
BRANCH  15  22
ATOM     22  C   UNL     1       1.267   6.924  -7.787  0.00  0.00    +0.198 C 
ATOM     23  O   UNL     1       1.518   7.233  -8.996  0.00  0.00    -0.219 OA
ENDBRANCH  15  22
ENDBRANCH  13  15
ENDBRANCH   1  13
TORSDOF 5
ENDMDL
