MODEL 1
REMARK VINA RESULT:      -6.1      0.000      0.000
REMARK  Name = 
REMARK  0 active torsions:
REMARK  status: ('A' for Active; 'I' for Inactive)
REMARK                            x       y       z     vdW  Elec       q    Type
REMARK                         _______ _______ _______ _____ _____    ______ ____
ROOT
ATOM      1  O   UNL     1       5.160   4.631 -13.476  0.00  0.00    -0.285 OA
ATOM      2  C   UNL     1       6.176   5.302 -12.794  0.00  0.00    +0.213 A 
ATOM      3  C   UNL     1       5.990   5.797 -11.512  0.00  0.00    +0.120 A 
ATOM      4  C   UNL     1       7.085   5.900 -10.666  0.00  0.00    +0.021 A 
ATOM      5  C   UNL     1       7.017   5.615  -9.320  0.00  0.00    +0.003 A 
ATOM      6  C   UNL     1       5.780   5.396  -8.752  0.00  0.00    +0.021 A 
ATOM      7  C   UNL     1       4.675   5.523  -9.576  0.00  0.00    +0.099 A 
ATOM      8  C   UNL     1       8.315   6.064 -11.282  0.00  0.00    +0.002 A 
ATOM      9  C   UNL     1       8.466   5.920 -12.631  0.00  0.00    +0.003 A 
ATOM     10  N   UNL     1       4.789   5.708 -10.910  0.00  0.00    -0.241 NA
ATOM     11  C   UNL     1       7.369   5.580 -13.413  0.00  0.00    +0.044 A 
ENDROOT
TORSDOF 0
ENDMDL
MODEL 2
REMARK VINA RESULT:      -5.7      9.117     11.492
REMARK  Name = 
REMARK  0 active torsions:
REMARK  status: ('A' for Active; 'I' for Inactive)
REMARK                            x       y       z     vdW  Elec       q    Type
REMARK                         _______ _______ _______ _____ _____    ______ ____
ROOT
ATOM      1  O   UNL     1       0.035   4.608  -1.940  0.00  0.00    -0.285 OA
ATOM      2  C   UNL     1      -0.955   5.425  -2.487  0.00  0.00    +0.213 A 
ATOM      3  C   UNL     1      -0.915   5.831  -3.813  0.00  0.00    +0.120 A 
ATOM      4  C   UNL     1      -2.107   6.096  -4.471  0.00  0.00    +0.021 A 
ATOM      5  C   UNL     1      -2.326   5.755  -5.786  0.00  0.00    +0.003 A 
ATOM      6  C   UNL     1      -1.264   5.296  -6.536  0.00  0.00    +0.021 A 
ATOM      7  C   UNL     1      -0.026   5.253  -5.917  0.00  0.00    +0.099 A 
ATOM      8  C   UNL     1      -3.165   6.502  -3.671  0.00  0.00    +0.002 A 
ATOM      9  C   UNL     1      -3.099   6.438  -2.309  0.00  0.00    +0.003 A 
ATOM     10  N   UNL     1       0.129   5.505  -4.598  0.00  0.00    -0.241 NA
ATOM     11  C   UNL     1      -1.956   5.936  -1.699  0.00  0.00    +0.044 A 
ENDROOT
TORSDOF 0
ENDMDL
MODEL 3
REMARK VINA RESULT:      -5.6      1.215      3.302
REMARK  Name = 
REMARK  0 active torsions:
REMARK  status: ('A' for Active; 'I' for Inactive)
REMARK                            x       y       z     vdW  Elec       q    Type
REMARK                         _______ _______ _______ _____ _____    ______ ____
ROOT
ATOM      1  O   UNL     1       3.580   5.922 -11.686  0.00  0.00    -0.285 OA
ATOM      2  C   UNL     1       4.742   5.646 -10.966  0.00  0.00    +0.213 A 
ATOM      3  C   UNL     1       5.932   5.318 -11.600  0.00  0.00    +0.120 A 
ATOM      4  C   UNL     1       7.133   5.629 -10.978  0.00  0.00    +0.021 A 
ATOM      5  C   UNL     1       8.234   6.086 -11.668  0.00  0.00    +0.003 A 
ATOM      6  C   UNL     1       8.208   6.062 -13.046  0.00  0.00    +0.021 A 
ATOM      7  C   UNL     1       7.079   5.532 -13.647  0.00  0.00    +0.099 A 
ATOM      8  C   UNL     1       7.101   5.696  -9.594  0.00  0.00    +0.002 A 
ATOM      9  C   UNL     1       5.924   5.670  -8.902  0.00  0.00    +0.003 A 
ATOM     10  N   UNL     1       5.981   5.184 -12.938  0.00  0.00    -0.241 NA
ATOM     11  C   UNL     1       4.721   5.594  -9.595  0.00  0.00    +0.044 A 
ENDROOT
TORSDOF 0
ENDMDL
MODEL 4
REMARK VINA RESULT:      -5.6      1.590      2.592
REMARK  Name = 
REMARK  0 active torsions:
REMARK  status: ('A' for Active; 'I' for Inactive)
REMARK                            x       y       z     vdW  Elec       q    Type
REMARK                         _______ _______ _______ _____ _____    ______ ____
ROOT
ATOM      1  O   UNL     1       7.657   4.733 -13.151  0.00  0.00    -0.285 OA
ATOM      2  C   UNL     1       7.243   5.300 -11.945  0.00  0.00    +0.213 A 
ATOM      3  C   UNL     1       5.983   5.860 -11.797  0.00  0.00    +0.120 A 
ATOM      4  C   UNL     1       5.390   5.858 -10.543  0.00  0.00    +0.021 A 
ATOM      5  C   UNL     1       4.045   5.633 -10.353  0.00  0.00    +0.003 A 
ATOM      6  C   UNL     1       3.220   5.587 -11.457  0.00  0.00    +0.021 A 
ATOM      7  C   UNL     1       3.803   5.818 -12.691  0.00  0.00    +0.099 A 
ATOM      8  C   UNL     1       6.257   5.850  -9.461  0.00  0.00    +0.002 A 
ATOM      9  C   UNL     1       7.597   5.640  -9.618  0.00  0.00    +0.003 A 
ATOM     10  N   UNL     1       5.141   5.939 -12.844  0.00  0.00    -0.241 NA
ATOM     11  C   UNL     1       8.112   5.408 -10.888  0.00  0.00    +0.044 A 
ENDROOT
TORSDOF 0
ENDMDL
MODEL 5
REMARK VINA RESULT:      -5.5      9.158     10.983
REMARK  Name = 
REMARK  0 active torsions:
REMARK  status: ('A' for Active; 'I' for Inactive)
REMARK                            x       y       z     vdW  Elec       q    Type
REMARK                         _______ _______ _______ _____ _____    ______ ____
ROOT
ATOM      1  O   UNL     1       1.321   5.416  -3.909  0.00  0.00    -0.285 OA
ATOM      2  C   UNL     1       0.050   5.387  -4.484  0.00  0.00    +0.213 A 
ATOM      3  C   UNL     1      -1.100   5.325  -3.710  0.00  0.00    +0.120 A 
ATOM      4  C   UNL     1      -2.272   5.880  -4.202  0.00  0.00    +0.021 A 
ATOM      5  C   UNL     1      -3.164   6.566  -3.408  0.00  0.00    +0.003 A 
ATOM      6  C   UNL     1      -2.982   6.548  -2.041  0.00  0.00    +0.021 A 
ATOM      7  C   UNL     1      -1.927   5.796  -1.554  0.00  0.00    +0.099 A 
ATOM      8  C   UNL     1      -2.389   5.927  -5.582  0.00  0.00    +0.002 A 
ATOM      9  C   UNL     1      -1.333   5.644  -6.401  0.00  0.00    +0.003 A 
ATOM     10  N   UNL     1      -1.018   5.216  -2.370  0.00  0.00    -0.241 NA
ATOM     11  C   UNL     1      -0.101   5.320  -5.846  0.00  0.00    +0.044 A 
ENDROOT
TORSDOF 0
ENDMDL
MODEL 6
REMARK VINA RESULT:      -5.2      8.110      9.744
REMARK  Name = 
REMARK  0 active torsions:
REMARK  status: ('A' for Active; 'I' for Inactive)
REMARK                            x       y       z     vdW  Elec       q    Type
REMARK                         _______ _______ _______ _____ _____    ______ ____
ROOT
ATOM      1  O   UNL     1      -1.450   5.820  -2.764  0.00  0.00    -0.285 OA
ATOM      2  C   UNL     1      -1.349   5.819  -4.155  0.00  0.00    +0.213 A 
ATOM      3  C   UNL     1      -0.119   5.826  -4.798  0.00  0.00    +0.120 A 
ATOM      4  C   UNL     1      -0.012   5.244  -6.052  0.00  0.00    +0.021 A 
ATOM      5  C   UNL     1       1.087   4.512  -6.444  0.00  0.00    +0.003 A 
ATOM      6  C   UNL     1       2.202   4.507  -5.633  0.00  0.00    +0.021 A 
ATOM      7  C   UNL     1       2.153   5.284  -4.487  0.00  0.00    +0.099 A 
ATOM      8  C   UNL     1      -1.170   5.222  -6.812  0.00  0.00    +0.002 A 
ATOM      9  C   UNL     1      -2.383   5.556  -6.281  0.00  0.00    +0.003 A 
ATOM     10  N   UNL     1       1.023   5.910  -4.089  0.00  0.00    -0.241 NA
ATOM     11  C   UNL     1      -2.472   5.909  -4.939  0.00  0.00    +0.044 A 
ENDROOT
TORSDOF 0
ENDMDL
MODEL 7
REMARK VINA RESULT:      -5.2      7.380      9.051
REMARK  Name = 
REMARK  0 active torsions:
REMARK  status: ('A' for Active; 'I' for Inactive)
REMARK                            x       y       z     vdW  Elec       q    Type
REMARK                         _______ _______ _______ _____ _____    ______ ____
ROOT
ATOM      1  O   UNL     1      -0.442   5.392  -8.307  0.00  0.00    -0.285 OA
ATOM      2  C   UNL     1      -0.818   5.375  -6.963  0.00  0.00    +0.213 A 
ATOM      3  C   UNL     1       0.049   4.946  -5.969  0.00  0.00    +0.120 A 
ATOM      4  C   UNL     1      -0.082   5.469  -4.691  0.00  0.00    +0.021 A 
ATOM      5  C   UNL     1       1.000   5.775  -3.895  0.00  0.00    +0.003 A 
ATOM      6  C   UNL     1       2.255   5.378  -4.305  0.00  0.00    +0.021 A 
ATOM      7  C   UNL     1       2.336   4.653  -5.482  0.00  0.00    +0.099 A 
ATOM      8  C   UNL     1      -1.350   5.906  -4.340  0.00  0.00    +0.002 A 
ATOM      9  C   UNL     1      -2.352   6.011  -5.261  0.00  0.00    +0.003 A 
ATOM     10  N   UNL     1       1.264   4.458  -6.282  0.00  0.00    -0.241 NA
ATOM     11  C   UNL     1      -2.100   5.695  -6.591  0.00  0.00    +0.044 A 
ENDROOT
TORSDOF 0
ENDMDL
MODEL 8
REMARK VINA RESULT:      -5.1      5.958      7.574
REMARK  Name = 
REMARK  0 active torsions:
REMARK  status: ('A' for Active; 'I' for Inactive)
REMARK                            x       y       z     vdW  Elec       q    Type
REMARK                         _______ _______ _______ _____ _____    ______ ____
ROOT
ATOM      1  O   UNL     1       2.750   7.687  -6.878  0.00  0.00    -0.285 OA
ATOM      2  C   UNL     1       1.919   6.804  -7.567  0.00  0.00    +0.213 A 
ATOM      3  C   UNL     1       1.036   5.964  -6.903  0.00  0.00    +0.120 A 
ATOM      4  C   UNL     1      -0.130   5.573  -7.544  0.00  0.00    +0.021 A 
ATOM      5  C   UNL     1      -1.337   5.455  -6.892  0.00  0.00    +0.003 A 
ATOM      6  C   UNL     1      -1.357   5.550  -5.516  0.00  0.00    +0.021 A 
ATOM      7  C   UNL     1      -0.141   5.717  -4.876  0.00  0.00    +0.099 A 
ATOM      8  C   UNL     1      -0.082   5.543  -8.929  0.00  0.00    +0.002 A 
ATOM      9  C   UNL     1       0.972   6.068  -9.620  0.00  0.00    +0.003 A 
ATOM     10  N   UNL     1       1.009   5.925  -5.558  0.00  0.00    -0.241 NA
ATOM     11  C   UNL     1       2.018   6.668  -8.929  0.00  0.00    +0.044 A 
ENDROOT
TORSDOF 0
ENDMDL
MODEL 9
REMARK VINA RESULT:      -5.1      7.489      9.284
REMARK  Name = 
REMARK  0 active torsions:
REMARK  status: ('A' for Active; 'I' for Inactive)
REMARK                            x       y       z     vdW  Elec       q    Type
REMARK                         _______ _______ _______ _____ _____    ______ ____
ROOT
ATOM      1  O   UNL     1       1.934   6.849  -4.678  0.00  0.00    -0.285 OA
ATOM      2  C   UNL     1       1.103   6.183  -5.579  0.00  0.00    +0.213 A 
ATOM      3  C   UNL     1      -0.060   5.549  -5.167  0.00  0.00    +0.120 A 
ATOM      4  C   UNL     1      -1.116   5.435  -6.060  0.00  0.00    +0.021 A 
ATOM      5  C   UNL     1      -2.432   5.577  -5.681  0.00  0.00    +0.003 A 
ATOM      6  C   UNL     1      -2.729   5.652  -4.336  0.00  0.00    +0.021 A 
ATOM      7  C   UNL     1      -1.673   5.535  -3.449  0.00  0.00    +0.099 A 
ATOM      8  C   UNL     1      -0.776   5.418  -7.403  0.00  0.00    +0.002 A 
ATOM      9  C   UNL     1       0.489   5.708  -7.827  0.00  0.00    +0.003 A 
ATOM     10  N   UNL     1      -0.386   5.494  -3.862  0.00  0.00    -0.241 NA
ATOM     11  C   UNL     1       1.463   6.051  -6.896  0.00  0.00    +0.044 A 
ENDROOT
TORSDOF 0
ENDMDL
