MODEL 1
REMARK VINA RESULT:      -8.6      0.000      0.000
REMARK  Name = 
REMARK  7 active torsions:
REMARK  status: ('A' for Active; 'I' for Inactive)
REMARK    1  A    between atoms: C_4  and  C_5
REMARK    2  A    between atoms: C_9  and  C_10
REMARK    3  A    between atoms: C_10  and  O_12
REMARK    4  A    between atoms: O_12  and  C_13
REMARK    5  A    between atoms: C_13  and  C_14
REMARK    6  A    between atoms: C_18  and  O_19
REMARK    7  A    between atoms: O_19  and  C_20
REMARK                            x       y       z     vdW  Elec       q    Type
REMARK                         _______ _______ _______ _____ _____    ______ ____
ROOT
ATOM      1  C   UNL     1       3.549   6.879  -4.991  0.00  0.00    +0.235 C 
ENDROOT
BRANCH   1   2
ATOM      2  C   UNL     1       2.930   6.436  -6.281  0.00  0.00    +0.024 A 
ATOM      3  C   UNL     1       3.779   5.720  -7.150  0.00  0.00    +0.037 A 
ATOM      4  C   UNL     1       3.490   5.711  -8.506  0.00  0.00    +0.145 A 
ATOM      5  C   UNL     1       2.226   6.106  -8.932  0.00  0.00    +0.037 A 
ATOM      6  C   UNL     1       1.361   6.781  -8.112  0.00  0.00    +0.003 A 
ATOM      7  C   UNL     1       2.013   7.256  -6.955  0.00  0.00    -0.000 A 
BRANCH   4   8
ATOM      8  O   UNL     1       4.303   5.028  -9.396  0.00  0.00    -0.454 OA
BRANCH   8   9
ATOM      9  C   UNL     1       5.274   5.808 -10.012  0.00  0.00    +0.145 A 
ATOM     10  C   UNL     1       4.993   7.075 -10.501  0.00  0.00    +0.037 A 
ATOM     11  C   UNL     1       6.019   7.627 -11.257  0.00  0.00    +0.003 A 
ATOM     12  C   UNL     1       7.340   7.434 -10.881  0.00  0.00    +0.000 A 
ATOM     13  C   UNL     1       7.570   6.463  -9.934  0.00  0.00    +0.003 A 
ATOM     14  C   UNL     1       6.557   5.674  -9.473  0.00  0.00    +0.037 A 
ENDBRANCH   8   9
ENDBRANCH   4   8
ENDBRANCH   1   2
BRANCH   1  15
ATOM     15  O   UNL     1       3.543   5.860  -3.990  0.00  0.00    -0.443 OA
BRANCH  15  16
ATOM     16  C   UNL     1       2.826   6.207  -2.945  0.00  0.00    +0.317 C 
ATOM     17  O   UNL     1       3.135   7.416  -2.632  0.00  0.00    -0.250 OA
BRANCH  16  20
ATOM     18  C   UNL     1       1.566   4.649  -1.257  0.00  0.00    +0.001 C 
ATOM     19  C   UNL     1       0.608   5.399  -1.917  0.00  0.00    +0.015 C 
ATOM     20  C   UNL     1       1.255   6.607  -2.946  0.00  0.00    +0.103 C 
ATOM     21  C   UNL     1       0.619   5.146  -3.611  0.00  0.00    +0.035 C 
ATOM     22  C   UNL     1      -0.575   5.975  -1.350  0.00  0.00    +0.001 C 
BRANCH  21  23
ATOM     23  C   UNL     1      -0.820   5.828  -3.915  0.00  0.00    -0.003 C 
ATOM     24  C   UNL     1      -1.009   6.406  -5.070  0.00  0.00    +0.111 C 
ATOM     25 CL   UNL     1      -1.530   8.084  -4.784  0.00  0.00    -0.070 Cl
ATOM     26 CL   UNL     1      -2.191   5.585  -6.109  0.00  0.00    -0.070 Cl
ENDBRANCH  21  23
ENDBRANCH  16  20
ENDBRANCH  15  16
ENDBRANCH   1  15
TORSDOF 7
ENDMDL
MODEL 2
REMARK VINA RESULT:      -8.5      4.038      7.532
REMARK  Name = 
REMARK  7 active torsions:
REMARK  status: ('A' for Active; 'I' for Inactive)
REMARK    1  A    between atoms: C_4  and  C_5
REMARK    2  A    between atoms: C_9  and  C_10
REMARK    3  A    between atoms: C_10  and  O_12
REMARK    4  A    between atoms: O_12  and  C_13
REMARK    5  A    between atoms: C_13  and  C_14
REMARK    6  A    between atoms: C_18  and  O_19
REMARK    7  A    between atoms: O_19  and  C_20
REMARK                            x       y       z     vdW  Elec       q    Type
REMARK                         _______ _______ _______ _____ _____    ______ ____
ROOT
ATOM      1  C   UNL     1       1.994   7.101   0.163  0.00  0.00    +0.235 C 
ENDROOT
BRANCH   1   2
ATOM      2  C   UNL     1       0.519   7.162   0.412  0.00  0.00    +0.024 A 
ATOM      3  C   UNL     1      -0.274   6.352  -0.427  0.00  0.00    +0.037 A 
ATOM      4  C   UNL     1      -1.603   6.698  -0.625  0.00  0.00    +0.145 A 
ATOM      5  C   UNL     1      -2.202   7.606   0.241  0.00  0.00    +0.037 A 
ATOM      6  C   UNL     1      -1.471   8.394   1.089  0.00  0.00    +0.003 A 
ATOM      7  C   UNL     1      -0.100   8.372   0.757  0.00  0.00    -0.000 A 
BRANCH   4   8
ATOM      8  O   UNL     1      -2.414   5.935  -1.449  0.00  0.00    -0.454 OA
BRANCH   8   9
ATOM      9  C   UNL     1      -2.237   6.159  -2.809  0.00  0.00    +0.145 A 
ATOM     10  C   UNL     1      -2.855   5.368  -3.767  0.00  0.00    +0.037 A 
ATOM     11  C   UNL     1      -2.413   5.605  -5.063  0.00  0.00    +0.003 A 
ATOM     12  C   UNL     1      -2.132   6.899  -5.476  0.00  0.00    +0.000 A 
ATOM     13  C   UNL     1      -2.037   7.849  -4.485  0.00  0.00    +0.003 A 
ATOM     14  C   UNL     1      -2.117   7.504  -3.167  0.00  0.00    +0.037 A 
ENDBRANCH   8   9
ENDBRANCH   4   8
ENDBRANCH   1   2
BRANCH   1  15
ATOM     15  O   UNL     1       2.418   5.846  -0.373  0.00  0.00    -0.443 OA
BRANCH  15  16
ATOM     16  C   UNL     1       3.515   5.967  -1.087  0.00  0.00    +0.317 C 
ATOM     17  O   UNL     1       4.294   4.987  -0.791  0.00  0.00    -0.250 OA
BRANCH  16  20
ATOM     18  C   UNL     1       4.342   8.120  -2.330  0.00  0.00    +0.001 C 
ATOM     19  C   UNL     1       4.072   7.165  -3.296  0.00  0.00    +0.015 C 
ATOM     20  C   UNL     1       3.680   5.623  -2.663  0.00  0.00    +0.103 C 
ATOM     21  C   UNL     1       2.438   6.651  -3.281  0.00  0.00    +0.035 C 
ATOM     22  C   UNL     1       4.825   6.909  -4.487  0.00  0.00    +0.001 C 
BRANCH  21  23
ATOM     23  C   UNL     1       2.454   5.920  -4.727  0.00  0.00    -0.003 C 
ATOM     24  C   UNL     1       1.378   5.965  -5.465  0.00  0.00    +0.111 C 
ATOM     25 CL   UNL     1       0.905   4.300  -5.877  0.00  0.00    -0.070 Cl
ATOM     26 CL   UNL     1       1.555   6.918  -6.953  0.00  0.00    -0.070 Cl
ENDBRANCH  21  23
ENDBRANCH  16  20
ENDBRANCH  15  16
ENDBRANCH   1  15
TORSDOF 7
ENDMDL
MODEL 3
REMARK VINA RESULT:      -8.4      2.893      5.036
REMARK  Name = 
REMARK  7 active torsions:
REMARK  status: ('A' for Active; 'I' for Inactive)
REMARK    1  A    between atoms: C_4  and  C_5
REMARK    2  A    between atoms: C_9  and  C_10
REMARK    3  A    between atoms: C_10  and  O_12
REMARK    4  A    between atoms: O_12  and  C_13
REMARK    5  A    between atoms: C_13  and  C_14
REMARK    6  A    between atoms: C_18  and  O_19
REMARK    7  A    between atoms: O_19  and  C_20
REMARK                            x       y       z     vdW  Elec       q    Type
REMARK                         _______ _______ _______ _____ _____    ______ ____
ROOT
ATOM      1  C   UNL     1       0.005   5.854  -7.450  0.00  0.00    +0.235 C 
ENDROOT
BRANCH   1   2
ATOM      2  C   UNL     1       1.379   5.271  -7.573  0.00  0.00    +0.024 A 
ATOM      3  C   UNL     1       2.370   5.874  -6.772  0.00  0.00    +0.037 A 
ATOM      4  C   UNL     1       3.698   5.770  -7.163  0.00  0.00    +0.145 A 
ATOM      5  C   UNL     1       4.050   4.819  -8.114  0.00  0.00    +0.037 A 
ATOM      6  C   UNL     1       3.117   4.190  -8.896  0.00  0.00    +0.003 A 
ATOM      7  C   UNL     1       1.863   4.831  -8.814  0.00  0.00    -0.000 A 
BRANCH   4   8
ATOM      8  O   UNL     1       4.702   6.356  -6.410  0.00  0.00    -0.454 OA
BRANCH   8   9
ATOM      9  C   UNL     1       4.477   6.355  -5.039  0.00  0.00    +0.145 A 
ATOM     10  C   UNL     1       4.743   5.242  -4.256  0.00  0.00    +0.037 A 
ATOM     11  C   UNL     1       4.276   5.346  -2.951  0.00  0.00    +0.003 A 
ATOM     12  C   UNL     1       4.357   6.558  -2.280  0.00  0.00    +0.000 A 
ATOM     13  C   UNL     1       4.639   7.664  -3.047  0.00  0.00    +0.003 A 
ATOM     14  C   UNL     1       4.731   7.575  -4.406  0.00  0.00    +0.037 A 
ENDBRANCH   8   9
ENDBRANCH   4   8
ENDBRANCH   1   2
BRANCH   1  15
ATOM     15  O   UNL     1      -0.893   5.016  -6.720  0.00  0.00    -0.443 OA
BRANCH  15  16
ATOM     16  C   UNL     1      -1.641   5.709  -5.890  0.00  0.00    +0.317 C 
ATOM     17  O   UNL     1      -2.847   5.271  -5.980  0.00  0.00    -0.250 OA
BRANCH  16  20
ATOM     18  C   UNL     1      -1.845   8.087  -4.812  0.00  0.00    +0.001 C 
ATOM     19  C   UNL     1      -1.679   7.181  -3.779  0.00  0.00    +0.015 C 
ATOM     20  C   UNL     1      -1.699   5.542  -4.279  0.00  0.00    +0.103 C 
ATOM     21  C   UNL     1      -0.205   6.315  -3.888  0.00  0.00    +0.035 C 
ATOM     22  C   UNL     1      -2.333   7.198  -2.504  0.00  0.00    +0.001 C 
BRANCH  21  23
ATOM     23  C   UNL     1      -0.216   5.729  -2.376  0.00  0.00    -0.003 C 
ATOM     24  C   UNL     1       0.835   5.913  -1.624  0.00  0.00    +0.111 C 
ATOM     25 CL   UNL     1       1.397   4.329  -1.040  0.00  0.00    -0.070 Cl
ATOM     26 CL   UNL     1       0.560   6.994  -0.242  0.00  0.00    -0.070 Cl
ENDBRANCH  21  23
ENDBRANCH  16  20
ENDBRANCH  15  16
ENDBRANCH   1  15
TORSDOF 7
ENDMDL
MODEL 4
REMARK VINA RESULT:      -8.4      2.550      4.113
REMARK  Name = 
REMARK  7 active torsions:
REMARK  status: ('A' for Active; 'I' for Inactive)
REMARK    1  A    between atoms: C_4  and  C_5
REMARK    2  A    between atoms: C_9  and  C_10
REMARK    3  A    between atoms: C_10  and  O_12
REMARK    4  A    between atoms: O_12  and  C_13
REMARK    5  A    between atoms: C_13  and  C_14
REMARK    6  A    between atoms: C_18  and  O_19
REMARK    7  A    between atoms: O_19  and  C_20
REMARK                            x       y       z     vdW  Elec       q    Type
REMARK                         _______ _______ _______ _____ _____    ______ ____
ROOT
ATOM      1  C   UNL     1       1.140   6.454 -10.259  0.00  0.00    +0.235 C 
ENDROOT
BRANCH   1   2
ATOM      2  C   UNL     1       1.697   5.749 -11.457  0.00  0.00    +0.024 A 
ATOM      3  C   UNL     1       3.059   5.993 -11.729  0.00  0.00    +0.037 A 
ATOM      4  C   UNL     1       3.521   5.821 -13.026  0.00  0.00    +0.145 A 
ATOM      5  C   UNL     1       2.743   5.108 -13.932  0.00  0.00    +0.037 A 
ATOM      6  C   UNL     1       1.423   4.827 -13.696  0.00  0.00    +0.003 A 
ATOM      7  C   UNL     1       0.923   5.583 -12.615  0.00  0.00    -0.000 A 
BRANCH   4   8
ATOM      8  O   UNL     1       4.849   6.059 -13.339  0.00  0.00    -0.454 OA
BRANCH   8   9
ATOM      9  C   UNL     1       5.677   6.266 -12.242  0.00  0.00    +0.145 A 
ATOM     10  C   UNL     1       6.609   5.320 -11.841  0.00  0.00    +0.037 A 
ATOM     11  C   UNL     1       7.205   5.600 -10.618  0.00  0.00    +0.003 A 
ATOM     12  C   UNL     1       7.531   6.908 -10.288  0.00  0.00    +0.000 A 
ATOM     13  C   UNL     1       6.983   7.892 -11.078  0.00  0.00    +0.003 A 
ATOM     14  C   UNL     1       6.091   7.589 -12.065  0.00  0.00    +0.037 A 
ENDBRANCH   8   9
ENDBRANCH   4   8
ENDBRANCH   1   2
BRANCH   1  15
ATOM     15  O   UNL     1       0.773   5.559  -9.207  0.00  0.00    -0.443 OA
BRANCH  15  16
ATOM     16  C   UNL     1       1.486   5.764  -8.121  0.00  0.00    +0.317 C 
ATOM     17  O   UNL     1       2.098   6.887  -8.251  0.00  0.00    -0.250 OA
BRANCH  16  20
ATOM     18  C   UNL     1       1.954   3.862  -6.381  0.00  0.00    +0.001 C 
ATOM     19  C   UNL     1       1.188   4.824  -5.743  0.00  0.00    +0.015 C 
ATOM     20  C   UNL     1       0.923   6.236  -6.676  0.00  0.00    +0.103 C 
ATOM     21  C   UNL     1      -0.332   5.065  -6.494  0.00  0.00    +0.035 C 
ATOM     22  C   UNL     1       1.329   5.280  -4.392  0.00  0.00    +0.001 C 
BRANCH  21  23
ATOM     23  C   UNL     1      -1.018   5.886  -5.276  0.00  0.00    -0.003 C 
ATOM     24  C   UNL     1      -2.320   5.981  -5.239  0.00  0.00    +0.111 C 
ATOM     25 CL   UNL     1      -2.758   7.704  -5.165  0.00  0.00    -0.070 Cl
ATOM     26 CL   UNL     1      -3.074   5.117  -3.884  0.00  0.00    -0.070 Cl
ENDBRANCH  21  23
ENDBRANCH  16  20
ENDBRANCH  15  16
ENDBRANCH   1  15
TORSDOF 7
ENDMDL
MODEL 5
REMARK VINA RESULT:      -8.3      2.429      3.608
REMARK  Name = 
REMARK  7 active torsions:
REMARK  status: ('A' for Active; 'I' for Inactive)
REMARK    1  A    between atoms: C_4  and  C_5
REMARK    2  A    between atoms: C_9  and  C_10
REMARK    3  A    between atoms: C_10  and  O_12
REMARK    4  A    between atoms: O_12  and  C_13
REMARK    5  A    between atoms: C_13  and  C_14
REMARK    6  A    between atoms: C_18  and  O_19
REMARK    7  A    between atoms: O_19  and  C_20
REMARK                            x       y       z     vdW  Elec       q    Type
REMARK                         _______ _______ _______ _____ _____    ______ ____
ROOT
ATOM      1  C   UNL     1      -0.126   5.987  -7.645  0.00  0.00    +0.235 C 
ENDROOT
BRANCH   1   2
ATOM      2  C   UNL     1       1.350   6.225  -7.558  0.00  0.00    +0.024 A 
ATOM      3  C   UNL     1       2.097   5.844  -8.692  0.00  0.00    +0.037 A 
ATOM      4  C   UNL     1       3.444   5.552  -8.537  0.00  0.00    +0.145 A 
ATOM      5  C   UNL     1       4.093   5.954  -7.374  0.00  0.00    +0.037 A 
ATOM      6  C   UNL     1       3.407   6.355  -6.258  0.00  0.00    +0.003 A 
ATOM      7  C   UNL     1       2.038   6.027  -6.352  0.00  0.00    -0.000 A 
BRANCH   4   8
ATOM      8  O   UNL     1       4.212   5.165  -9.623  0.00  0.00    -0.454 OA
BRANCH   8   9
ATOM      9  C   UNL     1       5.279   6.007  -9.910  0.00  0.00    +0.145 A 
ATOM     10  C   UNL     1       6.581   5.535  -9.989  0.00  0.00    +0.037 A 
ATOM     11  C   UNL     1       7.538   6.538 -10.085  0.00  0.00    +0.003 A 
ATOM     12  C   UNL     1       7.286   7.668 -10.850  0.00  0.00    +0.000 A 
ATOM     13  C   UNL     1       5.982   7.861 -11.243  0.00  0.00    +0.003 A 
ATOM     14  C   UNL     1       4.986   7.033 -10.813  0.00  0.00    +0.037 A 
ENDBRANCH   8   9
ENDBRANCH   4   8
ENDBRANCH   1   2
BRANCH   1  15
ATOM     15  O   UNL     1      -0.610   5.110  -6.626  0.00  0.00    -0.443 OA
BRANCH  15  16
ATOM     16  C   UNL     1      -1.461   5.713  -5.827  0.00  0.00    +0.317 C 
ATOM     17  O   UNL     1      -2.608   5.151  -5.965  0.00  0.00    -0.250 OA
BRANCH  16  20
ATOM     18  C   UNL     1      -1.903   8.060  -4.748  0.00  0.00    +0.001 C 
ATOM     19  C   UNL     1      -1.701   7.162  -3.712  0.00  0.00    +0.015 C 
ATOM     20  C   UNL     1      -1.565   5.531  -4.219  0.00  0.00    +0.103 C 
ATOM     21  C   UNL     1      -0.157   6.423  -3.768  0.00  0.00    +0.035 C 
ATOM     22  C   UNL     1      -2.401   7.117  -2.463  0.00  0.00    +0.001 C 
BRANCH  21  23
ATOM     23  C   UNL     1      -0.175   5.828  -2.261  0.00  0.00    -0.003 C 
ATOM     24  C   UNL     1       0.851   6.051  -1.485  0.00  0.00    +0.111 C 
ATOM     25 CL   UNL     1       1.466   4.488  -0.897  0.00  0.00    -0.070 Cl
ATOM     26 CL   UNL     1       0.501   7.110  -0.104  0.00  0.00    -0.070 Cl
ENDBRANCH  21  23
ENDBRANCH  16  20
ENDBRANCH  15  16
ENDBRANCH   1  15
TORSDOF 7
ENDMDL
MODEL 6
REMARK VINA RESULT:      -8.3      3.393      7.119
REMARK  Name = 
REMARK  7 active torsions:
REMARK  status: ('A' for Active; 'I' for Inactive)
REMARK    1  A    between atoms: C_4  and  C_5
REMARK    2  A    between atoms: C_9  and  C_10
REMARK    3  A    between atoms: C_10  and  O_12
REMARK    4  A    between atoms: O_12  and  C_13
REMARK    5  A    between atoms: C_13  and  C_14
REMARK    6  A    between atoms: C_18  and  O_19
REMARK    7  A    between atoms: O_19  and  C_20
REMARK                            x       y       z     vdW  Elec       q    Type
REMARK                         _______ _______ _______ _____ _____    ______ ____
ROOT
ATOM      1  C   UNL     1       0.161   4.990  -8.233  0.00  0.00    +0.235 C 
ENDROOT
BRANCH   1   2
ATOM      2  C   UNL     1      -0.211   5.597  -6.916  0.00  0.00    +0.024 A 
ATOM      3  C   UNL     1       0.695   5.363  -5.861  0.00  0.00    +0.037 A 
ATOM      4  C   UNL     1       0.229   5.428  -4.555  0.00  0.00    +0.145 A 
ATOM      5  C   UNL     1      -0.997   6.035  -4.304  0.00  0.00    +0.037 A 
ATOM      6  C   UNL     1      -1.895   6.303  -5.303  0.00  0.00    +0.003 A 
ATOM      7  C   UNL     1      -1.549   5.637  -6.497  0.00  0.00    -0.000 A 
BRANCH   4   8
ATOM      8  O   UNL     1       1.083   5.196  -3.489  0.00  0.00    -0.454 OA
BRANCH   8   9
ATOM      9  C   UNL     1       2.332   5.792  -3.605  0.00  0.00    +0.145 A 
ATOM     10  C   UNL     1       2.539   7.124  -3.279  0.00  0.00    +0.037 A 
ATOM     11  C   UNL     1       3.792   7.604  -3.642  0.00  0.00    +0.003 A 
ATOM     12  C   UNL     1       4.911   6.796  -3.506  0.00  0.00    +0.000 A 
ATOM     13  C   UNL     1       4.676   5.459  -3.285  0.00  0.00    +0.003 A 
ATOM     14  C   UNL     1       3.408   4.954  -3.300  0.00  0.00    +0.037 A 
ENDBRANCH   8   9
ENDBRANCH   4   8
ENDBRANCH   1   2
BRANCH   1  15
ATOM     15  O   UNL     1       1.361   5.540  -8.781  0.00  0.00    -0.443 OA
BRANCH  15  16
ATOM     16  C   UNL     1       2.408   4.791  -8.511  0.00  0.00    +0.317 C 
ATOM     17  O   UNL     1       2.163   3.598  -8.922  0.00  0.00    -0.250 OA
BRANCH  16  20
ATOM     18  C   UNL     1       4.300   5.606  -6.893  0.00  0.00    +0.001 C 
ATOM     19  C   UNL     1       4.864   5.472  -8.151  0.00  0.00    +0.015 C 
ATOM     20  C   UNL     1       3.816   4.780  -9.316  0.00  0.00    +0.103 C 
ATOM     21  C   UNL     1       4.122   6.480  -9.320  0.00  0.00    +0.035 C 
ATOM     22  C   UNL     1       6.167   4.964  -8.461  0.00  0.00    +0.001 C 
BRANCH  21  23
ATOM     23  C   UNL     1       5.274   6.341 -10.451  0.00  0.00    -0.003 C 
ATOM     24  C   UNL     1       5.241   7.141 -11.482  0.00  0.00    +0.111 C 
ATOM     25 CL   UNL     1       5.235   6.154 -12.964  0.00  0.00    -0.070 Cl
ATOM     26 CL   UNL     1       6.582   8.302 -11.546  0.00  0.00    -0.070 Cl
ENDBRANCH  21  23
ENDBRANCH  16  20
ENDBRANCH  15  16
ENDBRANCH   1  15
TORSDOF 7
ENDMDL
MODEL 7
REMARK VINA RESULT:      -8.2      3.107      3.706
REMARK  Name = 
REMARK  7 active torsions:
REMARK  status: ('A' for Active; 'I' for Inactive)
REMARK    1  A    between atoms: C_4  and  C_5
REMARK    2  A    between atoms: C_9  and  C_10
REMARK    3  A    between atoms: C_10  and  O_12
REMARK    4  A    between atoms: O_12  and  C_13
REMARK    5  A    between atoms: C_13  and  C_14
REMARK    6  A    between atoms: C_18  and  O_19
REMARK    7  A    between atoms: O_19  and  C_20
REMARK                            x       y       z     vdW  Elec       q    Type
REMARK                         _______ _______ _______ _____ _____    ______ ____
ROOT
ATOM      1  C   UNL     1       3.797   7.220  -5.282  0.00  0.00    +0.235 C 
ENDROOT
BRANCH   1   2
ATOM      2  C   UNL     1       3.106   6.624  -6.470  0.00  0.00    +0.024 A 
ATOM      3  C   UNL     1       3.935   5.923  -7.369  0.00  0.00    +0.037 A 
ATOM      4  C   UNL     1       3.521   5.783  -8.686  0.00  0.00    +0.145 A 
ATOM      5  C   UNL     1       2.191   6.029  -9.007  0.00  0.00    +0.037 A 
ATOM      6  C   UNL     1       1.345   6.685  -8.152  0.00  0.00    +0.003 A 
ATOM      7  C   UNL     1       2.054   7.304  -7.102  0.00  0.00    -0.000 A 
BRANCH   4   8
ATOM      8  O   UNL     1       4.310   5.109  -9.605  0.00  0.00    -0.454 OA
BRANCH   8   9
ATOM      9  C   UNL     1       5.311   5.878 -10.185  0.00  0.00    +0.145 A 
ATOM     10  C   UNL     1       5.067   7.160 -10.658  0.00  0.00    +0.037 A 
ATOM     11  C   UNL     1       6.121   7.703 -11.382  0.00  0.00    +0.003 A 
ATOM     12  C   UNL     1       7.430   7.474 -10.981  0.00  0.00    +0.000 A 
ATOM     13  C   UNL     1       7.618   6.482 -10.047  0.00  0.00    +0.003 A 
ATOM     14  C   UNL     1       6.579   5.707  -9.622  0.00  0.00    +0.037 A 
ENDBRANCH   8   9
ENDBRANCH   4   8
ENDBRANCH   1   2
BRANCH   1  15
ATOM     15  O   UNL     1       3.270   6.754  -4.038  0.00  0.00    -0.443 OA
BRANCH  15  16
ATOM     16  C   UNL     1       4.222   6.522  -3.162  0.00  0.00    +0.317 C 
ATOM     17  O   UNL     1       5.354   6.690  -3.747  0.00  0.00    -0.250 OA
BRANCH  16  20
ATOM     18  C   UNL     1       3.920   5.274  -0.878  0.00  0.00    +0.001 C 
ATOM     19  C   UNL     1       4.280   6.580  -0.589  0.00  0.00    +0.015 C 
ATOM     20  C   UNL     1       4.691   7.512  -1.966  0.00  0.00    +0.103 C 
ATOM     21  C   UNL     1       3.161   7.725  -1.195  0.00  0.00    +0.035 C 
ATOM     22  C   UNL     1       5.168   7.019   0.447  0.00  0.00    +0.001 C 
BRANCH  21  23
ATOM     23  C   UNL     1       3.694   8.989  -0.331  0.00  0.00    -0.003 C 
ATOM     24  C   UNL     1       2.845   9.922   0.005  0.00  0.00    +0.111 C 
ATOM     25 CL   UNL     1       3.466  11.486  -0.575  0.00  0.00    -0.070 Cl
ATOM     26 CL   UNL     1       2.522  10.020   1.748  0.00  0.00    -0.070 Cl
ENDBRANCH  21  23
ENDBRANCH  16  20
ENDBRANCH  15  16
ENDBRANCH   1  15
TORSDOF 7
ENDMDL
MODEL 8
REMARK VINA RESULT:      -8.1      3.073      7.352
REMARK  Name = 
REMARK  7 active torsions:
REMARK  status: ('A' for Active; 'I' for Inactive)
REMARK    1  A    between atoms: C_4  and  C_5
REMARK    2  A    between atoms: C_9  and  C_10
REMARK    3  A    between atoms: C_10  and  O_12
REMARK    4  A    between atoms: O_12  and  C_13
REMARK    5  A    between atoms: C_13  and  C_14
REMARK    6  A    between atoms: C_18  and  O_19
REMARK    7  A    between atoms: O_19  and  C_20
REMARK                            x       y       z     vdW  Elec       q    Type
REMARK                         _______ _______ _______ _____ _____    ______ ____
ROOT
ATOM      1  C   UNL     1       4.260   4.986  -4.713  0.00  0.00    +0.235 C 
ENDROOT
BRANCH   1   2
ATOM      2  C   UNL     1       4.243   5.945  -3.563  0.00  0.00    +0.024 A 
ATOM      3  C   UNL     1       3.495   5.535  -2.439  0.00  0.00    +0.037 A 
ATOM      4  C   UNL     1       3.008   6.503  -1.574  0.00  0.00    +0.145 A 
ATOM      5  C   UNL     1       3.531   7.790  -1.634  0.00  0.00    +0.037 A 
ATOM      6  C   UNL     1       4.283   8.221  -2.695  0.00  0.00    +0.003 A 
ATOM      7  C   UNL     1       4.194   7.329  -3.784  0.00  0.00    -0.000 A 
BRANCH   4   8
ATOM      8  O   UNL     1       2.260   6.145  -0.463  0.00  0.00    -0.454 OA
BRANCH   8   9
ATOM      9  C   UNL     1       1.042   6.802  -0.345  0.00  0.00    +0.145 A 
ATOM     10  C   UNL     1      -0.140   6.240  -0.805  0.00  0.00    +0.037 A 
ATOM     11  C   UNL     1      -1.221   7.112  -0.788  0.00  0.00    +0.003 A 
ATOM     12  C   UNL     1      -1.377   8.006   0.261  0.00  0.00    +0.000 A 
ATOM     13  C   UNL     1      -0.290   8.173   1.088  0.00  0.00    +0.003 A 
ATOM     14  C   UNL     1       0.901   7.562   0.819  0.00  0.00    +0.037 A 
ENDBRANCH   8   9
ENDBRANCH   4   8
ENDBRANCH   1   2
BRANCH   1  15
ATOM     15  O   UNL     1       3.068   4.203  -4.805  0.00  0.00    -0.443 OA
BRANCH  15  16
ATOM     16  C   UNL     1       2.431   4.416  -5.934  0.00  0.00    +0.317 C 
ATOM     17  O   UNL     1       2.476   3.334  -6.629  0.00  0.00    -0.250 OA
BRANCH  16  20
ATOM     18  C   UNL     1       1.867   6.389  -7.562  0.00  0.00    +0.001 C 
ATOM     19  C   UNL     1       0.665   5.893  -7.087  0.00  0.00    +0.015 C 
ATOM     20  C   UNL     1       0.823   4.478  -6.135  0.00  0.00    +0.103 C 
ATOM     21  C   UNL     1       0.530   6.005  -5.384  0.00  0.00    +0.035 C 
ATOM     22  C   UNL     1      -0.549   5.720  -7.828  0.00  0.00    +0.001 C 
BRANCH  21  23
ATOM     23  C   UNL     1      -1.067   5.737  -5.301  0.00  0.00    -0.003 C 
ATOM     24  C   UNL     1      -1.774   6.423  -4.445  0.00  0.00    +0.111 C 
ATOM     25 CL   UNL     1      -2.661   5.284  -3.403  0.00  0.00    -0.070 Cl
ATOM     26 CL   UNL     1      -2.917   7.560  -5.190  0.00  0.00    -0.070 Cl
ENDBRANCH  21  23
ENDBRANCH  16  20
ENDBRANCH  15  16
ENDBRANCH   1  15
TORSDOF 7
ENDMDL
MODEL 9
REMARK VINA RESULT:      -8.0      3.447      7.875
REMARK  Name = 
REMARK  7 active torsions:
REMARK  status: ('A' for Active; 'I' for Inactive)
REMARK    1  A    between atoms: C_4  and  C_5
REMARK    2  A    between atoms: C_9  and  C_10
REMARK    3  A    between atoms: C_10  and  O_12
REMARK    4  A    between atoms: O_12  and  C_13
REMARK    5  A    between atoms: C_13  and  C_14
REMARK    6  A    between atoms: C_18  and  O_19
REMARK    7  A    between atoms: O_19  and  C_20
REMARK                            x       y       z     vdW  Elec       q    Type
REMARK                         _______ _______ _______ _____ _____    ______ ____
ROOT
ATOM      1  C   UNL     1       3.872   7.139  -5.646  0.00  0.00    +0.235 C 
ENDROOT
BRANCH   1   2
ATOM      2  C   UNL     1       3.353   6.678  -4.319  0.00  0.00    +0.024 A 
ATOM      3  C   UNL     1       2.164   5.922  -4.359  0.00  0.00    +0.037 A 
ATOM      4  C   UNL     1       1.358   5.885  -3.231  0.00  0.00    +0.145 A 
ATOM      5  C   UNL     1       1.884   6.299  -2.011  0.00  0.00    +0.037 A 
ATOM      6  C   UNL     1       3.049   7.013  -1.925  0.00  0.00    +0.003 A 
ATOM      7  C   UNL     1       3.447   7.501  -3.187  0.00  0.00    -0.000 A 
BRANCH   4   8
ATOM      8  O   UNL     1       0.176   5.163  -3.231  0.00  0.00    -0.454 OA
BRANCH   8   9
ATOM      9  C   UNL     1      -0.874   5.767  -3.911  0.00  0.00    +0.145 A 
ATOM     10  C   UNL     1      -1.235   7.085  -3.675  0.00  0.00    +0.037 A 
ATOM     11  C   UNL     1      -2.423   7.462  -4.291  0.00  0.00    +0.003 A 
ATOM     12  C   UNL     1      -2.722   7.000  -5.564  0.00  0.00    +0.000 A 
ATOM     13  C   UNL     1      -1.952   5.961  -6.034  0.00  0.00    +0.003 A 
ATOM     14  C   UNL     1      -1.016   5.363  -5.241  0.00  0.00    +0.037 A 
ENDBRANCH   8   9
ENDBRANCH   4   8
ENDBRANCH   1   2
BRANCH   1  15
ATOM     15  O   UNL     1       3.872   6.107  -6.634  0.00  0.00    -0.443 OA
BRANCH  15  16
ATOM     16  C   UNL     1       3.147   6.433  -7.681  0.00  0.00    +0.317 C 
ATOM     17  O   UNL     1       2.776   7.657  -7.544  0.00  0.00    -0.250 OA
BRANCH  16  20
ATOM     18  C   UNL     1       2.101   4.717  -9.362  0.00  0.00    +0.001 C 
ATOM     19  C   UNL     1       3.030   5.468 -10.064  0.00  0.00    +0.015 C 
ATOM     20  C   UNL     1       3.699   6.765  -9.168  0.00  0.00    +0.103 C 
ATOM     21  C   UNL     1       4.614   5.324  -9.430  0.00  0.00    +0.035 C 
ATOM     22  C   UNL     1       2.906   5.954 -11.406  0.00  0.00    +0.001 C 
BRANCH  21  23
ATOM     23  C   UNL     1       5.388   5.962 -10.703  0.00  0.00    -0.003 C 
ATOM     24  C   UNL     1       6.663   6.221 -10.596  0.00  0.00    +0.111 C 
ATOM     25 CL   UNL     1       6.927   7.935 -10.996  0.00  0.00    -0.070 Cl
ATOM     26 CL   UNL     1       7.700   5.206 -11.619  0.00  0.00    -0.070 Cl
ENDBRANCH  21  23
ENDBRANCH  16  20
ENDBRANCH  15  16
ENDBRANCH   1  15
TORSDOF 7
ENDMDL
