MODEL 1
REMARK VINA RESULT:      -7.6      0.000      0.000
REMARK  Name = 
REMARK  4 active torsions:
REMARK  status: ('A' for Active; 'I' for Inactive)
REMARK    1  A    between atoms: C_2  and  C_3
REMARK    2  A    between atoms: C_2  and  C_7
REMARK    3  A    between atoms: C_3  and  N_4
REMARK    4  A    between atoms: C_7  and  N_8
REMARK                            x       y       z     vdW  Elec       q    Type
REMARK                         _______ _______ _______ _____ _____    ______ ____
ROOT
ATOM      1  N   UNL     1       0.942   5.048  -7.917  0.00  0.00    -0.287 N 
ATOM      2  C   UNL     1       0.077   5.660  -6.948  0.00  0.00    +0.048 A 
ATOM      3  C   UNL     1       0.378   6.473  -5.861  0.00  0.00    -0.008 A 
ATOM      4  C   UNL     1      -0.650   6.937  -5.052  0.00  0.00    -0.003 A 
ATOM      5  C   UNL     1      -1.971   6.575  -5.286  0.00  0.00    -0.000 A 
ATOM      6  C   UNL     1      -2.214   5.850  -6.446  0.00  0.00    +0.001 A 
ATOM      7  C   UNL     1       1.669   6.514  -5.109  0.00  0.00    +0.032 C 
ATOM      8  C   UNL     1       2.783   6.966  -6.031  0.00  0.00    +0.032 C 
ATOM      9  C   UNL     1       3.184   5.871  -6.968  0.00  0.00    -0.008 A 
ATOM     10  C   UNL     1       4.544   5.989  -7.234  0.00  0.00    -0.003 A 
ATOM     11  C   UNL     1       5.056   5.305  -8.330  0.00  0.00    -0.000 A 
ATOM     12  C   UNL     1       4.280   4.300  -8.892  0.00  0.00    +0.001 A 
ATOM     13  C   UNL     1       2.912   4.261  -8.716  0.00  0.00    +0.015 A 
ATOM     14  C   UNL     1      -1.220   5.648  -7.397  0.00  0.00    +0.015 A 
ATOM     15  C   UNL     1       2.369   5.112  -7.794  0.00  0.00    +0.048 A 
ENDROOT
BRANCH   1  16
ATOM     16  C   UNL     1       0.452   4.958  -9.290  0.00  0.00    +0.097 C 
BRANCH  16  18
ATOM     17  C   UNL     1      -0.377   6.735 -10.634  0.00  0.00    +0.003 C 
ATOM     18  C   UNL     1       1.091   6.249 -10.075  0.00  0.00    +0.036 C 
BRANCH  18  19
ATOM     19  C   UNL     1       1.379   5.369 -11.433  0.00  0.00    +0.074 C 
BRANCH  19  20
ATOM     20  N   UNL     1       2.215   6.256 -12.200  0.00  0.00    -0.270 NA
ATOM     21  C   UNL     1       3.623   6.059 -12.008  0.00  0.00    +0.090 C 
ATOM     22  C   UNL     1       1.829   6.354 -13.584  0.00  0.00    +0.090 C 
ENDBRANCH  19  20
ENDBRANCH  18  19
ENDBRANCH  16  18
ENDBRANCH   1  16
TORSDOF 4
ENDMDL
MODEL 2
REMARK VINA RESULT:      -7.4      3.209      6.326
REMARK  Name = 
REMARK  4 active torsions:
REMARK  status: ('A' for Active; 'I' for Inactive)
REMARK    1  A    between atoms: C_2  and  C_3
REMARK    2  A    between atoms: C_2  and  C_7
REMARK    3  A    between atoms: C_3  and  N_4
REMARK    4  A    between atoms: C_7  and  N_8
REMARK                            x       y       z     vdW  Elec       q    Type
REMARK                         _______ _______ _______ _____ _____    ______ ____
ROOT
ATOM      1  N   UNL     1       1.103   6.758  -4.323  0.00  0.00    -0.287 N 
ATOM      2  C   UNL     1       0.012   6.269  -5.118  0.00  0.00    +0.048 A 
ATOM      3  C   UNL     1       0.019   5.504  -6.280  0.00  0.00    -0.008 A 
ATOM      4  C   UNL     1      -1.186   5.163  -6.878  0.00  0.00    -0.003 A 
ATOM      5  C   UNL     1      -2.398   5.604  -6.360  0.00  0.00    -0.000 A 
ATOM      6  C   UNL     1      -2.341   6.271  -5.144  0.00  0.00    +0.001 A 
ATOM      7  C   UNL     1       1.123   5.418  -7.283  0.00  0.00    +0.032 C 
ATOM      8  C   UNL     1       2.360   4.833  -6.633  0.00  0.00    +0.032 C 
ATOM      9  C   UNL     1       3.031   5.839  -5.750  0.00  0.00    -0.008 A 
ATOM     10  C   UNL     1       4.402   5.609  -5.778  0.00  0.00    -0.003 A 
ATOM     11  C   UNL     1       5.180   6.187  -4.781  0.00  0.00    -0.000 A 
ATOM     12  C   UNL     1       4.619   7.208  -4.027  0.00  0.00    +0.001 A 
ATOM     13  C   UNL     1       3.251   7.354  -3.914  0.00  0.00    +0.015 A 
ATOM     14  C   UNL     1      -1.161   6.345  -4.411  0.00  0.00    +0.015 A 
ATOM     15  C   UNL     1       2.465   6.601  -4.741  0.00  0.00    +0.048 A 
ENDROOT
BRANCH   1  16
ATOM     16  C   UNL     1       0.910   6.799  -2.875  0.00  0.00    +0.097 C 
BRANCH  16  18
ATOM     17  C   UNL     1       0.206   4.864  -1.687  0.00  0.00    +0.003 C 
ATOM     18  C   UNL     1       1.622   5.440  -2.294  0.00  0.00    +0.036 C 
BRANCH  18  19
ATOM     19  C   UNL     1       2.003   6.164  -0.869  0.00  0.00    +0.074 C 
BRANCH  19  20
ATOM     20  N   UNL     1       3.300   5.609  -0.581  0.00  0.00    -0.270 NA
ATOM     21  C   UNL     1       3.732   4.601  -1.506  0.00  0.00    +0.090 C 
ATOM     22  C   UNL     1       4.302   6.604  -0.303  0.00  0.00    +0.090 C 
ENDBRANCH  19  20
ENDBRANCH  18  19
ENDBRANCH  16  18
ENDBRANCH   1  16
TORSDOF 4
ENDMDL
MODEL 3
REMARK VINA RESULT:      -7.3      2.861      6.107
REMARK  Name = 
REMARK  4 active torsions:
REMARK  status: ('A' for Active; 'I' for Inactive)
REMARK    1  A    between atoms: C_2  and  C_3
REMARK    2  A    between atoms: C_2  and  C_7
REMARK    3  A    between atoms: C_3  and  N_4
REMARK    4  A    between atoms: C_7  and  N_8
REMARK                            x       y       z     vdW  Elec       q    Type
REMARK                         _______ _______ _______ _____ _____    ______ ____
ROOT
ATOM      1  N   UNL     1       1.369   6.271  -4.651  0.00  0.00    -0.287 N 
ATOM      2  C   UNL     1       0.983   6.040  -6.014  0.00  0.00    +0.048 A 
ATOM      3  C   UNL     1       1.715   6.167  -7.189  0.00  0.00    -0.008 A 
ATOM      4  C   UNL     1       1.105   5.893  -8.406  0.00  0.00    -0.003 A 
ATOM      5  C   UNL     1      -0.235   5.530  -8.473  0.00  0.00    -0.000 A 
ATOM      6  C   UNL     1      -0.878   5.319  -7.261  0.00  0.00    +0.001 A 
ATOM      7  C   UNL     1       2.904   7.046  -7.408  0.00  0.00    +0.032 C 
ATOM      8  C   UNL     1       4.034   6.614  -6.496  0.00  0.00    +0.032 C 
ATOM      9  C   UNL     1       3.780   7.044  -5.085  0.00  0.00    -0.008 A 
ATOM     10  C   UNL     1       5.001   7.320  -4.478  0.00  0.00    -0.003 A 
ATOM     11  C   UNL     1       5.037   7.399  -3.091  0.00  0.00    -0.000 A 
ATOM     12  C   UNL     1       3.832   7.530  -2.414  0.00  0.00    +0.001 A 
ATOM     13  C   UNL     1       2.637   7.142  -2.987  0.00  0.00    +0.015 A 
ATOM     14  C   UNL     1      -0.177   5.308  -6.060  0.00  0.00    +0.015 A 
ATOM     15  C   UNL     1       2.646   6.831  -4.318  0.00  0.00    +0.048 A 
ENDROOT
BRANCH   1  16
ATOM     16  C   UNL     1       0.811   5.380  -3.636  0.00  0.00    +0.097 C 
BRANCH  16  18
ATOM     17  C   UNL     1       0.003   5.403  -1.400  0.00  0.00    +0.003 C 
ATOM     18  C   UNL     1      -0.227   6.300  -2.760  0.00  0.00    +0.036 C 
BRANCH  18  19
ATOM     19  C   UNL     1      -1.521   5.391  -3.207  0.00  0.00    +0.074 C 
BRANCH  19  20
ATOM     20  N   UNL     1      -2.517   6.393  -3.485  0.00  0.00    -0.270 NA
ATOM     21  C   UNL     1      -3.581   6.455  -2.524  0.00  0.00    +0.090 C 
ATOM     22  C   UNL     1      -1.961   7.680  -3.812  0.00  0.00    +0.090 C 
ENDBRANCH  19  20
ENDBRANCH  18  19
ENDBRANCH  16  18
ENDBRANCH   1  16
TORSDOF 4
ENDMDL
MODEL 4
REMARK VINA RESULT:      -7.3      2.796      6.830
REMARK  Name = 
REMARK  4 active torsions:
REMARK  status: ('A' for Active; 'I' for Inactive)
REMARK    1  A    between atoms: C_2  and  C_3
REMARK    2  A    between atoms: C_2  and  C_7
REMARK    3  A    between atoms: C_3  and  N_4
REMARK    4  A    between atoms: C_7  and  N_8
REMARK                            x       y       z     vdW  Elec       q    Type
REMARK                         _______ _______ _______ _____ _____    ______ ____
ROOT
ATOM      1  N   UNL     1       1.133   5.051  -4.833  0.00  0.00    -0.287 N 
ATOM      2  C   UNL     1       0.925   5.105  -6.252  0.00  0.00    +0.048 A 
ATOM      3  C   UNL     1      -0.156   5.584  -6.985  0.00  0.00    -0.008 A 
ATOM      4  C   UNL     1      -0.125   5.513  -8.371  0.00  0.00    -0.003 A 
ATOM      5  C   UNL     1       0.950   4.939  -9.039  0.00  0.00    -0.000 A 
ATOM      6  C   UNL     1       2.038   4.578  -8.257  0.00  0.00    +0.001 A 
ATOM      7  C   UNL     1      -1.571   5.693  -6.516  0.00  0.00    +0.032 C 
ATOM      8  C   UNL     1      -1.652   6.662  -5.355  0.00  0.00    +0.032 C 
ATOM      9  C   UNL     1      -1.121   6.043  -4.100  0.00  0.00    -0.008 A 
ATOM     10  C   UNL     1      -1.826   6.558  -3.018  0.00  0.00    -0.003 A 
ATOM     11  C   UNL     1      -1.284   6.394  -1.749  0.00  0.00    -0.000 A 
ATOM     12  C   UNL     1      -0.268   5.461  -1.589  0.00  0.00    +0.001 A 
ATOM     13  C   UNL     1       0.503   5.045  -2.656  0.00  0.00    +0.015 A 
ATOM     14  C   UNL     1       2.114   4.926  -6.913  0.00  0.00    +0.015 A 
ATOM     15  C   UNL     1       0.097   5.410  -3.909  0.00  0.00    +0.048 A 
ENDROOT
BRANCH   1  16
ATOM     16  C   UNL     1       2.491   5.281  -4.346  0.00  0.00    +0.097 C 
BRANCH  16  18
ATOM     17  C   UNL     1       3.746   7.157  -5.094  0.00  0.00    +0.003 C 
ATOM     18  C   UNL     1       2.567   6.879  -3.982  0.00  0.00    +0.036 C 
BRANCH  18  19
ATOM     19  C   UNL     1       3.671   6.627  -2.791  0.00  0.00    +0.074 C 
BRANCH  19  20
ATOM     20  N   UNL     1       3.149   7.428  -1.715  0.00  0.00    -0.270 NA
ATOM     21  C   UNL     1       3.035   6.738  -0.463  0.00  0.00    +0.090 C 
ATOM     22  C   UNL     1       3.775   8.720  -1.607  0.00  0.00    +0.090 C 
ENDBRANCH  19  20
ENDBRANCH  18  19
ENDBRANCH  16  18
ENDBRANCH   1  16
TORSDOF 4
ENDMDL
MODEL 5
REMARK VINA RESULT:      -7.3      2.338      5.301
REMARK  Name = 
REMARK  4 active torsions:
REMARK  status: ('A' for Active; 'I' for Inactive)
REMARK    1  A    between atoms: C_2  and  C_3
REMARK    2  A    between atoms: C_2  and  C_7
REMARK    3  A    between atoms: C_3  and  N_4
REMARK    4  A    between atoms: C_7  and  N_8
REMARK                            x       y       z     vdW  Elec       q    Type
REMARK                         _______ _______ _______ _____ _____    ______ ____
ROOT
ATOM      1  N   UNL     1       0.934   5.416  -4.990  0.00  0.00    -0.287 N 
ATOM      2  C   UNL     1       2.214   5.364  -4.341  0.00  0.00    +0.048 A 
ATOM      3  C   UNL     1       2.535   5.336  -2.988  0.00  0.00    -0.008 A 
ATOM      4  C   UNL     1       3.869   5.300  -2.605  0.00  0.00    -0.003 A 
ATOM      5  C   UNL     1       4.890   5.328  -3.548  0.00  0.00    -0.000 A 
ATOM      6  C   UNL     1       4.502   5.249  -4.878  0.00  0.00    +0.001 A 
ATOM      7  C   UNL     1       1.701   5.858  -1.863  0.00  0.00    +0.032 C 
ATOM      8  C   UNL     1       0.400   5.088  -1.791  0.00  0.00    +0.032 C 
ATOM      9  C   UNL     1      -0.534   5.505  -2.883  0.00  0.00    -0.008 A 
ATOM     10  C   UNL     1      -1.840   5.402  -2.415  0.00  0.00    -0.003 A 
ATOM     11  C   UNL     1      -2.869   5.404  -3.349  0.00  0.00    -0.000 A 
ATOM     12  C   UNL     1      -2.581   5.834  -4.637  0.00  0.00    +0.001 A 
ATOM     13  C   UNL     1      -1.291   5.822  -5.130  0.00  0.00    +0.015 A 
ATOM     14  C   UNL     1       3.184   4.988  -5.236  0.00  0.00    +0.015 A 
ATOM     15  C   UNL     1      -0.279   5.582  -4.243  0.00  0.00    +0.048 A 
ENDROOT
BRANCH   1  16
ATOM     16  C   UNL     1       0.786   4.670  -6.237  0.00  0.00    +0.097 C 
BRANCH  16  18
ATOM     17  C   UNL     1      -0.295   5.427  -8.215  0.00  0.00    +0.003 C 
ATOM     18  C   UNL     1       1.120   5.739  -7.436  0.00  0.00    +0.036 C 
BRANCH  18  19
ATOM     19  C   UNL     1       1.920   4.606  -8.318  0.00  0.00    +0.074 C 
BRANCH  19  20
ATOM     20  N   UNL     1       2.964   5.381  -8.937  0.00  0.00    -0.270 NA
ATOM     21  C   UNL     1       3.082   6.722  -8.439  0.00  0.00    +0.090 C 
ATOM     22  C   UNL     1       4.221   4.685  -9.023  0.00  0.00    +0.090 C 
ENDBRANCH  19  20
ENDBRANCH  18  19
ENDBRANCH  16  18
ENDBRANCH   1  16
TORSDOF 4
ENDMDL
MODEL 6
REMARK VINA RESULT:      -7.2      2.877      6.814
REMARK  Name = 
REMARK  4 active torsions:
REMARK  status: ('A' for Active; 'I' for Inactive)
REMARK    1  A    between atoms: C_2  and  C_3
REMARK    2  A    between atoms: C_2  and  C_7
REMARK    3  A    between atoms: C_3  and  N_4
REMARK    4  A    between atoms: C_7  and  N_8
REMARK                            x       y       z     vdW  Elec       q    Type
REMARK                         _______ _______ _______ _____ _____    ______ ____
ROOT
ATOM      1  N   UNL     1       0.472   5.730  -4.302  0.00  0.00    -0.287 N 
ATOM      2  C   UNL     1       0.724   5.663  -5.713  0.00  0.00    +0.048 A 
ATOM      3  C   UNL     1      -0.161   5.664  -6.786  0.00  0.00    -0.008 A 
ATOM      4  C   UNL     1       0.335   5.577  -8.079  0.00  0.00    -0.003 A 
ATOM      5  C   UNL     1       1.697   5.450  -8.321  0.00  0.00    -0.000 A 
ATOM      6  C   UNL     1       2.531   5.562  -7.217  0.00  0.00    +0.001 A 
ATOM      7  C   UNL     1      -1.590   5.226  -6.762  0.00  0.00    +0.032 C 
ATOM      8  C   UNL     1      -2.383   6.115  -5.827  0.00  0.00    +0.032 C 
ATOM      9  C   UNL     1      -2.095   5.784  -4.396  0.00  0.00    -0.008 A 
ATOM     10  C   UNL     1      -3.246   6.010  -3.648  0.00  0.00    -0.003 A 
ATOM     11  C   UNL     1      -3.118   6.102  -2.268  0.00  0.00    -0.000 A 
ATOM     12  C   UNL     1      -1.942   5.643  -1.690  0.00  0.00    +0.001 A 
ATOM     13  C   UNL     1      -0.774   5.534  -2.419  0.00  0.00    +0.015 A 
ATOM     14  C   UNL     1       2.041   5.945  -5.973  0.00  0.00    +0.015 A 
ATOM     15  C   UNL     1      -0.861   5.680  -3.775  0.00  0.00    +0.048 A 
ENDROOT
BRANCH   1  16
ATOM     16  C   UNL     1       1.422   6.483  -3.487  0.00  0.00    +0.097 C 
BRANCH  16  18
ATOM     17  C   UNL     1       2.187   5.258  -1.598  0.00  0.00    +0.003 C 
ATOM     18  C   UNL     1       2.651   5.446  -3.165  0.00  0.00    +0.036 C 
BRANCH  18  19
ATOM     19  C   UNL     1       3.676   6.670  -2.774  0.00  0.00    +0.074 C 
BRANCH  19  20
ATOM     20  N   UNL     1       4.855   6.334  -3.529  0.00  0.00    -0.270 NA
ATOM     21  C   UNL     1       4.865   4.998  -4.051  0.00  0.00    +0.090 C 
ATOM     22  C   UNL     1       5.220   7.335  -4.497  0.00  0.00    +0.090 C 
ENDBRANCH  19  20
ENDBRANCH  18  19
ENDBRANCH  16  18
ENDBRANCH   1  16
TORSDOF 4
ENDMDL
MODEL 7
REMARK VINA RESULT:      -7.2      2.693      4.933
REMARK  Name = 
REMARK  4 active torsions:
REMARK  status: ('A' for Active; 'I' for Inactive)
REMARK    1  A    between atoms: C_2  and  C_3
REMARK    2  A    between atoms: C_2  and  C_7
REMARK    3  A    between atoms: C_3  and  N_4
REMARK    4  A    between atoms: C_7  and  N_8
REMARK                            x       y       z     vdW  Elec       q    Type
REMARK                         _______ _______ _______ _____ _____    ______ ____
ROOT
ATOM      1  N   UNL     1       4.613   5.676 -11.166  0.00  0.00    -0.287 N 
ATOM      2  C   UNL     1       4.267   5.619  -9.774  0.00  0.00    +0.048 A 
ATOM      3  C   UNL     1       5.081   5.585  -8.647  0.00  0.00    -0.008 A 
ATOM      4  C   UNL     1       4.499   5.518  -7.388  0.00  0.00    -0.003 A 
ATOM      5  C   UNL     1       3.120   5.447  -7.235  0.00  0.00    -0.000 A 
ATOM      6  C   UNL     1       2.364   5.592  -8.390  0.00  0.00    +0.001 A 
ATOM      7  C   UNL     1       6.489   5.088  -8.579  0.00  0.00    +0.032 C 
ATOM      8  C   UNL     1       7.376   5.944  -9.459  0.00  0.00    +0.032 C 
ATOM      9  C   UNL     1       7.168   5.625 -10.906  0.00  0.00    -0.008 A 
ATOM     10  C   UNL     1       8.373   5.804 -11.578  0.00  0.00    -0.003 A 
ATOM     11  C   UNL     1       8.338   5.901 -12.964  0.00  0.00    -0.000 A 
ATOM     12  C   UNL     1       7.184   5.490 -13.618  0.00  0.00    +0.001 A 
ATOM     13  C   UNL     1       5.968   5.429 -12.965  0.00  0.00    +0.015 A 
ATOM     14  C   UNL     1       2.948   5.955  -9.599  0.00  0.00    +0.015 A 
ATOM     15  C   UNL     1       5.973   5.572 -11.606  0.00  0.00    +0.048 A 
ENDROOT
BRANCH   1  16
ATOM     16  C   UNL     1       3.748   6.467 -12.039  0.00  0.00    +0.097 C 
BRANCH  16  18
ATOM     17  C   UNL     1       3.041   5.486 -14.085  0.00  0.00    +0.003 C 
ATOM     18  C   UNL     1       2.550   5.453 -12.516  0.00  0.00    +0.036 C 
BRANCH  18  19
ATOM     19  C   UNL     1       1.501   6.694 -12.759  0.00  0.00    +0.074 C 
BRANCH  19  20
ATOM     20  N   UNL     1       0.285   6.184 -12.182  0.00  0.00    -0.270 NA
ATOM     21  C   UNL     1       0.335   4.795 -11.824  0.00  0.00    +0.090 C 
ATOM     22  C   UNL     1      -0.257   7.027 -11.148  0.00  0.00    +0.090 C 
ENDBRANCH  19  20
ENDBRANCH  18  19
ENDBRANCH  16  18
ENDBRANCH   1  16
TORSDOF 4
ENDMDL
MODEL 8
REMARK VINA RESULT:      -7.2      2.795      6.083
REMARK  Name = 
REMARK  4 active torsions:
REMARK  status: ('A' for Active; 'I' for Inactive)
REMARK    1  A    between atoms: C_2  and  C_3
REMARK    2  A    between atoms: C_2  and  C_7
REMARK    3  A    between atoms: C_3  and  N_4
REMARK    4  A    between atoms: C_7  and  N_8
REMARK                            x       y       z     vdW  Elec       q    Type
REMARK                         _______ _______ _______ _____ _____    ______ ____
ROOT
ATOM      1  N   UNL     1       0.844   5.793  -4.797  0.00  0.00    -0.287 N 
ATOM      2  C   UNL     1      -0.344   5.699  -3.996  0.00  0.00    +0.048 A 
ATOM      3  C   UNL     1      -1.675   5.573  -4.376  0.00  0.00    -0.008 A 
ATOM      4  C   UNL     1      -2.660   5.513  -3.399  0.00  0.00    -0.003 A 
ATOM      5  C   UNL     1      -2.343   5.615  -2.050  0.00  0.00    -0.000 A 
ATOM      6  C   UNL     1      -0.991   5.632  -1.735  0.00  0.00    +0.001 A 
ATOM      7  C   UNL     1      -2.277   6.008  -5.673  0.00  0.00    +0.032 C 
ATOM      8  C   UNL     1      -1.654   5.229  -6.812  0.00  0.00    +0.032 C 
ATOM      9  C   UNL     1      -0.273   5.722  -7.109  0.00  0.00    -0.008 A 
ATOM     10  C   UNL     1      -0.033   5.580  -8.472  0.00  0.00    -0.003 A 
ATOM     11  C   UNL     1       1.283   5.647  -8.913  0.00  0.00    -0.000 A 
ATOM     12  C   UNL     1       2.234   6.172  -8.049  0.00  0.00    +0.001 A 
ATOM     13  C   UNL     1       2.032   6.200  -6.684  0.00  0.00    +0.015 A 
ATOM     14  C   UNL     1      -0.018   5.392  -2.699  0.00  0.00    +0.015 A 
ATOM     15  C   UNL     1       0.780   5.899  -6.225  0.00  0.00    +0.048 A 
ENDROOT
BRANCH   1  16
ATOM     16  C   UNL     1       2.048   5.140  -4.288  0.00  0.00    +0.097 C 
BRANCH  16  18
ATOM     17  C   UNL     1       4.408   5.414  -4.365  0.00  0.00    +0.003 C 
ATOM     18  C   UNL     1       3.112   6.350  -3.978  0.00  0.00    +0.036 C 
BRANCH  18  19
ATOM     19  C   UNL     1       3.221   5.942  -2.390  0.00  0.00    +0.074 C 
BRANCH  19  20
ATOM     20  N   UNL     1       2.891   7.181  -1.733  0.00  0.00    -0.270 NA
ATOM     21  C   UNL     1       2.598   7.051  -0.334  0.00  0.00    +0.090 C 
ATOM     22  C   UNL     1       3.806   8.251  -2.034  0.00  0.00    +0.090 C 
ENDBRANCH  19  20
ENDBRANCH  18  19
ENDBRANCH  16  18
ENDBRANCH   1  16
TORSDOF 4
ENDMDL
MODEL 9
REMARK VINA RESULT:      -7.1      2.252      5.428
REMARK  Name = 
REMARK  4 active torsions:
REMARK  status: ('A' for Active; 'I' for Inactive)
REMARK    1  A    between atoms: C_2  and  C_3
REMARK    2  A    between atoms: C_2  and  C_7
REMARK    3  A    between atoms: C_3  and  N_4
REMARK    4  A    between atoms: C_7  and  N_8
REMARK                            x       y       z     vdW  Elec       q    Type
REMARK                         _______ _______ _______ _____ _____    ______ ____
ROOT
ATOM      1  N   UNL     1       2.231   5.423  -6.231  0.00  0.00    -0.287 N 
ATOM      2  C   UNL     1       0.798   5.475  -6.178  0.00  0.00    +0.048 A 
ATOM      3  C   UNL     1      -0.142   5.416  -7.201  0.00  0.00    -0.008 A 
ATOM      4  C   UNL     1      -1.493   5.501  -6.892  0.00  0.00    -0.003 A 
ATOM      5  C   UNL     1      -1.922   5.681  -5.583  0.00  0.00    -0.000 A 
ATOM      6  C   UNL     1      -0.942   5.625  -4.601  0.00  0.00    +0.001 A 
ATOM      7  C   UNL     1       0.073   5.795  -8.631  0.00  0.00    +0.032 C 
ATOM      8  C   UNL     1       1.119   4.890  -9.248  0.00  0.00    +0.032 C 
ATOM      9  C   UNL     1       2.492   5.259  -8.781  0.00  0.00    -0.008 A 
ATOM     10  C   UNL     1       3.395   4.998  -9.807  0.00  0.00    -0.003 A 
ATOM     11  C   UNL     1       4.746   4.937  -9.487  0.00  0.00    -0.000 A 
ATOM     12  C   UNL     1       5.150   5.456  -8.264  0.00  0.00    +0.001 A 
ATOM     13  C   UNL     1       4.266   5.601  -7.214  0.00  0.00    +0.015 A 
ATOM     14  C   UNL     1       0.362   5.244  -4.898  0.00  0.00    +0.015 A 
ATOM     15  C   UNL     1       2.936   5.426  -7.479  0.00  0.00    +0.048 A 
ENDROOT
BRANCH   1  16
ATOM     16  C   UNL     1       2.916   4.725  -5.145  0.00  0.00    +0.097 C 
BRANCH  16  18
ATOM     17  C   UNL     1       5.033   4.896  -4.077  0.00  0.00    +0.003 C 
ATOM     18  C   UNL     1       3.741   5.882  -4.324  0.00  0.00    +0.036 C 
BRANCH  18  19
ATOM     19  C   UNL     1       3.063   5.448  -2.892  0.00  0.00    +0.074 C 
BRANCH  19  20
ATOM     20  N   UNL     1       2.595   6.710  -2.380  0.00  0.00    -0.270 NA
ATOM     21  C   UNL     1       1.995   6.637  -1.078  0.00  0.00    +0.090 C 
ATOM     22  C   UNL     1       3.554   7.775  -2.515  0.00  0.00    +0.090 C 
ENDBRANCH  19  20
ENDBRANCH  18  19
ENDBRANCH  16  18
ENDBRANCH   1  16
TORSDOF 4
ENDMDL
