MODEL 1
REMARK VINA RESULT:      -8.4      0.000      0.000
REMARK  Name = 
REMARK  2 active torsions:
REMARK  status: ('A' for Active; 'I' for Inactive)
REMARK    1  A    between atoms: C_4  and  C_5
REMARK    2  A    between atoms: N_7  and  C_8
REMARK                            x       y       z     vdW  Elec       q    Type
REMARK                         _______ _______ _______ _____ _____    ______ ____
ROOT
ATOM      1  C   UNL     1       2.928   4.457  -7.737  0.00  0.00    +0.284 C 
ATOM      2  N   UNL     1       4.003   5.406  -7.865  0.00  0.00    -0.202 NA
ATOM      3  O   UNL     1       2.490   3.760  -8.703  0.00  0.00    -0.267 OA
ENDROOT
BRANCH   1  11
ATOM      4  C   UNL     1      -0.947   5.517  -4.823  0.00  0.00    +0.154 C 
ATOM      5  N   UNL     1       0.386   5.354  -5.338  0.00  0.00    -0.249 N 
ATOM      6  C   UNL     1       1.449   5.282  -4.514  0.00  0.00    +0.080 A 
ATOM      7  C   UNL     1       2.441   4.676  -5.282  0.00  0.00    +0.041 A 
ATOM      8  C   UNL     1       3.700   4.499  -4.719  0.00  0.00    +0.003 A 
ATOM      9  C   UNL     1       4.067   5.112  -3.532  0.00  0.00    +0.000 A 
ATOM     10  C   UNL     1       3.041   5.695  -2.798  0.00  0.00    +0.002 A 
ATOM     11  C   UNL     1       2.007   4.563  -6.597  0.00  0.00    +0.157 A 
ATOM     12  C   UNL     1       1.724   5.621  -3.216  0.00  0.00    +0.019 A 
ATOM     13  N   UNL     1       0.777   5.121  -6.586  0.00  0.00    -0.165 NA
ENDBRANCH   1  11
BRANCH   2  14
ATOM     14  C   UNL     1       4.560   5.278  -9.329  0.00  0.00    +0.098 C 
ATOM     15  C   UNL     1       6.107   5.609  -8.905  0.00  0.00    +0.038 C 
ATOM     16  C   UNL     1       6.828   5.322 -10.375  0.00  0.00    +0.059 C 
ATOM     17  N   UNL     1       5.627   5.534 -11.289  0.00  0.00    -0.274 NA
ATOM     18  C   UNL     1       4.730   6.782 -11.304  0.00  0.00    +0.059 C 
ATOM     19  C   UNL     1       5.875   7.979 -11.268  0.00  0.00    +0.016 C 
ATOM     20  C   UNL     1       7.134   7.408 -11.788  0.00  0.00    +0.003 C 
ATOM     21  C   UNL     1       5.932   5.128 -12.593  0.00  0.00    +0.090 C 
ATOM     22  C   UNL     1       7.536   6.811 -10.478  0.00  0.00    +0.016 C 
ATOM     23  C   UNL     1       4.387   6.868  -9.676  0.00  0.00    +0.038 C 
ENDBRANCH   2  14
TORSDOF 2
ENDMDL
MODEL 2
REMARK VINA RESULT:      -8.2      1.328      2.000
REMARK  Name = 
REMARK  2 active torsions:
REMARK  status: ('A' for Active; 'I' for Inactive)
REMARK    1  A    between atoms: C_4  and  C_5
REMARK    2  A    between atoms: N_7  and  C_8
REMARK                            x       y       z     vdW  Elec       q    Type
REMARK                         _______ _______ _______ _____ _____    ______ ____
ROOT
ATOM      1  C   UNL     1       2.889   6.352  -7.554  0.00  0.00    +0.284 C 
ATOM      2  N   UNL     1       3.709   5.472  -8.345  0.00  0.00    -0.202 NA
ATOM      3  O   UNL     1       2.969   7.618  -7.606  0.00  0.00    -0.267 OA
ENDROOT
BRANCH   1  11
ATOM      4  C   UNL     1      -0.304   5.529  -3.846  0.00  0.00    +0.154 C 
ATOM      5  N   UNL     1       0.891   5.782  -4.604  0.00  0.00    -0.249 N 
ATOM      6  C   UNL     1       2.109   5.502  -4.101  0.00  0.00    +0.080 A 
ATOM      7  C   UNL     1       2.936   5.424  -5.220  0.00  0.00    +0.041 A 
ATOM      8  C   UNL     1       4.292   5.189  -5.027  0.00  0.00    +0.003 A 
ATOM      9  C   UNL     1       4.882   5.272  -3.776  0.00  0.00    +0.000 A 
ATOM     10  C   UNL     1       4.017   5.340  -2.691  0.00  0.00    +0.002 A 
ATOM     11  C   UNL     1       2.233   5.833  -6.346  0.00  0.00    +0.157 A 
ATOM     12  C   UNL     1       2.644   5.281  -2.860  0.00  0.00    +0.019 A 
ATOM     13  N   UNL     1       1.013   6.165  -5.870  0.00  0.00    -0.165 NA
ENDBRANCH   1  11
BRANCH   2  14
ATOM     14  C   UNL     1       4.552   6.374  -9.317  0.00  0.00    +0.098 C 
ATOM     15  C   UNL     1       4.273   5.440 -10.632  0.00  0.00    +0.038 C 
ATOM     16  C   UNL     1       4.984   6.413 -11.776  0.00  0.00    +0.059 C 
ATOM     17  N   UNL     1       5.939   7.196 -10.882  0.00  0.00    -0.274 NA
ATOM     18  C   UNL     1       6.960   6.576  -9.914  0.00  0.00    +0.059 C 
ATOM     19  C   UNL     1       7.618   5.401 -10.878  0.00  0.00    +0.016 C 
ATOM     20  C   UNL     1       7.394   5.799 -12.283  0.00  0.00    +0.003 C 
ATOM     21  C   UNL     1       6.511   8.257 -11.593  0.00  0.00    +0.090 C 
ATOM     22  C   UNL     1       6.008   5.245 -12.339  0.00  0.00    +0.016 C 
ATOM     23  C   UNL     1       5.942   5.536  -9.102  0.00  0.00    +0.038 C 
ENDBRANCH   2  14
TORSDOF 2
ENDMDL
MODEL 3
REMARK VINA RESULT:      -8.2      1.731      7.545
REMARK  Name = 
REMARK  2 active torsions:
REMARK  status: ('A' for Active; 'I' for Inactive)
REMARK    1  A    between atoms: C_4  and  C_5
REMARK    2  A    between atoms: N_7  and  C_8
REMARK                            x       y       z     vdW  Elec       q    Type
REMARK                         _______ _______ _______ _____ _____    ______ ____
ROOT
ATOM      1  C   UNL     1       4.353   5.607  -9.682  0.00  0.00    +0.284 C 
ATOM      2  N   UNL     1       3.452   6.427  -8.914  0.00  0.00    -0.202 NA
ATOM      3  O   UNL     1       5.149   4.768  -9.162  0.00  0.00    -0.267 OA
ENDROOT
BRANCH   1  11
ATOM      4  C   UNL     1       4.413   6.155 -14.614  0.00  0.00    +0.154 C 
ATOM      5  N   UNL     1       4.799   5.920 -13.248  0.00  0.00    -0.249 N 
ATOM      6  C   UNL     1       6.082   6.041 -12.855  0.00  0.00    +0.080 A 
ATOM      7  C   UNL     1       6.007   6.208 -11.474  0.00  0.00    +0.041 A 
ATOM      8  C   UNL     1       7.191   6.315 -10.754  0.00  0.00    +0.003 A 
ATOM      9  C   UNL     1       8.423   6.023 -11.317  0.00  0.00    +0.000 A 
ATOM     10  C   UNL     1       8.449   5.873 -12.697  0.00  0.00    +0.002 A 
ATOM     11  C   UNL     1       4.699   6.006 -11.053  0.00  0.00    +0.157 A 
ATOM     12  C   UNL     1       7.309   6.054 -13.463  0.00  0.00    +0.019 A 
ATOM     13  N   UNL     1       4.031   5.703 -12.188  0.00  0.00    -0.165 NA
ENDBRANCH   1  11
BRANCH   2  14
ATOM     14  C   UNL     1       3.573   5.970  -7.416  0.00  0.00    +0.098 C 
ATOM     15  C   UNL     1       2.287   4.960  -7.488  0.00  0.00    +0.038 C 
ATOM     16  C   UNL     1       2.431   4.275  -5.981  0.00  0.00    +0.059 C 
ATOM     17  N   UNL     1       3.217   5.377  -5.279  0.00  0.00    -0.274 NA
ATOM     18  C   UNL     1       2.811   6.858  -5.219  0.00  0.00    +0.059 C 
ATOM     19  C   UNL     1       1.203   6.718  -4.845  0.00  0.00    +0.016 C 
ATOM     20  C   UNL     1       1.007   5.400  -4.207  0.00  0.00    +0.003 C 
ATOM     21  C   UNL     1       3.662   4.934  -4.028  0.00  0.00    +0.090 C 
ATOM     22  C   UNL     1       0.898   4.662  -5.501  0.00  0.00    +0.016 C 
ATOM     23  C   UNL     1       2.553   7.116  -6.845  0.00  0.00    +0.038 C 
ENDBRANCH   2  14
TORSDOF 2
ENDMDL
MODEL 4
REMARK VINA RESULT:      -8.1      2.541      8.255
REMARK  Name = 
REMARK  2 active torsions:
REMARK  status: ('A' for Active; 'I' for Inactive)
REMARK    1  A    between atoms: C_4  and  C_5
REMARK    2  A    between atoms: N_7  and  C_8
REMARK                            x       y       z     vdW  Elec       q    Type
REMARK                         _______ _______ _______ _____ _____    ______ ____
ROOT
ATOM      1  C   UNL     1       1.884   6.654  -7.839  0.00  0.00    +0.284 C 
ATOM      2  N   UNL     1       1.088   5.718  -7.089  0.00  0.00    -0.202 NA
ATOM      3  O   UNL     1       1.743   7.912  -7.761  0.00  0.00    -0.267 OA
ENDROOT
BRANCH   1  11
ATOM      4  C   UNL     1       5.338   5.808 -11.300  0.00  0.00    +0.154 C 
ATOM      5  N   UNL     1       4.111   6.150 -10.632  0.00  0.00    -0.249 N 
ATOM      6  C   UNL     1       2.934   6.136 -11.286  0.00  0.00    +0.080 A 
ATOM      7  C   UNL     1       1.978   6.050 -10.275  0.00  0.00    +0.041 A 
ATOM      8  C   UNL     1       0.635   6.062 -10.631  0.00  0.00    +0.003 A 
ATOM      9  C   UNL     1       0.215   6.397 -11.908  0.00  0.00    +0.000 A 
ATOM     10  C   UNL     1       1.203   6.463 -12.882  0.00  0.00    +0.002 A 
ATOM     11  C   UNL     1       2.596   6.194  -9.039  0.00  0.00    +0.157 A 
ATOM     12  C   UNL     1       2.522   6.163 -12.591  0.00  0.00    +0.019 A 
ATOM     13  N   UNL     1       3.899   6.383  -9.342  0.00  0.00    -0.165 NA
ENDBRANCH   1  11
BRANCH   2  14
ATOM     14  C   UNL     1       0.177   6.557  -6.121  0.00  0.00    +0.098 C 
ATOM     15  C   UNL     1       0.511   5.640  -4.806  0.00  0.00    +0.038 C 
ATOM     16  C   UNL     1      -0.274   6.558  -3.665  0.00  0.00    +0.059 C 
ATOM     17  N   UNL     1      -1.274   7.276  -4.564  0.00  0.00    -0.274 NA
ATOM     18  C   UNL     1      -2.243   6.590  -5.541  0.00  0.00    +0.059 C 
ATOM     19  C   UNL     1      -2.824   5.369  -4.584  0.00  0.00    +0.016 C 
ATOM     20  C   UNL     1      -2.639   5.778  -3.176  0.00  0.00    +0.003 C 
ATOM     21  C   UNL     1      -1.922   8.292  -3.854  0.00  0.00    +0.090 C 
ATOM     22  C   UNL     1      -1.218   5.320  -3.112  0.00  0.00    +0.016 C 
ATOM     23  C   UNL     1      -1.150   5.625  -6.347  0.00  0.00    +0.038 C 
ENDBRANCH   2  14
TORSDOF 2
ENDMDL
MODEL 5
REMARK VINA RESULT:      -8.1      2.626      6.996
REMARK  Name = 
REMARK  2 active torsions:
REMARK  status: ('A' for Active; 'I' for Inactive)
REMARK    1  A    between atoms: C_4  and  C_5
REMARK    2  A    between atoms: N_7  and  C_8
REMARK                            x       y       z     vdW  Elec       q    Type
REMARK                         _______ _______ _______ _____ _____    ______ ____
ROOT
ATOM      1  C   UNL     1       2.523   4.976  -8.299  0.00  0.00    +0.284 C 
ATOM      2  N   UNL     1       2.704   6.153  -7.488  0.00  0.00    -0.202 NA
ATOM      3  O   UNL     1       2.645   3.794  -7.853  0.00  0.00    -0.267 OA
ENDROOT
BRANCH   1  11
ATOM      4  C   UNL     1       4.173   5.613 -12.935  0.00  0.00    +0.154 C 
ATOM      5  N   UNL     1       3.400   5.690 -11.725  0.00  0.00    -0.249 N 
ATOM      6  C   UNL     1       2.111   6.077 -11.744  0.00  0.00    +0.080 A 
ATOM      7  C   UNL     1       1.587   5.595 -10.546  0.00  0.00    +0.041 A 
ATOM      8  C   UNL     1       0.260   5.877 -10.242  0.00  0.00    +0.003 A 
ATOM      9  C   UNL     1      -0.476   6.808 -10.955  0.00  0.00    +0.000 A 
ATOM     10  C   UNL     1       0.084   7.254 -12.146  0.00  0.00    +0.002 A 
ATOM     11  C   UNL     1       2.615   5.088  -9.761  0.00  0.00    +0.157 A 
ATOM     12  C   UNL     1       1.289   6.752 -12.607  0.00  0.00    +0.019 A 
ATOM     13  N   UNL     1       3.727   5.299 -10.499  0.00  0.00    -0.165 NA
ENDBRANCH   1  11
BRANCH   2  14
ATOM     14  C   UNL     1       2.925   5.667  -6.011  0.00  0.00    +0.098 C 
ATOM     15  C   UNL     1       2.484   7.094  -5.341  0.00  0.00    +0.038 C 
ATOM     16  C   UNL     1       2.510   6.631  -3.745  0.00  0.00    +0.059 C 
ATOM     17  N   UNL     1       3.467   5.449  -3.842  0.00  0.00    -0.274 NA
ATOM     18  C   UNL     1       4.870   5.490  -4.469  0.00  0.00    +0.059 C 
ATOM     19  C   UNL     1       5.459   6.889  -3.805  0.00  0.00    +0.016 C 
ATOM     20  C   UNL     1       4.697   7.150  -2.566  0.00  0.00    +0.003 C 
ATOM     21  C   UNL     1       3.484   4.738  -2.636  0.00  0.00    +0.090 C 
ATOM     22  C   UNL     1       3.560   7.816  -3.271  0.00  0.00    +0.016 C 
ATOM     23  C   UNL     1       4.475   6.186  -5.930  0.00  0.00    +0.038 C 
ENDBRANCH   2  14
TORSDOF 2
ENDMDL
MODEL 6
REMARK VINA RESULT:      -7.9      2.313      6.733
REMARK  Name = 
REMARK  2 active torsions:
REMARK  status: ('A' for Active; 'I' for Inactive)
REMARK    1  A    between atoms: C_4  and  C_5
REMARK    2  A    between atoms: N_7  and  C_8
REMARK                            x       y       z     vdW  Elec       q    Type
REMARK                         _______ _______ _______ _____ _____    ______ ____
ROOT
ATOM      1  C   UNL     1       1.920   5.151  -7.477  0.00  0.00    +0.284 C 
ATOM      2  N   UNL     1       1.853   6.239  -6.536  0.00  0.00    -0.202 NA
ATOM      3  O   UNL     1       2.520   4.058  -7.241  0.00  0.00    -0.267 OA
ENDROOT
BRANCH   1  11
ATOM      4  C   UNL     1       0.365   4.847 -12.180  0.00  0.00    +0.154 C 
ATOM      5  N   UNL     1       1.180   5.006 -11.005  0.00  0.00    -0.249 N 
ATOM      6  C   UNL     1       2.355   5.663 -11.055  0.00  0.00    +0.080 A 
ATOM      7  C   UNL     1       2.608   6.019  -9.732  0.00  0.00    +0.041 A 
ATOM      8  C   UNL     1       3.795   6.681  -9.439  0.00  0.00    +0.003 A 
ATOM      9  C   UNL     1       4.827   6.782 -10.358  0.00  0.00    +0.000 A 
ATOM     10  C   UNL     1       4.523   6.423 -11.666  0.00  0.00    +0.002 A 
ATOM     11  C   UNL     1       1.673   5.415  -8.901  0.00  0.00    +0.157 A 
ATOM     12  C   UNL     1       3.245   6.033 -12.027  0.00  0.00    +0.019 A 
ATOM     13  N   UNL     1       0.898   4.698  -9.745  0.00  0.00    -0.165 NA
ENDBRANCH   1  11
BRANCH   2  14
ATOM     14  C   UNL     1       2.516   5.739  -5.203  0.00  0.00    +0.098 C 
ATOM     15  C   UNL     1       2.075   7.058  -4.339  0.00  0.00    +0.038 C 
ATOM     16  C   UNL     1       2.580   6.547  -2.840  0.00  0.00    +0.059 C 
ATOM     17  N   UNL     1       3.631   5.528  -3.264  0.00  0.00    -0.274 NA
ATOM     18  C   UNL     1       4.802   5.803  -4.221  0.00  0.00    +0.059 C 
ATOM     19  C   UNL     1       5.346   7.250  -3.625  0.00  0.00    +0.016 C 
ATOM     20  C   UNL     1       4.907   7.348  -2.219  0.00  0.00    +0.003 C 
ATOM     21  C   UNL     1       4.059   4.784  -2.158  0.00  0.00    +0.090 C 
ATOM     22  C   UNL     1       3.545   7.858  -2.561  0.00  0.00    +0.016 C 
ATOM     23  C   UNL     1       3.948   6.484  -5.479  0.00  0.00    +0.038 C 
ENDBRANCH   2  14
TORSDOF 2
ENDMDL
MODEL 7
REMARK VINA RESULT:      -7.9      2.381      7.097
REMARK  Name = 
REMARK  2 active torsions:
REMARK  status: ('A' for Active; 'I' for Inactive)
REMARK    1  A    between atoms: C_4  and  C_5
REMARK    2  A    between atoms: N_7  and  C_8
REMARK                            x       y       z     vdW  Elec       q    Type
REMARK                         _______ _______ _______ _____ _____    ______ ____
ROOT
ATOM      1  C   UNL     1       2.920   7.200  -8.167  0.00  0.00    +0.284 C 
ATOM      2  N   UNL     1       3.556   6.246  -7.296  0.00  0.00    -0.202 NA
ATOM      3  O   UNL     1       2.384   8.274  -7.756  0.00  0.00    -0.267 OA
ENDROOT
BRANCH   1  11
ATOM      4  C   UNL     1       0.570   4.974 -11.929  0.00  0.00    +0.154 C 
ATOM      5  N   UNL     1       1.585   5.505 -11.059  0.00  0.00    -0.249 N 
ATOM      6  C   UNL     1       2.825   5.769 -11.513  0.00  0.00    +0.080 A 
ATOM      7  C   UNL     1       3.351   6.664 -10.583  0.00  0.00    +0.041 A 
ATOM      8  C   UNL     1       4.661   7.099 -10.749  0.00  0.00    +0.003 A 
ATOM      9  C   UNL     1       5.526   6.499 -11.649  0.00  0.00    +0.000 A 
ATOM     10  C   UNL     1       4.954   5.621 -12.561  0.00  0.00    +0.002 A 
ATOM     11  C   UNL     1       2.483   6.775  -9.504  0.00  0.00    +0.157 A 
ATOM     12  C   UNL     1       3.588   5.402 -12.589  0.00  0.00    +0.019 A 
ATOM     13  N   UNL     1       1.473   5.930  -9.806  0.00  0.00    -0.165 NA
ENDBRANCH   1  11
BRANCH   2  14
ATOM     14  C   UNL     1       3.560   6.868  -5.853  0.00  0.00    +0.098 C 
ATOM     15  C   UNL     1       4.538   5.717  -5.221  0.00  0.00    +0.038 C 
ATOM     16  C   UNL     1       4.757   6.384  -3.715  0.00  0.00    +0.059 C 
ATOM     17  N   UNL     1       3.505   7.250  -3.640  0.00  0.00    -0.274 NA
ATOM     18  C   UNL     1       2.067   6.756  -3.865  0.00  0.00    +0.059 C 
ATOM     19  C   UNL     1       2.081   5.364  -2.966  0.00  0.00    +0.016 C 
ATOM     20  C   UNL     1       3.155   5.493  -1.960  0.00  0.00    +0.003 C 
ATOM     21  C   UNL     1       3.569   8.101  -2.530  0.00  0.00    +0.090 C 
ATOM     22  C   UNL     1       4.236   5.050  -2.892  0.00  0.00    +0.016 C 
ATOM     23  C   UNL     1       2.290   5.982  -5.323  0.00  0.00    +0.038 C 
ENDBRANCH   2  14
TORSDOF 2
ENDMDL
MODEL 8
REMARK VINA RESULT:      -7.7      1.801      7.220
REMARK  Name = 
REMARK  2 active torsions:
REMARK  status: ('A' for Active; 'I' for Inactive)
REMARK    1  A    between atoms: C_4  and  C_5
REMARK    2  A    between atoms: N_7  and  C_8
REMARK                            x       y       z     vdW  Elec       q    Type
REMARK                         _______ _______ _______ _____ _____    ______ ____
ROOT
ATOM      1  C   UNL     1       3.777   6.670  -8.980  0.00  0.00    +0.284 C 
ATOM      2  N   UNL     1       4.252   5.747  -7.982  0.00  0.00    -0.202 NA
ATOM      3  O   UNL     1       2.796   7.454  -8.797  0.00  0.00    -0.267 OA
ENDROOT
BRANCH   1  11
ATOM      4  C   UNL     1       3.770   5.152 -13.705  0.00  0.00    +0.154 C 
ATOM      5  N   UNL     1       4.167   5.465 -12.358  0.00  0.00    -0.249 N 
ATOM      6  C   UNL     1       5.464   5.633 -12.034  0.00  0.00    +0.080 A 
ATOM      7  C   UNL     1       5.432   6.354 -10.843  0.00  0.00    +0.041 A 
ATOM      8  C   UNL     1       6.636   6.651 -10.216  0.00  0.00    +0.003 A 
ATOM      9  C   UNL     1       7.829   6.058 -10.596  0.00  0.00    +0.000 A 
ATOM     10  C   UNL     1       7.813   5.356 -11.794  0.00  0.00    +0.002 A 
ATOM     11  C   UNL     1       4.122   6.446 -10.391  0.00  0.00    +0.157 A 
ATOM     12  C   UNL     1       6.675   5.300 -12.580  0.00  0.00    +0.019 A 
ATOM     13  N   UNL     1       3.408   5.761 -11.310  0.00  0.00    -0.165 NA
ENDBRANCH   1  11
BRANCH   2  14
ATOM     14  C   UNL     1       3.432   6.022  -6.671  0.00  0.00    +0.098 C 
ATOM     15  C   UNL     1       4.626   6.882  -5.953  0.00  0.00    +0.038 C 
ATOM     16  C   UNL     1       3.790   7.382  -4.607  0.00  0.00    +0.059 C 
ATOM     17  N   UNL     1       2.721   6.296  -4.557  0.00  0.00    -0.274 NA
ATOM     18  C   UNL     1       2.991   4.783  -4.557  0.00  0.00    +0.059 C 
ATOM     19  C   UNL     1       4.216   4.693  -3.445  0.00  0.00    +0.016 C 
ATOM     20  C   UNL     1       4.124   5.888  -2.583  0.00  0.00    +0.003 C 
ATOM     21  C   UNL     1       1.739   6.624  -3.616  0.00  0.00    +0.090 C 
ATOM     22  C   UNL     1       4.878   6.767  -3.527  0.00  0.00    +0.016 C 
ATOM     23  C   UNL     1       4.000   4.705  -5.881  0.00  0.00    +0.038 C 
ENDBRANCH   2  14
TORSDOF 2
ENDMDL
MODEL 9
REMARK VINA RESULT:      -7.6      2.671      4.686
REMARK  Name = 
REMARK  2 active torsions:
REMARK  status: ('A' for Active; 'I' for Inactive)
REMARK    1  A    between atoms: C_4  and  C_5
REMARK    2  A    between atoms: N_7  and  C_8
REMARK                            x       y       z     vdW  Elec       q    Type
REMARK                         _______ _______ _______ _____ _____    ______ ____
ROOT
ATOM      1  C   UNL     1       1.609   6.162  -4.501  0.00  0.00    +0.284 C 
ATOM      2  N   UNL     1       1.513   6.960  -5.696  0.00  0.00    -0.202 NA
ATOM      3  O   UNL     1       2.187   5.033  -4.459  0.00  0.00    -0.267 OA
ENDROOT
BRANCH   1  11
ATOM      4  C   UNL     1      -0.472   6.486  -0.008  0.00  0.00    +0.154 C 
ATOM      5  N   UNL     1      -0.236   6.218  -1.401  0.00  0.00    -0.249 N 
ATOM      6  C   UNL     1      -1.257   6.040  -2.260  0.00  0.00    +0.080 A 
ATOM      7  C   UNL     1      -0.699   6.274  -3.515  0.00  0.00    +0.041 A 
ATOM      8  C   UNL     1      -1.503   6.120  -4.638  0.00  0.00    +0.003 A 
ATOM      9  C   UNL     1      -2.749   5.516  -4.573  0.00  0.00    +0.000 A 
ATOM     10  C   UNL     1      -3.267   5.310  -3.301  0.00  0.00    +0.002 A 
ATOM     11  C   UNL     1       0.678   6.412  -3.392  0.00  0.00    +0.157 A 
ATOM     12  C   UNL     1      -2.589   5.732  -2.170  0.00  0.00    +0.019 A 
ATOM     13  N   UNL     1       0.909   6.235  -2.073  0.00  0.00    -0.165 NA
ENDBRANCH   1  11
BRANCH   2  14
ATOM     14  C   UNL     1       2.352   6.232  -6.807  0.00  0.00    +0.098 C 
ATOM     15  C   UNL     1       2.126   7.406  -7.926  0.00  0.00    +0.038 C 
ATOM     16  C   UNL     1       3.135   6.814  -9.106  0.00  0.00    +0.059 C 
ATOM     17  N   UNL     1       3.149   5.342  -8.709  0.00  0.00    -0.274 NA
ATOM     18  C   UNL     1       1.904   4.465  -8.502  0.00  0.00    +0.059 C 
ATOM     19  C   UNL     1       1.013   4.882  -9.835  0.00  0.00    +0.016 C 
ATOM     20  C   UNL     1       1.949   5.404 -10.852  0.00  0.00    +0.003 C 
ATOM     21  C   UNL     1       4.125   4.652  -9.438  0.00  0.00    +0.090 C 
ATOM     22  C   UNL     1       1.976   6.785 -10.283  0.00  0.00    +0.016 C 
ATOM     23  C   UNL     1       1.065   5.458  -7.459  0.00  0.00    +0.038 C 
ENDBRANCH   2  14
TORSDOF 2
ENDMDL
