MODEL 1
REMARK VINA RESULT:      -3.7      0.000      0.000
REMARK  Name = 
REMARK  3 active torsions:
REMARK  status: ('A' for Active; 'I' for Inactive)
REMARK    1  A    between atoms: C_2  and  C_3
REMARK    2  A    between atoms: C_2  and  C_5
REMARK    3  A    between atoms: C_2  and  C_7
REMARK                            x       y       z     vdW  Elec       q    Type
REMARK                         _______ _______ _______ _____ _____    ______ ____
ROOT
ATOM      1  N   UNL     1       5.927   5.433 -11.575  0.00  0.00    -0.126 NA
ATOM      2  C   UNL     1       7.108   6.068 -11.034  0.00  0.00    +0.168 C 
ENDROOT
BRANCH   2   3
ATOM      3  C   UNL     1       7.381   5.685  -9.610  0.00  0.00    +0.205 C 
ATOM      4  O   UNL     1       6.238   5.419  -8.872  0.00  0.00    -0.219 OA
ENDBRANCH   2   3
BRANCH   2   5
ATOM      5  C   UNL     1       8.302   5.614 -11.851  0.00  0.00    +0.205 C 
ATOM      6  O   UNL     1       7.875   4.591 -12.715  0.00  0.00    -0.219 OA
ENDBRANCH   2   5
BRANCH   2   7
ATOM      7  C   UNL     1       6.936   7.546 -11.244  0.00  0.00    +0.205 C 
ATOM      8  O   UNL     1       5.646   7.991 -11.033  0.00  0.00    -0.219 OA
ENDBRANCH   2   7
TORSDOF 3
ENDMDL
MODEL 2
REMARK VINA RESULT:      -3.7      0.408      2.966
REMARK  Name = 
REMARK  3 active torsions:
REMARK  status: ('A' for Active; 'I' for Inactive)
REMARK    1  A    between atoms: C_2  and  C_3
REMARK    2  A    between atoms: C_2  and  C_5
REMARK    3  A    between atoms: C_2  and  C_7
REMARK                            x       y       z     vdW  Elec       q    Type
REMARK                         _______ _______ _______ _____ _____    ______ ____
ROOT
ATOM      1  N   UNL     1       5.969   5.578 -11.421  0.00  0.00    -0.126 NA
ATOM      2  C   UNL     1       7.233   6.098 -10.948  0.00  0.00    +0.168 C 
ENDROOT
BRANCH   2   3
ATOM      3  C   UNL     1       7.246   7.594 -10.833  0.00  0.00    +0.205 C 
ATOM      4  O   UNL     1       6.346   8.228 -11.675  0.00  0.00    -0.219 OA
ENDBRANCH   2   3
BRANCH   2   5
ATOM      5  C   UNL     1       7.477   5.546  -9.557  0.00  0.00    +0.205 C 
ATOM      6  O   UNL     1       6.235   5.438  -8.906  0.00  0.00    -0.219 OA
ENDBRANCH   2   5
BRANCH   2   7
ATOM      7  C   UNL     1       8.293   5.548 -11.860  0.00  0.00    +0.205 C 
ATOM      8  O   UNL     1       7.833   4.571 -12.720  0.00  0.00    -0.219 OA
ENDBRANCH   2   7
TORSDOF 3
ENDMDL
MODEL 3
REMARK VINA RESULT:      -3.6     10.434     11.438
REMARK  Name = 
REMARK  3 active torsions:
REMARK  status: ('A' for Active; 'I' for Inactive)
REMARK    1  A    between atoms: C_2  and  C_3
REMARK    2  A    between atoms: C_2  and  C_5
REMARK    3  A    between atoms: C_2  and  C_7
REMARK                            x       y       z     vdW  Elec       q    Type
REMARK                         _______ _______ _______ _____ _____    ______ ____
ROOT
ATOM      1  N   UNL     1      -0.776   5.484  -3.927  0.00  0.00    -0.126 NA
ATOM      2  C   UNL     1      -2.067   6.000  -4.326  0.00  0.00    +0.168 C 
ENDROOT
BRANCH   2   3
ATOM      3  C   UNL     1      -2.350   5.811  -5.786  0.00  0.00    +0.205 C 
ATOM      4  O   UNL     1      -1.275   5.312  -6.505  0.00  0.00    -0.219 OA
ENDBRANCH   2   3
BRANCH   2   5
ATOM      5  C   UNL     1      -3.134   5.234  -3.566  0.00  0.00    +0.205 C 
ATOM      6  O   UNL     1      -2.569   4.779  -2.362  0.00  0.00    -0.219 OA
ENDBRANCH   2   5
BRANCH   2   7
ATOM      7  C   UNL     1      -2.116   7.433  -3.877  0.00  0.00    +0.205 C 
ATOM      8  O   UNL     1      -1.485   8.307  -4.740  0.00  0.00    -0.219 OA
ENDBRANCH   2   7
TORSDOF 3
ENDMDL
MODEL 4
REMARK VINA RESULT:      -3.6     10.456     11.445
REMARK  Name = 
REMARK  3 active torsions:
REMARK  status: ('A' for Active; 'I' for Inactive)
REMARK    1  A    between atoms: C_2  and  C_3
REMARK    2  A    between atoms: C_2  and  C_5
REMARK    3  A    between atoms: C_2  and  C_7
REMARK                            x       y       z     vdW  Elec       q    Type
REMARK                         _______ _______ _______ _____ _____    ______ ____
ROOT
ATOM      1  N   UNL     1      -0.782   5.530  -4.343  0.00  0.00    -0.126 NA
ATOM      2  C   UNL     1      -2.126   5.987  -4.623  0.00  0.00    +0.168 C 
ENDROOT
BRANCH   2   3
ATOM      3  C   UNL     1      -3.125   5.538  -3.599  0.00  0.00    +0.205 C 
ATOM      4  O   UNL     1      -2.603   4.679  -2.646  0.00  0.00    -0.219 OA
ENDBRANCH   2   3
BRANCH   2   5
ATOM      5  C   UNL     1      -2.120   7.504  -4.600  0.00  0.00    +0.205 C 
ATOM      6  O   UNL     1      -2.112   7.919  -3.257  0.00  0.00    -0.219 OA
ENDBRANCH   2   5
BRANCH   2   7
ATOM      7  C   UNL     1      -2.447   5.545  -6.023  0.00  0.00    +0.205 C 
ATOM      8  O   UNL     1      -1.350   5.094  -6.729  0.00  0.00    -0.219 OA
ENDBRANCH   2   7
TORSDOF 3
ENDMDL
MODEL 5
REMARK VINA RESULT:      -3.6      1.427      2.817
REMARK  Name = 
REMARK  3 active torsions:
REMARK  status: ('A' for Active; 'I' for Inactive)
REMARK    1  A    between atoms: C_2  and  C_3
REMARK    2  A    between atoms: C_2  and  C_5
REMARK    3  A    between atoms: C_2  and  C_7
REMARK                            x       y       z     vdW  Elec       q    Type
REMARK                         _______ _______ _______ _____ _____    ______ ____
ROOT
ATOM      1  N   UNL     1       6.863   5.605  -9.425  0.00  0.00    -0.126 NA
ATOM      2  C   UNL     1       6.868   6.014 -10.813  0.00  0.00    +0.168 C 
ENDROOT
BRANCH   2   3
ATOM      3  C   UNL     1       5.559   5.766 -11.503  0.00  0.00    +0.205 C 
ATOM      4  O   UNL     1       4.609   5.157 -10.699  0.00  0.00    -0.219 OA
ENDBRANCH   2   3
BRANCH   2   5
ATOM      5  C   UNL     1       7.115   7.510 -10.860  0.00  0.00    +0.205 C 
ATOM      6  O   UNL     1       6.382   8.039 -11.936  0.00  0.00    -0.219 OA
ENDBRANCH   2   5
BRANCH   2   7
ATOM      7  C   UNL     1       8.037   5.329 -11.460  0.00  0.00    +0.205 C 
ATOM      8  O   UNL     1       7.710   4.640 -12.611  0.00  0.00    -0.219 OA
ENDBRANCH   2   7
TORSDOF 3
ENDMDL
MODEL 6
REMARK VINA RESULT:      -3.6     10.448     11.365
REMARK  Name = 
REMARK  3 active torsions:
REMARK  status: ('A' for Active; 'I' for Inactive)
REMARK    1  A    between atoms: C_2  and  C_3
REMARK    2  A    between atoms: C_2  and  C_5
REMARK    3  A    between atoms: C_2  and  C_7
REMARK                            x       y       z     vdW  Elec       q    Type
REMARK                         _______ _______ _______ _____ _____    ______ ____
ROOT
ATOM      1  N   UNL     1      -0.815   5.481  -4.272  0.00  0.00    -0.126 NA
ATOM      2  C   UNL     1      -2.130   5.973  -4.620  0.00  0.00    +0.168 C 
ENDROOT
BRANCH   2   3
ATOM      3  C   UNL     1      -2.224   7.470  -4.595  0.00  0.00    +0.205 C 
ATOM      4  O   UNL     1      -2.096   8.017  -3.328  0.00  0.00    -0.219 OA
ENDBRANCH   2   3
BRANCH   2   5
ATOM      5  C   UNL     1      -2.434   5.535  -6.041  0.00  0.00    +0.205 C 
ATOM      6  O   UNL     1      -1.227   5.144  -6.644  0.00  0.00    -0.219 OA
ENDBRANCH   2   5
BRANCH   2   7
ATOM      7  C   UNL     1      -3.103   5.287  -3.704  0.00  0.00    +0.205 C 
ATOM      8  O   UNL     1      -2.516   4.739  -2.581  0.00  0.00    -0.219 OA
ENDBRANCH   2   7
TORSDOF 3
ENDMDL
MODEL 7
REMARK VINA RESULT:      -3.5      1.647      2.352
REMARK  Name = 
REMARK  3 active torsions:
REMARK  status: ('A' for Active; 'I' for Inactive)
REMARK    1  A    between atoms: C_2  and  C_3
REMARK    2  A    between atoms: C_2  and  C_5
REMARK    3  A    between atoms: C_2  and  C_7
REMARK                            x       y       z     vdW  Elec       q    Type
REMARK                         _______ _______ _______ _____ _____    ______ ____
ROOT
ATOM      1  N   UNL     1       6.789   7.598 -11.505  0.00  0.00    -0.126 NA
ATOM      2  C   UNL     1       6.752   6.160 -11.352  0.00  0.00    +0.168 C 
ENDROOT
BRANCH   2   3
ATOM      3  C   UNL     1       5.674   5.511 -12.168  0.00  0.00    +0.205 C 
ATOM      4  O   UNL     1       4.522   5.227 -11.451  0.00  0.00    -0.219 OA
ENDBRANCH   2   3
BRANCH   2   5
ATOM      5  C   UNL     1       8.074   5.602 -11.842  0.00  0.00    +0.205 C 
ATOM      6  O   UNL     1       7.800   4.572 -12.758  0.00  0.00    -0.219 OA
ENDBRANCH   2   5
BRANCH   2   7
ATOM      7  C   UNL     1       6.648   5.886  -9.879  0.00  0.00    +0.205 C 
ATOM      8  O   UNL     1       7.771   5.285  -9.345  0.00  0.00    -0.219 OA
ENDBRANCH   2   7
TORSDOF 3
ENDMDL
MODEL 8
REMARK VINA RESULT:      -3.5     11.405     12.337
REMARK  Name = 
REMARK  3 active torsions:
REMARK  status: ('A' for Active; 'I' for Inactive)
REMARK    1  A    between atoms: C_2  and  C_3
REMARK    2  A    between atoms: C_2  and  C_5
REMARK    3  A    between atoms: C_2  and  C_7
REMARK                            x       y       z     vdW  Elec       q    Type
REMARK                         _______ _______ _______ _____ _____    ______ ____
ROOT
ATOM      1  N   UNL     1      -2.659   4.851  -2.365  0.00  0.00    -0.126 NA
ATOM      2  C   UNL     1      -1.907   5.797  -3.159  0.00  0.00    +0.168 C 
ENDROOT
BRANCH   2   3
ATOM      3  C   UNL     1      -2.286   5.778  -4.610  0.00  0.00    +0.205 C 
ATOM      4  O   UNL     1      -2.539   7.034  -5.139  0.00  0.00    -0.219 OA
ENDBRANCH   2   3
BRANCH   2   5
ATOM      5  C   UNL     1      -2.210   7.190  -2.641  0.00  0.00    +0.205 C 
ATOM      6  O   UNL     1      -2.640   7.076  -1.308  0.00  0.00    -0.219 OA
ENDBRANCH   2   5
BRANCH   2   7
ATOM      7  C   UNL     1      -0.454   5.512  -2.906  0.00  0.00    +0.205 C 
ATOM      8  O   UNL     1      -0.228   4.719  -1.799  0.00  0.00    -0.219 OA
ENDBRANCH   2   7
TORSDOF 3
ENDMDL
MODEL 9
REMARK VINA RESULT:      -3.5      1.227      2.804
REMARK  Name = 
REMARK  3 active torsions:
REMARK  status: ('A' for Active; 'I' for Inactive)
REMARK    1  A    between atoms: C_2  and  C_3
REMARK    2  A    between atoms: C_2  and  C_5
REMARK    3  A    between atoms: C_2  and  C_7
REMARK                            x       y       z     vdW  Elec       q    Type
REMARK                         _______ _______ _______ _____ _____    ______ ____
ROOT
ATOM      1  N   UNL     1       6.999   7.500 -11.496  0.00  0.00    -0.126 NA
ATOM      2  C   UNL     1       7.061   6.097 -11.150  0.00  0.00    +0.168 C 
ENDROOT
BRANCH   2   3
ATOM      3  C   UNL     1       8.139   5.357 -11.885  0.00  0.00    +0.205 C 
ATOM      4  O   UNL     1       7.671   4.587 -12.938  0.00  0.00    -0.219 OA
ENDBRANCH   2   3
BRANCH   2   5
ATOM      5  C   UNL     1       7.382   5.992  -9.671  0.00  0.00    +0.205 C 
ATOM      6  O   UNL     1       6.253   5.473  -9.016  0.00  0.00    -0.219 OA
ENDBRANCH   2   5
BRANCH   2   7
ATOM      7  C   UNL     1       5.683   5.539 -11.367  0.00  0.00    +0.205 C 
ATOM      8  O   UNL     1       4.794   6.448 -11.904  0.00  0.00    -0.219 OA
ENDBRANCH   2   7
TORSDOF 3
ENDMDL
