MODEL 1
REMARK VINA RESULT:      -6.7      0.000      0.000
REMARK  Name = 
REMARK  3 active torsions:
REMARK  status: ('A' for Active; 'I' for Inactive)
REMARK    1  A    between atoms: C_2  and  C_3
REMARK    2  A    between atoms: C_3  and  N_4
REMARK    3  A    between atoms: C_9  and  C_10
REMARK                            x       y       z     vdW  Elec       q    Type
REMARK                         _______ _______ _______ _____ _____    ______ ____
ROOT
ATOM      1  C   UNL     1      -0.346   5.409  -8.056  0.00  0.00    +0.028 C 
ATOM      2  C   UNL     1       0.719   5.483  -7.007  0.00  0.00    +0.162 C 
ATOM      3  S   UNL     1       2.078   4.486  -7.225  0.00  0.00    +0.007 S 
ATOM      4  O   UNL     1       2.312   3.332  -6.397  0.00  0.00    -0.171 OA
ATOM      5  O   UNL     1       2.258   4.110  -8.672  0.00  0.00    -0.171 OA
ATOM      6  C   UNL     1       3.456   5.767  -6.997  0.00  0.00    +0.215 C 
ATOM      7  N   UNL     1       2.551   6.688  -6.164  0.00  0.00    -0.252 N 
ATOM      8  C   UNL     1       3.659   6.747  -5.343  0.00  0.00    +0.231 C 
ATOM      9  O   UNL     1       4.397   7.736  -5.041  0.00  0.00    -0.275 OA
ATOM     10  C   UNL     1       3.963   5.288  -5.543  0.00  0.00    +0.130 C 
ATOM     11  C   UNL     1       1.361   7.026  -7.153  0.00  0.00    +0.202 C 
ENDROOT
BRANCH  11  12
ATOM     12  C   UNL     1       2.182   6.682  -8.543  0.00  0.00    +0.384 C 
ATOM     13  O   UNL     1       1.260   6.884  -9.577  0.00  0.00    -0.244 OA
ATOM     14  O   UNL     1       3.105   7.563  -8.574  0.00  0.00    -0.244 OA
ENDBRANCH  11  12
BRANCH   2  15
ATOM     15  C   UNL     1       0.184   5.557  -5.613  0.00  0.00    +0.153 C 
BRANCH  15  16
ATOM     16  N   UNL     1      -0.951   6.467  -5.467  0.00  0.00    -0.228 N 
ATOM     17  N   UNL     1      -0.857   7.644  -4.846  0.00  0.00    -0.064 NA
ATOM     18  N   UNL     1      -2.028   8.029  -4.378  0.00  0.00    -0.127 NA
ATOM     19  C   UNL     1      -2.671   6.864  -4.119  0.00  0.00    +0.144 A 
ATOM     20  C   UNL     1      -2.138   5.970  -5.033  0.00  0.00    +0.119 A 
ENDBRANCH  15  16
ENDBRANCH   2  15
TORSDOF 3
ENDMDL
MODEL 2
REMARK VINA RESULT:      -6.7      3.216      6.183
REMARK  Name = 
REMARK  3 active torsions:
REMARK  status: ('A' for Active; 'I' for Inactive)
REMARK    1  A    between atoms: C_2  and  C_3
REMARK    2  A    between atoms: C_3  and  N_4
REMARK    3  A    between atoms: C_9  and  C_10
REMARK                            x       y       z     vdW  Elec       q    Type
REMARK                         _______ _______ _______ _____ _____    ______ ____
ROOT
ATOM      1  C   UNL     1       4.960   5.685  -7.353  0.00  0.00    +0.028 C 
ATOM      2  C   UNL     1       3.907   5.567  -8.410  0.00  0.00    +0.162 C 
ATOM      3  S   UNL     1       2.595   4.542  -8.072  0.00  0.00    +0.007 S 
ATOM      4  O   UNL     1       2.428   3.278  -8.742  0.00  0.00    -0.171 OA
ATOM      5  O   UNL     1       2.413   4.351  -6.589  0.00  0.00    -0.171 OA
ATOM      6  C   UNL     1       1.160   5.712  -8.478  0.00  0.00    +0.215 C 
ATOM      7  N   UNL     1       2.031   6.558  -9.419  0.00  0.00    -0.252 N 
ATOM      8  C   UNL     1       0.933   6.453 -10.248  0.00  0.00    +0.231 C 
ATOM      9  O   UNL     1       0.153   7.356 -10.685  0.00  0.00    -0.275 OA
ATOM     10  C   UNL     1       0.697   5.020  -9.859  0.00  0.00    +0.130 C 
ATOM     11  C   UNL     1       3.189   7.082  -8.474  0.00  0.00    +0.202 C 
ENDROOT
BRANCH  11  12
ATOM     12  C   UNL     1       2.367   6.884  -7.058  0.00  0.00    +0.384 C 
ATOM     13  O   UNL     1       3.236   7.339  -6.058  0.00  0.00    -0.244 OA
ATOM     14  O   UNL     1       1.363   7.662  -7.181  0.00  0.00    -0.244 OA
ENDBRANCH  11  12
BRANCH   2  15
ATOM     15  C   UNL     1       4.457   5.483  -9.798  0.00  0.00    +0.153 C 
BRANCH  15  16
ATOM     16  N   UNL     1       5.492   6.476 -10.081  0.00  0.00    -0.228 N 
ATOM     17  N   UNL     1       5.316   7.475 -10.946  0.00  0.00    -0.064 NA
ATOM     18  N   UNL     1       6.468   7.897 -11.428  0.00  0.00    -0.127 NA
ATOM     19  C   UNL     1       7.255   6.793 -11.395  0.00  0.00    +0.144 A 
ATOM     20  C   UNL     1       6.756   6.051 -10.336  0.00  0.00    +0.119 A 
ENDBRANCH  15  16
ENDBRANCH   2  15
TORSDOF 3
ENDMDL
MODEL 3
REMARK VINA RESULT:      -6.4      2.933      4.649
REMARK  Name = 
REMARK  3 active torsions:
REMARK  status: ('A' for Active; 'I' for Inactive)
REMARK    1  A    between atoms: C_2  and  C_3
REMARK    2  A    between atoms: C_3  and  N_4
REMARK    3  A    between atoms: C_9  and  C_10
REMARK                            x       y       z     vdW  Elec       q    Type
REMARK                         _______ _______ _______ _____ _____    ______ ____
ROOT
ATOM      1  C   UNL     1      -0.798   5.411  -7.183  0.00  0.00    +0.028 C 
ATOM      2  C   UNL     1       0.684   5.579  -7.066  0.00  0.00    +0.162 C 
ATOM      3  S   UNL     1       1.242   7.080  -6.497  0.00  0.00    +0.007 S 
ATOM      4  O   UNL     1       1.899   8.023  -7.365  0.00  0.00    -0.171 OA
ATOM      5  O   UNL     1       0.184   7.791  -5.694  0.00  0.00    -0.171 OA
ATOM      6  C   UNL     1       2.417   6.490  -5.132  0.00  0.00    +0.215 C 
ATOM      7  N   UNL     1       2.610   5.121  -5.800  0.00  0.00    -0.252 N 
ATOM      8  C   UNL     1       3.940   5.369  -5.527  0.00  0.00    +0.231 C 
ATOM      9  O   UNL     1       4.744   4.748  -4.763  0.00  0.00    -0.275 OA
ATOM     10  C   UNL     1       3.806   6.824  -5.879  0.00  0.00    +0.130 C 
ATOM     11  C   UNL     1       1.143   4.524  -5.845  0.00  0.00    +0.202 C 
ENDROOT
BRANCH  11  12
ATOM     12  C   UNL     1       0.531   5.467  -4.637  0.00  0.00    +0.384 C 
ATOM     13  O   UNL     1      -0.840   5.178  -4.601  0.00  0.00    -0.244 OA
ATOM     14  O   UNL     1       1.118   5.034  -3.590  0.00  0.00    -0.244 OA
ENDBRANCH  11  12
BRANCH   2  15
ATOM     15  C   UNL     1       1.446   4.994  -8.212  0.00  0.00    +0.153 C 
BRANCH  15  16
ATOM     16  N   UNL     1       0.862   5.291  -9.519  0.00  0.00    -0.228 N 
ATOM     17  N   UNL     1       0.540   4.341 -10.398  0.00  0.00    -0.064 NA
ATOM     18  N   UNL     1       0.542   4.813 -11.629  0.00  0.00    -0.127 NA
ATOM     19  C   UNL     1       1.466   5.804 -11.594  0.00  0.00    +0.144 A 
ATOM     20  C   UNL     1       1.428   6.259 -10.285  0.00  0.00    +0.119 A 
ENDBRANCH  15  16
ENDBRANCH   2  15
TORSDOF 3
ENDMDL
MODEL 4
REMARK VINA RESULT:      -6.3      1.731      3.650
REMARK  Name = 
REMARK  3 active torsions:
REMARK  status: ('A' for Active; 'I' for Inactive)
REMARK    1  A    between atoms: C_2  and  C_3
REMARK    2  A    between atoms: C_3  and  N_4
REMARK    3  A    between atoms: C_9  and  C_10
REMARK                            x       y       z     vdW  Elec       q    Type
REMARK                         _______ _______ _______ _____ _____    ______ ____
ROOT
ATOM      1  C   UNL     1       1.764   6.104  -4.633  0.00  0.00    +0.028 C 
ATOM      2  C   UNL     1       1.193   6.328  -5.999  0.00  0.00    +0.162 C 
ATOM      3  S   UNL     1       2.229   7.017  -7.157  0.00  0.00    +0.007 S 
ATOM      4  O   UNL     1       2.056   8.370  -7.619  0.00  0.00    -0.171 OA
ATOM      5  O   UNL     1       3.675   6.787  -6.808  0.00  0.00    -0.171 OA
ATOM      6  C   UNL     1       1.986   5.786  -8.578  0.00  0.00    +0.215 C 
ATOM      7  N   UNL     1       0.606   5.356  -8.055  0.00  0.00    -0.252 N 
ATOM      8  C   UNL     1       0.252   5.502  -9.382  0.00  0.00    +0.231 C 
ATOM      9  O   UNL     1      -0.153   4.634 -10.217  0.00  0.00    -0.275 OA
ATOM     10  C   UNL     1       1.102   6.732  -9.539  0.00  0.00    +0.130 C 
ATOM     11  C   UNL     1       0.921   4.790  -6.610  0.00  0.00    +0.202 C 
ENDROOT
BRANCH  11  12
ATOM     12  C   UNL     1       2.520   4.485  -6.883  0.00  0.00    +0.384 C 
ATOM     13  O   UNL     1       3.016   3.997  -5.667  0.00  0.00    -0.244 OA
ATOM     14  O   UNL     1       2.505   3.570  -7.772  0.00  0.00    -0.244 OA
ENDBRANCH  11  12
BRANCH   2  15
ATOM     15  C   UNL     1      -0.207   6.852  -5.985  0.00  0.00    +0.153 C 
BRANCH  15  16
ATOM     16  N   UNL     1      -0.970   6.460  -4.801  0.00  0.00    -0.228 N 
ATOM     17  N   UNL     1      -1.855   5.462  -4.811  0.00  0.00    -0.064 NA
ATOM     18  N   UNL     1      -2.760   5.620  -3.866  0.00  0.00    -0.127 NA
ATOM     19  C   UNL     1      -2.843   6.965  -3.720  0.00  0.00    +0.144 A 
ATOM     20  C   UNL     1      -1.582   7.424  -4.067  0.00  0.00    +0.119 A 
ENDBRANCH  15  16
ENDBRANCH   2  15
TORSDOF 3
ENDMDL
MODEL 5
REMARK VINA RESULT:      -6.2      3.343      6.069
REMARK  Name = 
REMARK  3 active torsions:
REMARK  status: ('A' for Active; 'I' for Inactive)
REMARK    1  A    between atoms: C_2  and  C_3
REMARK    2  A    between atoms: C_3  and  N_4
REMARK    3  A    between atoms: C_9  and  C_10
REMARK                            x       y       z     vdW  Elec       q    Type
REMARK                         _______ _______ _______ _____ _____    ______ ____
ROOT
ATOM      1  C   UNL     1       2.837   5.638 -10.586  0.00  0.00    +0.028 C 
ATOM      2  C   UNL     1       3.372   6.114  -9.272  0.00  0.00    +0.162 C 
ATOM      3  S   UNL     1       2.271   6.884  -8.231  0.00  0.00    +0.007 S 
ATOM      4  O   UNL     1       2.327   8.301  -7.981  0.00  0.00    -0.171 OA
ATOM      5  O   UNL     1       0.852   6.485  -8.538  0.00  0.00    -0.171 OA
ATOM      6  C   UNL     1       2.599   5.908  -6.639  0.00  0.00    +0.215 C 
ATOM      7  N   UNL     1       4.015   5.520  -7.092  0.00  0.00    -0.252 N 
ATOM      8  C   UNL     1       4.342   5.895  -5.804  0.00  0.00    +0.231 C 
ATOM      9  O   UNL     1       4.807   5.201  -4.847  0.00  0.00    -0.275 OA
ATOM     10  C   UNL     1       3.392   7.059  -5.835  0.00  0.00    +0.130 C 
ATOM     11  C   UNL     1       3.763   4.715  -8.432  0.00  0.00    +0.202 C 
ENDROOT
BRANCH  11  12
ATOM     12  C   UNL     1       2.192   4.324  -8.114  0.00  0.00    +0.384 C 
ATOM     13  O   UNL     1       1.744   3.637  -9.249  0.00  0.00    -0.244 OA
ATOM     14  O   UNL     1       2.273   3.544  -7.108  0.00  0.00    -0.244 OA
ENDBRANCH  11  12
BRANCH   2  15
ATOM     15  C   UNL     1       4.725   6.744  -9.368  0.00  0.00    +0.153 C 
BRANCH  15  16
ATOM     16  N   UNL     1       5.398   6.499 -10.642  0.00  0.00    -0.228 N 
ATOM     17  N   UNL     1       6.361   5.587 -10.785  0.00  0.00    -0.064 NA
ATOM     18  N   UNL     1       7.153   5.886 -11.796  0.00  0.00    -0.127 NA
ATOM     19  C   UNL     1       7.107   7.240 -11.852  0.00  0.00    +0.144 A 
ATOM     20  C   UNL     1       5.852   7.559 -11.358  0.00  0.00    +0.119 A 
ENDBRANCH  15  16
ENDBRANCH   2  15
TORSDOF 3
ENDMDL
MODEL 6
REMARK VINA RESULT:      -6.2      2.469      5.252
REMARK  Name = 
REMARK  3 active torsions:
REMARK  status: ('A' for Active; 'I' for Inactive)
REMARK    1  A    between atoms: C_2  and  C_3
REMARK    2  A    between atoms: C_3  and  N_4
REMARK    3  A    between atoms: C_9  and  C_10
REMARK                            x       y       z     vdW  Elec       q    Type
REMARK                         _______ _______ _______ _____ _____    ______ ____
ROOT
ATOM      1  C   UNL     1       4.948   5.705  -6.728  0.00  0.00    +0.028 C 
ATOM      2  C   UNL     1       3.452   5.718  -6.691  0.00  0.00    +0.162 C 
ATOM      3  S   UNL     1       2.701   4.543  -5.720  0.00  0.00    +0.007 S 
ATOM      4  O   UNL     1       1.986   3.431  -6.292  0.00  0.00    -0.171 OA
ATOM      5  O   UNL     1       3.628   4.043  -4.645  0.00  0.00    -0.171 OA
ATOM      6  C   UNL     1       1.530   5.651  -4.722  0.00  0.00    +0.215 C 
ATOM      7  N   UNL     1       1.528   6.737  -5.809  0.00  0.00    -0.252 N 
ATOM      8  C   UNL     1       0.166   6.713  -5.584  0.00  0.00    +0.231 C 
ATOM      9  O   UNL     1      -0.601   7.619  -5.132  0.00  0.00    -0.275 OA
ATOM     10  C   UNL     1       0.152   5.217  -5.438  0.00  0.00    +0.130 C 
ATOM     11  C   UNL     1       3.052   7.152  -5.917  0.00  0.00    +0.202 C 
ENDROOT
BRANCH  11  12
ATOM     12  C   UNL     1       3.492   6.607  -4.422  0.00  0.00    +0.384 C 
ATOM     13  O   UNL     1       4.873   6.825  -4.340  0.00  0.00    -0.244 OA
ATOM     14  O   UNL     1       2.859   7.374  -3.624  0.00  0.00    -0.244 OA
ENDBRANCH  11  12
BRANCH   2  15
ATOM     15  C   UNL     1       2.821   5.960  -8.025  0.00  0.00    +0.153 C 
BRANCH  15  16
ATOM     16  N   UNL     1       3.780   6.022  -9.126  0.00  0.00    -0.228 N 
ATOM     17  N   UNL     1       3.974   7.123  -9.854  0.00  0.00    -0.064 NA
ATOM     18  N   UNL     1       4.440   6.826 -11.050  0.00  0.00    -0.127 NA
ATOM     19  C   UNL     1       3.926   5.597 -11.301  0.00  0.00    +0.144 A 
ATOM     20  C   UNL     1       3.784   5.024 -10.047  0.00  0.00    +0.119 A 
ENDBRANCH  15  16
ENDBRANCH   2  15
TORSDOF 3
ENDMDL
MODEL 7
REMARK VINA RESULT:      -6.0      2.737      3.951
REMARK  Name = 
REMARK  3 active torsions:
REMARK  status: ('A' for Active; 'I' for Inactive)
REMARK    1  A    between atoms: C_2  and  C_3
REMARK    2  A    between atoms: C_3  and  N_4
REMARK    3  A    between atoms: C_9  and  C_10
REMARK                            x       y       z     vdW  Elec       q    Type
REMARK                         _______ _______ _______ _____ _____    ______ ____
ROOT
ATOM      1  C   UNL     1       0.049   5.016  -3.727  0.00  0.00    +0.028 C 
ATOM      2  C   UNL     1       1.113   5.696  -4.530  0.00  0.00    +0.162 C 
ATOM      3  S   UNL     1       2.002   4.722  -5.603  0.00  0.00    +0.007 S 
ATOM      4  O   UNL     1       3.379   4.381  -5.353  0.00  0.00    -0.171 OA
ATOM      5  O   UNL     1       1.239   3.480  -5.980  0.00  0.00    -0.171 OA
ATOM      6  C   UNL     1       1.842   5.756  -7.184  0.00  0.00    +0.215 C 
ATOM      7  N   UNL     1       1.594   7.048  -6.390  0.00  0.00    -0.252 N 
ATOM      8  C   UNL     1       2.515   7.565  -7.279  0.00  0.00    +0.231 C 
ATOM      9  O   UNL     1       2.377   8.465  -8.165  0.00  0.00    -0.275 OA
ATOM     10  C   UNL     1       3.353   6.317  -7.233  0.00  0.00    +0.130 C 
ATOM     11  C   UNL     1       0.283   6.725  -5.563  0.00  0.00    +0.202 C 
ENDROOT
BRANCH  11  12
ATOM     12  C   UNL     1      -0.250   5.507  -6.542  0.00  0.00    +0.384 C 
ATOM     13  O   UNL     1      -1.492   5.128  -6.017  0.00  0.00    -0.244 OA
ATOM     14  O   UNL     1      -0.385   6.071  -7.678  0.00  0.00    -0.244 OA
ENDBRANCH  11  12
BRANCH   2  15
ATOM     15  C   UNL     1       1.906   6.696  -3.752  0.00  0.00    +0.153 C 
BRANCH  15  16
ATOM     16  N   UNL     1       2.434   6.175  -2.492  0.00  0.00    -0.228 N 
ATOM     17  N   UNL     1       1.982   6.569  -1.301  0.00  0.00    -0.064 NA
ATOM     18  N   UNL     1       2.897   6.403  -0.366  0.00  0.00    -0.127 NA
ATOM     19  C   UNL     1       4.069   6.540  -1.033  0.00  0.00    +0.144 A 
ATOM     20  C   UNL     1       3.780   6.116  -2.321  0.00  0.00    +0.119 A 
ENDBRANCH  15  16
ENDBRANCH   2  15
TORSDOF 3
ENDMDL
MODEL 8
REMARK VINA RESULT:      -5.9      2.609      3.316
REMARK  Name = 
REMARK  3 active torsions:
REMARK  status: ('A' for Active; 'I' for Inactive)
REMARK    1  A    between atoms: C_2  and  C_3
REMARK    2  A    between atoms: C_3  and  N_4
REMARK    3  A    between atoms: C_9  and  C_10
REMARK                            x       y       z     vdW  Elec       q    Type
REMARK                         _______ _______ _______ _____ _____    ______ ____
ROOT
ATOM      1  C   UNL     1      -0.102   5.676  -8.082  0.00  0.00    +0.028 C 
ATOM      2  C   UNL     1       1.371   5.750  -8.339  0.00  0.00    +0.162 C 
ATOM      3  S   UNL     1       2.059   4.470  -9.221  0.00  0.00    +0.007 S 
ATOM      4  O   UNL     1       2.918   3.497  -8.598  0.00  0.00    -0.171 OA
ATOM      5  O   UNL     1       1.027   3.764 -10.061  0.00  0.00    -0.171 OA
ATOM      6  C   UNL     1       3.003   5.457 -10.536  0.00  0.00    +0.215 C 
ATOM      7  N   UNL     1       3.082   6.701  -9.638  0.00  0.00    -0.252 N 
ATOM      8  C   UNL     1       4.399   6.703 -10.053  0.00  0.00    +0.231 C 
ATOM      9  O   UNL     1       5.033   7.559 -10.745  0.00  0.00    -0.275 OA
ATOM     10  C   UNL     1       4.492   5.204  -9.972  0.00  0.00    +0.130 C 
ATOM     11  C   UNL     1       1.563   7.059  -9.372  0.00  0.00    +0.202 C 
ENDROOT
BRANCH  11  12
ATOM     12  C   UNL     1       0.959   6.263 -10.686  0.00  0.00    +0.384 C 
ATOM     13  O   UNL     1      -0.426   6.468 -10.638  0.00  0.00    -0.244 OA
ATOM     14  O   UNL     1       1.479   6.878 -11.675  0.00  0.00    -0.244 OA
ENDBRANCH  11  12
BRANCH   2  15
ATOM     15  C   UNL     1       2.162   6.230  -7.165  0.00  0.00    +0.153 C 
BRANCH  15  16
ATOM     16  N   UNL     1       1.551   5.911  -5.876  0.00  0.00    -0.228 N 
ATOM     17  N   UNL     1       1.174   6.849  -5.005  0.00  0.00    -0.064 NA
ATOM     18  N   UNL     1       1.157   6.376  -3.775  0.00  0.00    -0.127 NA
ATOM     19  C   UNL     1       2.113   5.415  -3.785  0.00  0.00    +0.144 A 
ATOM     20  C   UNL     1       2.127   4.962  -5.094  0.00  0.00    +0.119 A 
ENDBRANCH  15  16
ENDBRANCH   2  15
TORSDOF 3
ENDMDL
MODEL 9
REMARK VINA RESULT:      -5.9      2.926      3.895
REMARK  Name = 
REMARK  3 active torsions:
REMARK  status: ('A' for Active; 'I' for Inactive)
REMARK    1  A    between atoms: C_2  and  C_3
REMARK    2  A    between atoms: C_3  and  N_4
REMARK    3  A    between atoms: C_9  and  C_10
REMARK                            x       y       z     vdW  Elec       q    Type
REMARK                         _______ _______ _______ _____ _____    ______ ____
ROOT
ATOM      1  C   UNL     1       2.281   5.016  -5.047  0.00  0.00    +0.028 C 
ATOM      2  C   UNL     1       2.456   5.710  -3.733  0.00  0.00    +0.162 C 
ATOM      3  S   UNL     1       3.769   5.214  -2.775  0.00  0.00    +0.007 S 
ATOM      4  O   UNL     1       3.582   4.457  -1.565  0.00  0.00    -0.171 OA
ATOM      5  O   UNL     1       4.845   4.569  -3.608  0.00  0.00    -0.171 OA
ATOM      6  C   UNL     1       4.547   6.901  -2.398  0.00  0.00    +0.215 C 
ATOM      7  N   UNL     1       3.218   7.637  -2.626  0.00  0.00    -0.252 N 
ATOM      8  C   UNL     1       3.569   8.274  -1.453  0.00  0.00    +0.231 C 
ATOM      9  O   UNL     1       3.838   9.498  -1.240  0.00  0.00    -0.275 OA
ATOM     10  C   UNL     1       4.106   7.006  -0.851  0.00  0.00    +0.130 C 
ATOM     11  C   UNL     1       2.859   7.289  -4.129  0.00  0.00    +0.202 C 
ENDROOT
BRANCH  11  12
ATOM     12  C   UNL     1       4.395   6.907  -4.595  0.00  0.00    +0.384 C 
ATOM     13  O   UNL     1       4.292   6.538  -5.942  0.00  0.00    -0.244 OA
ATOM     14  O   UNL     1       5.031   8.006  -4.469  0.00  0.00    -0.244 OA
ENDBRANCH  11  12
BRANCH   2  15
ATOM     15  C   UNL     1       1.172   5.946  -3.003  0.00  0.00    +0.153 C 
BRANCH  15  16
ATOM     16  N   UNL     1      -0.005   5.942  -3.870  0.00  0.00    -0.228 N 
ATOM     17  N   UNL     1      -0.432   7.030  -4.513  0.00  0.00    -0.064 NA
ATOM     18  N   UNL     1      -1.721   6.951  -4.778  0.00  0.00    -0.127 NA
ATOM     19  C   UNL     1      -2.211   6.186  -3.771  0.00  0.00    +0.144 A 
ATOM     20  C   UNL     1      -1.150   5.368  -3.417  0.00  0.00    +0.119 A 
ENDBRANCH  15  16
ENDBRANCH   2  15
TORSDOF 3
ENDMDL
