MODEL 1
REMARK VINA RESULT:      -7.3      0.000      0.000
REMARK  Name = 
REMARK  8 active torsions:
REMARK  status: ('A' for Active; 'I' for Inactive)
REMARK    1  A    between atoms: O_2  and  C_3
REMARK    2  A    between atoms: C_8  and  O_9
REMARK    3  A    between atoms: C_13  and  O_14
REMARK    4  A    between atoms: O_14  and  C_15
REMARK    5  A    between atoms: C_15  and  C_17
REMARK    6  A    between atoms: C_17  and  C_19
REMARK    7  A    between atoms: C_22  and  C_23
REMARK    8  A    between atoms: C_23  and  C_24
REMARK                            x       y       z     vdW  Elec       q    Type
REMARK                         _______ _______ _______ _____ _____    ______ ____
ROOT
ATOM      1  C   UNL     1       3.604   8.246   1.015  0.00  0.00    +0.172 A 
ATOM      2  C   UNL     1       2.221   8.112   1.010  0.00  0.00    +0.172 A 
ATOM      3  C   UNL     1       1.595   7.263   0.103  0.00  0.00    +0.037 A 
ATOM      4  C   UNL     1       2.377   6.720  -0.918  0.00  0.00    -0.008 A 
ATOM      5  C   UNL     1       1.829   5.257  -1.402  0.00  0.00    +0.084 C 
ATOM      6  N   UNL     1       2.651   5.335  -2.756  0.00  0.00    -0.270 NA
ATOM      7  C   UNL     1       3.962   4.996  -2.394  0.00  0.00    +0.077 C 
ATOM      8  C   UNL     1       4.378   5.231  -0.991  0.00  0.00    +0.043 C 
ATOM      9  C   UNL     1       2.448   6.535  -3.397  0.00  0.00    +0.076 C 
ATOM     10  C   UNL     1       1.061   6.561  -4.239  0.00  0.00    +0.056 C 
ATOM     11  C   UNL     1       0.497   5.097  -3.522  0.00  0.00    +0.172 C 
ATOM     12  C   UNL     1       0.446   5.883  -2.069  0.00  0.00    +0.064 C 
ATOM     13  C   UNL     1       3.686   6.466  -0.505  0.00  0.00    -0.020 A 
ATOM     14  C   UNL     1       4.343   7.263   0.421  0.00  0.00    +0.036 A 
ENDROOT
BRANCH   1  16
ATOM     15  C   UNL     1       4.665   9.777   1.603  0.00  0.00    +0.253 C 
ATOM     16  O   UNL     1       4.252   9.364   1.519  0.00  0.00    -0.468 OA
ENDBRANCH   1  16
BRANCH   2  17
ATOM     17  O   UNL     1       1.532   8.929   1.883  0.00  0.00    -0.468 OA
ATOM     18  C   UNL     1       0.655   9.940   1.464  0.00  0.00    +0.253 C 
ENDBRANCH   2  17
BRANCH  10  19
ATOM     19  C   UNL     1       1.590   5.830  -5.588  0.00  0.00    +0.005 C 
BRANCH  19  20
ATOM     20  C   UNL     1       1.120   6.479  -6.796  0.00  0.00    +0.000 C 
ATOM     21  C   UNL     1       0.133   5.564  -7.513  0.00  0.00    +0.000 C 
ATOM     22  C   UNL     1       2.262   6.699  -7.777  0.00  0.00    +0.000 C 
ENDBRANCH  19  20
ENDBRANCH  10  19
BRANCH  11  23
ATOM     23  O   UNL     1      -0.946   5.398  -3.941  0.00  0.00    -0.451 OA
BRANCH  23  24
ATOM     24  C   UNL     1      -1.919   5.591  -3.061  0.00  0.00    +0.334 C 
ATOM     25  O   UNL     1      -2.273   4.684  -2.314  0.00  0.00    -0.249 OA
BRANCH  24  26
ATOM     26  C   UNL     1      -3.043   6.723  -3.382  0.00  0.00    +0.190 C 
ATOM     27  N   UNL     1      -2.313   7.797  -2.462  0.00  0.00    -0.121 NA
BRANCH  26  28
ATOM     28  C   UNL     1      -2.255   7.268  -4.733  0.00  0.00    +0.029 C 
ATOM     29  C   UNL     1      -1.950   8.702  -4.483  0.00  0.00    +0.002 C 
ATOM     30  C   UNL     1      -3.081   6.959  -5.914  0.00  0.00    +0.002 C 
ENDBRANCH  26  28
ENDBRANCH  24  26
ENDBRANCH  23  24
ENDBRANCH  11  23
TORSDOF 8
ENDMDL
MODEL 2
REMARK VINA RESULT:      -7.0      3.454      8.256
REMARK  Name = 
REMARK  8 active torsions:
REMARK  status: ('A' for Active; 'I' for Inactive)
REMARK    1  A    between atoms: O_2  and  C_3
REMARK    2  A    between atoms: C_8  and  O_9
REMARK    3  A    between atoms: C_13  and  O_14
REMARK    4  A    between atoms: O_14  and  C_15
REMARK    5  A    between atoms: C_15  and  C_17
REMARK    6  A    between atoms: C_17  and  C_19
REMARK    7  A    between atoms: C_22  and  C_23
REMARK    8  A    between atoms: C_23  and  C_24
REMARK                            x       y       z     vdW  Elec       q    Type
REMARK                         _______ _______ _______ _____ _____    ______ ____
ROOT
ATOM      1  C   UNL     1       3.361   5.940 -10.737  0.00  0.00    +0.172 A 
ATOM      2  C   UNL     1       4.151   6.789  -9.971  0.00  0.00    +0.172 A 
ATOM      3  C   UNL     1       4.115   6.727  -8.582  0.00  0.00    +0.037 A 
ATOM      4  C   UNL     1       3.122   5.940  -7.996  0.00  0.00    -0.008 A 
ATOM      5  C   UNL     1       3.591   5.329  -6.554  0.00  0.00    +0.084 C 
ATOM      6  N   UNL     1       2.094   5.005  -6.141  0.00  0.00    -0.270 NA
ATOM      7  C   UNL     1       1.788   3.818  -6.821  0.00  0.00    +0.077 C 
ATOM      8  C   UNL     1       2.540   3.515  -8.062  0.00  0.00    +0.043 C 
ATOM      9  C   UNL     1       1.274   6.091  -6.338  0.00  0.00    +0.076 C 
ATOM     10  C   UNL     1       1.373   7.170  -5.129  0.00  0.00    +0.056 C 
ATOM     11  C   UNL     1       2.761   6.407  -4.446  0.00  0.00    +0.172 C 
ATOM     12  C   UNL     1       3.598   6.812  -5.813  0.00  0.00    +0.064 C 
ATOM     13  C   UNL     1       2.824   4.809  -8.758  0.00  0.00    -0.020 A 
ATOM     14  C   UNL     1       2.877   4.809 -10.144  0.00  0.00    +0.036 A 
ENDROOT
BRANCH   1  16
ATOM     15  C   UNL     1       2.753   6.170 -12.579  0.00  0.00    +0.253 C 
ATOM     16  O   UNL     1       2.981   6.233 -12.039  0.00  0.00    -0.468 OA
ENDBRANCH   1  16
BRANCH   2  17
ATOM     17  O   UNL     1       4.882   7.728 -10.669  0.00  0.00    -0.468 OA
ATOM     18  C   UNL     1       6.166   7.485 -11.177  0.00  0.00    +0.253 C 
ENDBRANCH   2  17
BRANCH  10  19
ATOM     19  C   UNL     1       0.337   6.464  -4.099  0.00  0.00    +0.005 C 
BRANCH  19  20
ATOM     20  C   UNL     1      -1.021   6.434  -4.606  0.00  0.00    +0.000 C 
ATOM     21  C   UNL     1      -1.592   7.847  -4.612  0.00  0.00    +0.000 C 
ATOM     22  C   UNL     1      -1.928   5.629  -3.687  0.00  0.00    +0.000 C 
ENDBRANCH  19  20
ENDBRANCH  10  19
BRANCH  11  23
ATOM     23  O   UNL     1       3.109   7.664  -3.642  0.00  0.00    -0.451 OA
BRANCH  23  24
ATOM     24  C   UNL     1       3.875   7.629  -2.560  0.00  0.00    +0.334 C 
ATOM     25  O   UNL     1       5.089   7.478  -2.660  0.00  0.00    -0.249 OA
BRANCH  24  26
ATOM     26  C   UNL     1       3.214   7.139  -1.157  0.00  0.00    +0.190 C 
ATOM     27  N   UNL     1       4.194   5.889  -1.061  0.00  0.00    -0.121 NA
BRANCH  26  28
ATOM     28  C   UNL     1       4.228   8.070  -0.236  0.00  0.00    +0.029 C 
ATOM     29  C   UNL     1       4.723   7.189   0.854  0.00  0.00    +0.002 C 
ATOM     30  C   UNL     1       3.504   9.289   0.170  0.00  0.00    +0.002 C 
ENDBRANCH  26  28
ENDBRANCH  24  26
ENDBRANCH  23  24
ENDBRANCH  11  23
TORSDOF 8
ENDMDL
MODEL 3
REMARK VINA RESULT:      -7.0      3.896      8.211
REMARK  Name = 
REMARK  8 active torsions:
REMARK  status: ('A' for Active; 'I' for Inactive)
REMARK    1  A    between atoms: O_2  and  C_3
REMARK    2  A    between atoms: C_8  and  O_9
REMARK    3  A    between atoms: C_13  and  O_14
REMARK    4  A    between atoms: O_14  and  C_15
REMARK    5  A    between atoms: C_15  and  C_17
REMARK    6  A    between atoms: C_17  and  C_19
REMARK    7  A    between atoms: C_22  and  C_23
REMARK    8  A    between atoms: C_23  and  C_24
REMARK                            x       y       z     vdW  Elec       q    Type
REMARK                         _______ _______ _______ _____ _____    ______ ____
ROOT
ATOM      1  C   UNL     1       5.297   6.686 -10.605  0.00  0.00    +0.172 A 
ATOM      2  C   UNL     1       5.739   6.047  -9.452  0.00  0.00    +0.172 A 
ATOM      3  C   UNL     1       4.829   5.485  -8.562  0.00  0.00    +0.037 A 
ATOM      4  C   UNL     1       3.475   5.762  -8.762  0.00  0.00    -0.008 A 
ATOM      5  C   UNL     1       2.514   4.548  -8.237  0.00  0.00    +0.084 C 
ATOM      6  N   UNL     1       1.239   5.491  -8.216  0.00  0.00    -0.270 NA
ATOM      7  C   UNL     1       0.831   5.563  -9.556  0.00  0.00    +0.077 C 
ATOM      8  C   UNL     1       1.850   5.332 -10.606  0.00  0.00    +0.043 C 
ATOM      9  C   UNL     1       1.498   6.670  -7.556  0.00  0.00    +0.076 C 
ATOM     10  C   UNL     1       1.405   6.510  -5.943  0.00  0.00    +0.056 C 
ATOM     11  C   UNL     1       1.344   4.789  -6.030  0.00  0.00    +0.172 C 
ATOM     12  C   UNL     1       2.880   4.812  -6.641  0.00  0.00    +0.064 C 
ATOM     13  C   UNL     1       3.153   5.883 -10.114  0.00  0.00    -0.020 A 
ATOM     14  C   UNL     1       4.036   6.406 -11.048  0.00  0.00    +0.036 A 
ENDROOT
BRANCH   1  16
ATOM     15  C   UNL     1       6.235   8.007 -11.697  0.00  0.00    +0.253 C 
ATOM     16  O   UNL     1       6.046   7.646 -11.269  0.00  0.00    -0.468 OA
ENDBRANCH   1  16
BRANCH   2  17
ATOM     17  O   UNL     1       7.097   6.093  -9.219  0.00  0.00    -0.468 OA
ATOM     18  C   UNL     1       8.018   5.250  -9.859  0.00  0.00    +0.253 C 
ENDBRANCH   2  17
BRANCH  10  19
ATOM     19  C   UNL     1      -0.202   6.672  -5.783  0.00  0.00    +0.005 C 
BRANCH  19  20
ATOM     20  C   UNL     1      -0.578   7.302  -4.533  0.00  0.00    +0.000 C 
ATOM     21  C   UNL     1      -0.965   6.229  -3.520  0.00  0.00    +0.000 C 
ATOM     22  C   UNL     1      -1.817   8.166  -4.708  0.00  0.00    +0.000 C 
ENDBRANCH  19  20
ENDBRANCH  10  19
BRANCH  11  23
ATOM     23  O   UNL     1       1.738   4.658  -4.555  0.00  0.00    -0.451 OA
BRANCH  23  24
ATOM     24  C   UNL     1       2.875   5.144  -4.075  0.00  0.00    +0.334 C 
ATOM     25  O   UNL     1       3.843   4.411  -3.900  0.00  0.00    -0.249 OA
BRANCH  24  26
ATOM     26  C   UNL     1       2.815   6.473  -3.138  0.00  0.00    +0.190 C 
ATOM     27  N   UNL     1       3.023   5.620  -1.810  0.00  0.00    -0.121 NA
BRANCH  26  28
ATOM     28  C   UNL     1       4.441   6.762  -3.268  0.00  0.00    +0.029 C 
ATOM     29  C   UNL     1       4.871   7.305  -1.952  0.00  0.00    +0.002 C 
ATOM     30  C   UNL     1       4.672   7.615  -4.448  0.00  0.00    +0.002 C 
ENDBRANCH  26  28
ENDBRANCH  24  26
ENDBRANCH  23  24
ENDBRANCH  11  23
TORSDOF 8
ENDMDL
MODEL 4
REMARK VINA RESULT:      -6.8      5.090      8.139
REMARK  Name = 
REMARK  8 active torsions:
REMARK  status: ('A' for Active; 'I' for Inactive)
REMARK    1  A    between atoms: O_2  and  C_3
REMARK    2  A    between atoms: C_8  and  O_9
REMARK    3  A    between atoms: C_13  and  O_14
REMARK    4  A    between atoms: O_14  and  C_15
REMARK    5  A    between atoms: C_15  and  C_17
REMARK    6  A    between atoms: C_17  and  C_19
REMARK    7  A    between atoms: C_22  and  C_23
REMARK    8  A    between atoms: C_23  and  C_24
REMARK                            x       y       z     vdW  Elec       q    Type
REMARK                         _______ _______ _______ _____ _____    ______ ____
ROOT
ATOM      1  C   UNL     1       0.742   5.986  -4.723  0.00  0.00    +0.172 A 
ATOM      2  C   UNL     1      -0.058   6.614  -5.670  0.00  0.00    +0.172 A 
ATOM      3  C   UNL     1       0.179   6.431  -7.029  0.00  0.00    +0.037 A 
ATOM      4  C   UNL     1       1.354   5.774  -7.397  0.00  0.00    -0.008 A 
ATOM      5  C   UNL     1       1.190   4.961  -8.805  0.00  0.00    +0.084 C 
ATOM      6  N   UNL     1       2.761   4.860  -8.995  0.00  0.00    -0.270 NA
ATOM      7  C   UNL     1       3.153   3.810  -8.153  0.00  0.00    +0.077 C 
ATOM      8  C   UNL     1       2.294   3.499  -6.985  0.00  0.00    +0.043 C 
ATOM      9  C   UNL     1       3.367   6.083  -8.826  0.00  0.00    +0.076 C 
ATOM     10  C   UNL     1       3.267   7.013 -10.152  0.00  0.00    +0.056 C 
ATOM     11  C   UNL     1       2.124   5.965 -10.907  0.00  0.00    +0.172 C 
ATOM     12  C   UNL     1       1.053   6.346  -9.707  0.00  0.00    +0.064 C 
ATOM     13  C   UNL     1       1.717   4.785  -6.481  0.00  0.00    -0.020 A 
ATOM     14  C   UNL     1       1.475   4.904  -5.120  0.00  0.00    +0.036 A 
ENDROOT
BRANCH   1  16
ATOM     15  C   UNL     1       0.996   6.468  -2.846  0.00  0.00    +0.253 C 
ATOM     16  O   UNL     1       0.889   6.459  -3.427  0.00  0.00    -0.468 OA
ENDBRANCH   1  16
BRANCH   2  17
ATOM     17  O   UNL     1      -1.015   7.476  -5.177  0.00  0.00    -0.468 OA
ATOM     18  C   UNL     1      -2.355   7.110  -4.981  0.00  0.00    +0.253 C 
ENDBRANCH   2  17
BRANCH  10  19
ATOM     19  C   UNL     1       4.533   6.402 -10.963  0.00  0.00    +0.005 C 
BRANCH  19  20
ATOM     20  C   UNL     1       5.802   6.926 -10.496  0.00  0.00    +0.000 C 
ATOM     21  C   UNL     1       6.393   7.846 -11.558  0.00  0.00    +0.000 C 
ATOM     22  C   UNL     1       6.818   5.809 -10.309  0.00  0.00    +0.000 C 
ENDBRANCH  19  20
ENDBRANCH  10  19
BRANCH  11  23
ATOM     23  O   UNL     1       1.698   7.065 -11.885  0.00  0.00    -0.451 OA
BRANCH  23  24
ATOM     24  C   UNL     1       0.936   6.822 -12.943  0.00  0.00    +0.334 C 
ATOM     25  O   UNL     1      -0.047   6.093 -12.850  0.00  0.00    -0.249 OA
BRANCH  24  26
ATOM     26  C   UNL     1       1.607   6.920 -14.422  0.00  0.00    +0.190 C 
ATOM     27  N   UNL     1       0.875   5.594 -14.910  0.00  0.00    -0.121 NA
BRANCH  26  28
ATOM     28  C   UNL     1       0.393   7.874 -15.022  0.00  0.00    +0.029 C 
ATOM     29  C   UNL     1      -0.209   7.116 -16.151  0.00  0.00    +0.002 C 
ATOM     30  C   UNL     1       0.951   9.202 -15.334  0.00  0.00    +0.002 C 
ENDBRANCH  26  28
ENDBRANCH  24  26
ENDBRANCH  23  24
ENDBRANCH  11  23
TORSDOF 8
ENDMDL
MODEL 5
REMARK VINA RESULT:      -6.7      4.366      7.488
REMARK  Name = 
REMARK  8 active torsions:
REMARK  status: ('A' for Active; 'I' for Inactive)
REMARK    1  A    between atoms: O_2  and  C_3
REMARK    2  A    between atoms: C_8  and  O_9
REMARK    3  A    between atoms: C_13  and  O_14
REMARK    4  A    between atoms: O_14  and  C_15
REMARK    5  A    between atoms: C_15  and  C_17
REMARK    6  A    between atoms: C_17  and  C_19
REMARK    7  A    between atoms: C_22  and  C_23
REMARK    8  A    between atoms: C_23  and  C_24
REMARK                            x       y       z     vdW  Elec       q    Type
REMARK                         _______ _______ _______ _____ _____    ______ ____
ROOT
ATOM      1  C   UNL     1       1.712   5.443  -2.755  0.00  0.00    +0.172 A 
ATOM      2  C   UNL     1       3.057   5.204  -3.014  0.00  0.00    +0.172 A 
ATOM      3  C   UNL     1       3.601   5.502  -4.260  0.00  0.00    +0.037 A 
ATOM      4  C   UNL     1       2.718   5.850  -5.283  0.00  0.00    -0.008 A 
ATOM      5  C   UNL     1       3.400   6.866  -6.366  0.00  0.00    +0.084 C 
ATOM      6  N   UNL     1       2.286   6.549  -7.450  0.00  0.00    -0.270 NA
ATOM      7  C   UNL     1       1.182   7.319  -7.057  0.00  0.00    +0.077 C 
ATOM      8  C   UNL     1       1.068   7.690  -5.626  0.00  0.00    +0.043 C 
ATOM      9  C   UNL     1       2.107   5.195  -7.604  0.00  0.00    +0.076 C 
ATOM     10  C   UNL     1       3.231   4.527  -8.565  0.00  0.00    +0.056 C 
ATOM     11  C   UNL     1       4.208   5.947  -8.557  0.00  0.00    +0.172 C 
ATOM     12  C   UNL     1       4.449   5.716  -6.938  0.00  0.00    +0.064 C 
ATOM     13  C   UNL     1       1.612   6.559  -4.811  0.00  0.00    -0.020 A 
ATOM     14  C   UNL     1       1.051   6.322  -3.564  0.00  0.00    +0.036 A 
ENDROOT
BRANCH   1  16
ATOM     15  C   UNL     1       0.593   4.652  -1.362  0.00  0.00    +0.253 C 
ATOM     16  O   UNL     1       1.003   4.770  -1.770  0.00  0.00    -0.468 OA
ENDBRANCH   1  16
BRANCH   2  17
ATOM     17  O   UNL     1       3.766   4.583  -2.007  0.00  0.00    -0.468 OA
ATOM     18  C   UNL     1       4.307   5.269  -0.909  0.00  0.00    +0.253 C 
ENDBRANCH   2  17
BRANCH  10  19
ATOM     19  C   UNL     1       2.547   4.867  -9.997  0.00  0.00    +0.005 C 
BRANCH  19  20
ATOM     20  C   UNL     1       1.123   5.113  -9.892  0.00  0.00    +0.000 C 
ATOM     21  C   UNL     1       0.361   3.994 -10.595  0.00  0.00    +0.000 C 
ATOM     22  C   UNL     1       0.734   6.392 -10.618  0.00  0.00    +0.000 C 
ENDBRANCH  19  20
ENDBRANCH  10  19
BRANCH  11  23
ATOM     23  O   UNL     1       5.432   5.160  -9.036  0.00  0.00    -0.451 OA
BRANCH  23  24
ATOM     24  C   UNL     1       6.386   5.706  -9.779  0.00  0.00    +0.334 C 
ATOM     25  O   UNL     1       7.480   5.973  -9.292  0.00  0.00    -0.249 OA
BRANCH  24  26
ATOM     26  C   UNL     1       5.950   6.594 -11.070  0.00  0.00    +0.190 C 
ATOM     27  N   UNL     1       7.448   7.065 -11.329  0.00  0.00    -0.121 NA
BRANCH  26  28
ATOM     28  C   UNL     1       6.111   5.327 -12.125  0.00  0.00    +0.029 C 
ATOM     29  C   UNL     1       7.389   5.552 -12.850  0.00  0.00    +0.002 C 
ATOM     30  C   UNL     1       4.887   5.240 -12.943  0.00  0.00    +0.002 C 
ENDBRANCH  26  28
ENDBRANCH  24  26
ENDBRANCH  23  24
ENDBRANCH  11  23
TORSDOF 8
ENDMDL
MODEL 6
REMARK VINA RESULT:      -6.5      1.572      2.139
REMARK  Name = 
REMARK  8 active torsions:
REMARK  status: ('A' for Active; 'I' for Inactive)
REMARK    1  A    between atoms: O_2  and  C_3
REMARK    2  A    between atoms: C_8  and  O_9
REMARK    3  A    between atoms: C_13  and  O_14
REMARK    4  A    between atoms: O_14  and  C_15
REMARK    5  A    between atoms: C_15  and  C_17
REMARK    6  A    between atoms: C_17  and  C_19
REMARK    7  A    between atoms: C_22  and  C_23
REMARK    8  A    between atoms: C_23  and  C_24
REMARK                            x       y       z     vdW  Elec       q    Type
REMARK                         _______ _______ _______ _____ _____    ______ ____
ROOT
ATOM      1  C   UNL     1       3.250  10.084   1.706  0.00  0.00    +0.172 A 
ATOM      2  C   UNL     1       1.985   9.581   1.427  0.00  0.00    +0.172 A 
ATOM      3  C   UNL     1       1.831   8.478   0.592  0.00  0.00    +0.037 A 
ATOM      4  C   UNL     1       2.956   8.035  -0.106  0.00  0.00    -0.008 A 
ATOM      5  C   UNL     1       2.905   6.427  -0.398  0.00  0.00    +0.084 C 
ATOM      6  N   UNL     1       4.011   6.542  -1.530  0.00  0.00    -0.270 NA
ATOM      7  C   UNL     1       5.224   6.624  -0.831  0.00  0.00    +0.077 C 
ATOM      8  C   UNL     1       5.194   7.151   0.554  0.00  0.00    +0.043 C 
ATOM      9  C   UNL     1       3.712   7.542  -2.424  0.00  0.00    +0.076 C 
ATOM     10  C   UNL     1       2.625   7.076  -3.535  0.00  0.00    +0.056 C 
ATOM     11  C   UNL     1       2.246   5.625  -2.683  0.00  0.00    +0.172 C 
ATOM     12  C   UNL     1       1.638   6.557  -1.460  0.00  0.00    +0.064 C 
ATOM     13  C   UNL     1       4.133   8.205   0.624  0.00  0.00    -0.020 A 
ATOM     14  C   UNL     1       4.324   9.269   1.493  0.00  0.00    +0.036 A 
ENDROOT
BRANCH   1  16
ATOM     15  C   UNL     1       3.458  11.985   2.110  0.00  0.00    +0.253 C 
ATOM     16  O   UNL     1       3.468  11.394   2.108  0.00  0.00    -0.468 OA
ENDBRANCH   1  16
BRANCH   2  17
ATOM     17  O   UNL     1       0.923  10.289   1.950  0.00  0.00    -0.468 OA
ATOM     18  C   UNL     1       0.388  10.049   3.225  0.00  0.00    +0.253 C 
ENDBRANCH   2  17
BRANCH  10  19
ATOM     19  C   UNL     1       3.641   6.341  -4.565  0.00  0.00    +0.005 C 
BRANCH  19  20
ATOM     20  C   UNL     1       3.525   6.844  -5.919  0.00  0.00    +0.000 C 
ATOM     21  C   UNL     1       2.063   7.156  -6.220  0.00  0.00    +0.000 C 
ATOM     22  C   UNL     1       3.934   5.785  -6.932  0.00  0.00    +0.000 C 
ENDBRANCH  19  20
ENDBRANCH  10  19
BRANCH  11  23
ATOM     23  O   UNL     1       0.934   5.463  -3.457  0.00  0.00    -0.451 OA
BRANCH  23  24
ATOM     24  C   UNL     1      -0.242   5.358  -2.852  0.00  0.00    +0.334 C 
ATOM     25  O   UNL     1      -0.359   4.696  -1.826  0.00  0.00    -0.249 OA
BRANCH  24  26
ATOM     26  C   UNL     1      -1.591   5.522  -3.746  0.00  0.00    +0.190 C 
ATOM     27  N   UNL     1      -2.486   4.814  -2.637  0.00  0.00    -0.121 NA
BRANCH  26  28
ATOM     28  C   UNL     1      -1.934   7.024  -3.140  0.00  0.00    +0.029 C 
ATOM     29  C   UNL     1      -3.143   6.860  -2.289  0.00  0.00    +0.002 C 
ATOM     30  C   UNL     1      -2.035   7.972  -4.264  0.00  0.00    +0.002 C 
ENDBRANCH  26  28
ENDBRANCH  24  26
ENDBRANCH  23  24
ENDBRANCH  11  23
TORSDOF 8
ENDMDL
MODEL 7
REMARK VINA RESULT:      -6.3      7.494     12.905
REMARK  Name = 
REMARK  8 active torsions:
REMARK  status: ('A' for Active; 'I' for Inactive)
REMARK    1  A    between atoms: O_2  and  C_3
REMARK    2  A    between atoms: C_8  and  O_9
REMARK    3  A    between atoms: C_13  and  O_14
REMARK    4  A    between atoms: O_14  and  C_15
REMARK    5  A    between atoms: C_15  and  C_17
REMARK    6  A    between atoms: C_17  and  C_19
REMARK    7  A    between atoms: C_22  and  C_23
REMARK    8  A    between atoms: C_23  and  C_24
REMARK                            x       y       z     vdW  Elec       q    Type
REMARK                         _______ _______ _______ _____ _____    ______ ____
ROOT
ATOM      1  C   UNL     1       0.396   7.581 -16.422  0.00  0.00    +0.172 A 
ATOM      2  C   UNL     1       1.708   7.930 -16.127  0.00  0.00    +0.172 A 
ATOM      3  C   UNL     1       2.374   7.337 -15.058  0.00  0.00    +0.037 A 
ATOM      4  C   UNL     1       1.621   6.549 -14.185  0.00  0.00    -0.008 A 
ATOM      5  C   UNL     1       2.513   5.359 -13.507  0.00  0.00    +0.084 C 
ATOM      6  N   UNL     1       1.444   5.137 -12.357  0.00  0.00    -0.270 NA
ATOM      7  C   UNL     1       0.433   4.372 -12.956  0.00  0.00    +0.077 C 
ATOM      8  C   UNL     1       0.272   4.464 -14.427  0.00  0.00    +0.043 C 
ATOM      9  C   UNL     1       1.089   6.327 -11.766  0.00  0.00    +0.076 C 
ATOM     10  C   UNL     1       2.173   6.819 -10.662  0.00  0.00    +0.056 C 
ATOM     11  C   UNL     1       3.336   5.644 -11.153  0.00  0.00    +0.172 C 
ATOM     12  C   UNL     1       3.428   6.414 -12.613  0.00  0.00    +0.064 C 
ATOM     13  C   UNL     1       0.595   5.866 -14.840  0.00  0.00    -0.020 A 
ATOM     14  C   UNL     1      -0.079   6.399 -15.929  0.00  0.00    +0.036 A 
ENDROOT
BRANCH   1  16
ATOM     15  C   UNL     1      -0.856   8.602 -17.522  0.00  0.00    +0.253 C 
ATOM     16  O   UNL     1      -0.467   8.415 -17.119  0.00  0.00    -0.468 OA
ENDBRANCH   1  16
BRANCH   2  17
ATOM     17  O   UNL     1       2.252   8.941 -16.891  0.00  0.00    -0.468 OA
ATOM     18  C   UNL     1       2.399  10.259 -16.434  0.00  0.00    +0.253 C 
ENDBRANCH   2  17
BRANCH  10  19
ATOM     19  C   UNL     1       1.645   5.938  -9.406  0.00  0.00    +0.005 C 
BRANCH  19  20
ATOM     20  C   UNL     1       1.230   6.757  -8.284  0.00  0.00    +0.000 C 
ATOM     21  C   UNL     1       2.423   7.555  -7.769  0.00  0.00    +0.000 C 
ATOM     22  C   UNL     1       0.778   5.895  -7.116  0.00  0.00    +0.000 C 
ENDBRANCH  19  20
ENDBRANCH  10  19
BRANCH  11  23
ATOM     23  O   UNL     1       4.468   6.417 -10.469  0.00  0.00    -0.451 OA
BRANCH  23  24
ATOM     24  C   UNL     1       5.739   6.047 -10.557  0.00  0.00    +0.334 C 
ATOM     25  O   UNL     1       6.266   5.407  -9.653  0.00  0.00    -0.249 OA
BRANCH  24  26
ATOM     26  C   UNL     1       6.745   6.940 -11.473  0.00  0.00    +0.190 C 
ATOM     27  N   UNL     1       7.850   6.979 -10.329  0.00  0.00    -0.121 NA
BRANCH  26  28
ATOM     28  C   UNL     1       7.445   5.614 -12.177  0.00  0.00    +0.029 C 
ATOM     29  C   UNL     1       8.914   5.806 -12.049  0.00  0.00    +0.002 C 
ATOM     30  C   UNL     1       6.908   5.471 -13.543  0.00  0.00    +0.002 C 
ENDBRANCH  26  28
ENDBRANCH  24  26
ENDBRANCH  23  24
ENDBRANCH  11  23
TORSDOF 8
ENDMDL
MODEL 8
REMARK VINA RESULT:      -6.1      3.474      8.577
REMARK  Name = 
REMARK  8 active torsions:
REMARK  status: ('A' for Active; 'I' for Inactive)
REMARK    1  A    between atoms: O_2  and  C_3
REMARK    2  A    between atoms: C_8  and  O_9
REMARK    3  A    between atoms: C_13  and  O_14
REMARK    4  A    between atoms: O_14  and  C_15
REMARK    5  A    between atoms: C_15  and  C_17
REMARK    6  A    between atoms: C_17  and  C_19
REMARK    7  A    between atoms: C_22  and  C_23
REMARK    8  A    between atoms: C_23  and  C_24
REMARK                            x       y       z     vdW  Elec       q    Type
REMARK                         _______ _______ _______ _____ _____    ______ ____
ROOT
ATOM      1  C   UNL     1       1.489   6.302 -11.402  0.00  0.00    +0.172 A 
ATOM      2  C   UNL     1       2.669   6.296 -10.668  0.00  0.00    +0.172 A 
ATOM      3  C   UNL     1       2.664   5.943  -9.322  0.00  0.00    +0.037 A 
ATOM      4  C   UNL     1       1.424   5.799  -8.697  0.00  0.00    -0.008 A 
ATOM      5  C   UNL     1       1.471   4.709  -7.479  0.00  0.00    +0.084 C 
ATOM      6  N   UNL     1       0.121   5.263  -6.858  0.00  0.00    -0.270 NA
ATOM      7  C   UNL     1      -0.890   4.699  -7.649  0.00  0.00    +0.077 C 
ATOM      8  C   UNL     1      -0.548   4.309  -9.038  0.00  0.00    +0.043 C 
ATOM      9  C   UNL     1       0.152   6.632  -6.729  0.00  0.00    +0.076 C 
ATOM     10  C   UNL     1       0.957   7.111  -5.404  0.00  0.00    +0.056 C 
ATOM     11  C   UNL     1       1.592   5.534  -5.112  0.00  0.00    +0.172 C 
ATOM     12  C   UNL     1       2.437   5.664  -6.527  0.00  0.00    +0.064 C 
ATOM     13  C   UNL     1       0.451   5.292  -9.561  0.00  0.00    -0.020 A 
ATOM     14  C   UNL     1       0.431   5.588 -10.916  0.00  0.00    +0.036 A 
ENDROOT
BRANCH   1  16
ATOM     15  C   UNL     1       1.101   7.250 -13.065  0.00  0.00    +0.253 C 
ATOM     16  O   UNL     1       1.319   7.062 -12.550  0.00  0.00    -0.468 OA
ENDBRANCH   1  16
BRANCH   2  17
ATOM     17  O   UNL     1       3.795   6.741 -11.330  0.00  0.00    -0.468 OA
ATOM     18  C   UNL     1       4.941   7.212 -10.672  0.00  0.00    +0.253 C 
ENDBRANCH   2  17
BRANCH  10  19
ATOM     19  C   UNL     1      -0.246   6.950  -4.326  0.00  0.00    +0.005 C 
BRANCH  19  20
ATOM     20  C   UNL     1      -1.540   7.297  -4.879  0.00  0.00    +0.000 C 
ATOM     21  C   UNL     1      -1.983   8.647  -4.324  0.00  0.00    +0.000 C 
ATOM     22  C   UNL     1      -2.605   6.304  -4.439  0.00  0.00    +0.000 C 
ENDBRANCH  19  20
ENDBRANCH  10  19
BRANCH  11  23
ATOM     23  O   UNL     1       2.684   6.097  -4.197  0.00  0.00    -0.451 OA
BRANCH  23  24
ATOM     24  C   UNL     1       3.905   5.582  -4.144  0.00  0.00    +0.334 C 
ATOM     25  O   UNL     1       4.073   4.367  -4.194  0.00  0.00    -0.249 OA
BRANCH  24  26
ATOM     26  C   UNL     1       5.071   6.426  -3.387  0.00  0.00    +0.190 C 
ATOM     27  N   UNL     1       4.798   7.718  -4.274  0.00  0.00    -0.121 NA
BRANCH  26  28
ATOM     28  C   UNL     1       4.052   6.963  -2.197  0.00  0.00    +0.029 C 
ATOM     29  C   UNL     1       4.099   8.448  -2.251  0.00  0.00    +0.002 C 
ATOM     30  C   UNL     1       4.443   6.330  -0.924  0.00  0.00    +0.002 C 
ENDBRANCH  26  28
ENDBRANCH  24  26
ENDBRANCH  23  24
ENDBRANCH  11  23
TORSDOF 8
ENDMDL
MODEL 9
REMARK VINA RESULT:      -5.9      2.937      7.954
REMARK  Name = 
REMARK  8 active torsions:
REMARK  status: ('A' for Active; 'I' for Inactive)
REMARK    1  A    between atoms: O_2  and  C_3
REMARK    2  A    between atoms: C_8  and  O_9
REMARK    3  A    between atoms: C_13  and  O_14
REMARK    4  A    between atoms: O_14  and  C_15
REMARK    5  A    between atoms: C_15  and  C_17
REMARK    6  A    between atoms: C_17  and  C_19
REMARK    7  A    between atoms: C_22  and  C_23
REMARK    8  A    between atoms: C_23  and  C_24
REMARK                            x       y       z     vdW  Elec       q    Type
REMARK                         _______ _______ _______ _____ _____    ______ ____
ROOT
ATOM      1  C   UNL     1       2.242   5.626 -10.280  0.00  0.00    +0.172 A 
ATOM      2  C   UNL     1       3.235   5.401  -9.334  0.00  0.00    +0.172 A 
ATOM      3  C   UNL     1       2.905   5.173  -8.002  0.00  0.00    +0.037 A 
ATOM      4  C   UNL     1       1.578   5.380  -7.621  0.00  0.00    -0.008 A 
ATOM      5  C   UNL     1       1.136   4.416  -6.377  0.00  0.00    +0.084 C 
ATOM      6  N   UNL     1      -0.121   5.325  -6.046  0.00  0.00    -0.270 NA
ATOM      7  C   UNL     1      -1.085   4.953  -6.995  0.00  0.00    +0.077 C 
ATOM      8  C   UNL     1      -0.612   4.379  -8.277  0.00  0.00    +0.043 C 
ATOM      9  C   UNL     1       0.227   6.652  -5.965  0.00  0.00    +0.076 C 
ATOM     10  C   UNL     1       0.879   7.036  -4.529  0.00  0.00    +0.056 C 
ATOM     11  C   UNL     1       1.039   5.383  -4.063  0.00  0.00    +0.172 C 
ATOM     12  C   UNL     1       2.126   5.190  -5.294  0.00  0.00    +0.064 C 
ATOM     13  C   UNL     1       0.678   5.049  -8.635  0.00  0.00    -0.020 A 
ATOM     14  C   UNL     1       0.971   5.227  -9.980  0.00  0.00    +0.036 A 
ENDROOT
BRANCH   1  16
ATOM     15  C   UNL     1       2.414   6.482 -12.028  0.00  0.00    +0.253 C 
ATOM     16  O   UNL     1       2.471   6.306 -11.467  0.00  0.00    -0.468 OA
ENDBRANCH   1  16
BRANCH   2  17
ATOM     17  O   UNL     1       4.535   5.509  -9.784  0.00  0.00    -0.468 OA
ATOM     18  C   UNL     1       5.651   5.452  -8.938  0.00  0.00    +0.253 C 
ENDBRANCH   2  17
BRANCH  10  19
ATOM     19  C   UNL     1      -0.496   7.256  -3.697  0.00  0.00    +0.005 C 
BRANCH  19  20
ATOM     20  C   UNL     1      -1.623   7.573  -4.553  0.00  0.00    +0.000 C 
ATOM     21  C   UNL     1      -2.039   9.023  -4.327  0.00  0.00    +0.000 C 
ATOM     22  C   UNL     1      -2.839   6.736  -4.188  0.00  0.00    +0.000 C 
ENDBRANCH  19  20
ENDBRANCH  10  19
BRANCH  11  23
ATOM     23  O   UNL     1       2.058   5.744  -2.977  0.00  0.00    -0.451 OA
BRANCH  23  24
ATOM     24  C   UNL     1       2.252   4.991  -1.902  0.00  0.00    +0.334 C 
ATOM     25  O   UNL     1       1.328   4.759  -1.129  0.00  0.00    -0.249 OA
BRANCH  24  26
ATOM     26  C   UNL     1       3.746   4.925  -1.261  0.00  0.00    +0.190 C 
ATOM     27  N   UNL     1       4.430   4.950  -2.697  0.00  0.00    -0.121 NA
BRANCH  26  28
ATOM     28  C   UNL     1       3.868   6.570  -1.116  0.00  0.00    +0.029 C 
ATOM     29  C   UNL     1       4.786   7.013  -2.198  0.00  0.00    +0.002 C 
ATOM     30  C   UNL     1       4.265   6.891   0.267  0.00  0.00    +0.002 C 
ENDBRANCH  26  28
ENDBRANCH  24  26
ENDBRANCH  23  24
ENDBRANCH  11  23
TORSDOF 8
ENDMDL
