MODEL 1
REMARK VINA RESULT:      -7.0      0.000      0.000
REMARK  Name = 
REMARK  3 active torsions:
REMARK  status: ('A' for Active; 'I' for Inactive)
REMARK    1  A    between atoms: C_2  and  C_3
REMARK    2  A    between atoms: C_3  and  N_17
REMARK    3  A    between atoms: C_7  and  C_8
REMARK                            x       y       z     vdW  Elec       q    Type
REMARK                         _______ _______ _______ _____ _____    ______ ____
ROOT
ATOM      1  C   UNL     1       2.462   6.344  -3.799  0.00  0.00    +0.146 C 
ATOM      2  C   UNL     1       2.703   5.882  -5.017  0.00  0.00    +0.077 C 
ATOM      3  S   UNL     1       4.035   6.310  -6.142  0.00  0.00    -0.101 S 
ATOM      4  C   UNL     1       2.995   6.367  -7.749  0.00  0.00    +0.087 C 
ATOM      5  C   UNL     1       2.521   4.851  -7.576  0.00  0.00    +0.078 C 
ATOM      6  S   UNL     1       1.562   4.926  -6.026  0.00  0.00    -0.104 S 
ENDROOT
BRANCH   4   7
ATOM      7  C   UNL     1       4.179   6.036  -8.719  0.00  0.00    -0.001 A 
ATOM      8  C   UNL     1       3.994   6.337 -10.064  0.00  0.00    +0.055 A 
ATOM      9 CL   UNL     1       2.391   6.348 -10.757  0.00  0.00    -0.083 Cl
ATOM     10  C   UNL     1       5.130   6.385 -10.837  0.00  0.00    +0.022 A 
ATOM     11  C   UNL     1       6.357   5.966 -10.349  0.00  0.00    +0.058 A 
ATOM     12 CL   UNL     1       7.833   6.582 -11.088  0.00  0.00    -0.082 Cl
ATOM     13  C   UNL     1       6.364   5.283  -9.142  0.00  0.00    +0.011 A 
ATOM     14  C   UNL     1       5.312   5.458  -8.248  0.00  0.00    -0.002 A 
ENDBRANCH   4   7
BRANCH   1  15
ATOM     15  N   UNL     1       1.809   5.421  -2.920  0.00  0.00    -0.277 N 
ATOM     16  C   UNL     1       0.477   5.275  -2.779  0.00  0.00    +0.183 A 
ATOM     17  N   UNL     1       0.198   4.807  -1.538  0.00  0.00    -0.222 NA
ATOM     18  C   UNL     1       1.345   4.650  -0.874  0.00  0.00    +0.120 A 
ATOM     19  C   UNL     1       2.341   5.016  -1.741  0.00  0.00    +0.103 A 
ENDBRANCH   1  15
BRANCH   1  21
ATOM     20  N   UNL     1       3.820   8.226  -2.908  0.00  0.00    -0.189 NA
ATOM     21  C   UNL     1       3.248   7.450  -3.295  0.00  0.00    +0.119 C 
ENDBRANCH   1  21
TORSDOF 3
ENDMDL
MODEL 2
REMARK VINA RESULT:      -6.7      4.652      7.375
REMARK  Name = 
REMARK  3 active torsions:
REMARK  status: ('A' for Active; 'I' for Inactive)
REMARK    1  A    between atoms: C_2  and  C_3
REMARK    2  A    between atoms: C_3  and  N_17
REMARK    3  A    between atoms: C_7  and  C_8
REMARK                            x       y       z     vdW  Elec       q    Type
REMARK                         _______ _______ _______ _____ _____    ______ ____
ROOT
ATOM      1  C   UNL     1       1.637   4.909  -8.538  0.00  0.00    +0.146 C 
ATOM      2  C   UNL     1       1.404   5.423  -7.338  0.00  0.00    +0.077 C 
ATOM      3  S   UNL     1       2.552   5.692  -5.985  0.00  0.00    -0.101 S 
ATOM      4  C   UNL     1       1.398   5.125  -4.565  0.00  0.00    +0.087 C 
ATOM      5  C   UNL     1       0.294   6.220  -4.934  0.00  0.00    +0.078 C 
ATOM      6  S   UNL     1      -0.215   5.696  -6.606  0.00  0.00    -0.104 S 
ENDROOT
BRANCH   4   7
ATOM      7  C   UNL     1       2.082   5.985  -3.449  0.00  0.00    -0.001 A 
ATOM      8  C   UNL     1       1.803   5.643  -2.131  0.00  0.00    +0.055 A 
ATOM      9 CL   UNL     1       0.288   4.879  -1.715  0.00  0.00    -0.083 Cl
ATOM     10  C   UNL     1       2.659   6.145  -1.178  0.00  0.00    +0.022 A 
ATOM     11  C   UNL     1       3.620   7.091  -1.495  0.00  0.00    +0.058 A 
ATOM     12 CL   UNL     1       5.039   7.254  -0.464  0.00  0.00    -0.082 Cl
ATOM     13  C   UNL     1       3.541   7.687  -2.745  0.00  0.00    +0.011 A 
ATOM     14  C   UNL     1       2.885   7.027  -3.780  0.00  0.00    -0.002 A 
ENDBRANCH   4   7
BRANCH   1  15
ATOM     15  N   UNL     1       0.791   5.403  -9.582  0.00  0.00    -0.277 N 
ATOM     16  C   UNL     1       0.201   4.658 -10.536  0.00  0.00    +0.183 A 
ATOM     17  N   UNL     1      -0.009   5.413 -11.642  0.00  0.00    -0.222 NA
ATOM     18  C   UNL     1       0.445   6.645 -11.408  0.00  0.00    +0.120 A 
ATOM     19  C   UNL     1       0.924   6.638 -10.124  0.00  0.00    +0.103 A 
ENDBRANCH   1  15
BRANCH   1  21
ATOM     20  N   UNL     1       3.871   3.940  -9.036  0.00  0.00    -0.189 NA
ATOM     21  C   UNL     1       2.934   4.331  -8.817  0.00  0.00    +0.119 C 
ENDBRANCH   1  21
TORSDOF 3
ENDMDL
MODEL 3
REMARK VINA RESULT:      -6.7      5.108      8.112
REMARK  Name = 
REMARK  3 active torsions:
REMARK  status: ('A' for Active; 'I' for Inactive)
REMARK    1  A    between atoms: C_2  and  C_3
REMARK    2  A    between atoms: C_3  and  N_17
REMARK    3  A    between atoms: C_7  and  C_8
REMARK                            x       y       z     vdW  Elec       q    Type
REMARK                         _______ _______ _______ _____ _____    ______ ____
ROOT
ATOM      1  C   UNL     1       1.278   6.306 -11.236  0.00  0.00    +0.146 C 
ATOM      2  C   UNL     1       1.722   5.929 -10.046  0.00  0.00    +0.077 C 
ATOM      3  S   UNL     1       1.005   6.231  -8.428  0.00  0.00    -0.101 S 
ATOM      4  C   UNL     1       2.637   6.617  -7.502  0.00  0.00    +0.087 C 
ATOM      5  C   UNL     1       3.262   5.193  -7.871  0.00  0.00    +0.078 C 
ATOM      6  S   UNL     1       3.361   5.281  -9.690  0.00  0.00    -0.104 S 
ENDROOT
BRANCH   4   7
ATOM      7  C   UNL     1       2.125   6.185  -6.086  0.00  0.00    -0.001 A 
ATOM      8  C   UNL     1       2.742   6.772  -4.988  0.00  0.00    +0.055 A 
ATOM      9 CL   UNL     1       4.397   7.322  -5.090  0.00  0.00    -0.083 Cl
ATOM     10  C   UNL     1       2.072   6.675  -3.790  0.00  0.00    +0.022 A 
ATOM     11  C   UNL     1       0.951   5.873  -3.651  0.00  0.00    +0.058 A 
ATOM     12 CL   UNL     1      -0.200   6.221  -2.365  0.00  0.00    -0.082 Cl
ATOM     13  C   UNL     1       0.663   4.994  -4.685  0.00  0.00    +0.011 A 
ATOM     14  C   UNL     1       1.141   5.259  -5.965  0.00  0.00    -0.002 A 
ENDBRANCH   4   7
BRANCH   1  15
ATOM     15  N   UNL     1       1.615   5.427 -12.315  0.00  0.00    -0.277 N 
ATOM     16  C   UNL     1       2.523   5.675 -13.278  0.00  0.00    +0.183 A 
ATOM     17  N   UNL     1       2.198   4.986 -14.400  0.00  0.00    -0.222 NA
ATOM     18  C   UNL     1       1.082   4.294 -14.167  0.00  0.00    +0.120 A 
ATOM     19  C   UNL     1       0.735   4.558 -12.867  0.00  0.00    +0.103 A 
ENDBRANCH   1  15
BRANCH   1  21
ATOM     20  N   UNL     1      -0.676   7.835 -11.385  0.00  0.00    -0.189 NA
ATOM     21  C   UNL     1       0.149   7.209 -11.314  0.00  0.00    +0.119 C 
ENDBRANCH   1  21
TORSDOF 3
ENDMDL
MODEL 4
REMARK VINA RESULT:      -6.6      3.275      5.049
REMARK  Name = 
REMARK  3 active torsions:
REMARK  status: ('A' for Active; 'I' for Inactive)
REMARK    1  A    between atoms: C_2  and  C_3
REMARK    2  A    between atoms: C_3  and  N_17
REMARK    3  A    between atoms: C_7  and  C_8
REMARK                            x       y       z     vdW  Elec       q    Type
REMARK                         _______ _______ _______ _____ _____    ______ ____
ROOT
ATOM      1  C   UNL     1      -0.974   6.000  -1.218  0.00  0.00    +0.146 C 
ATOM      2  C   UNL     1       0.153   6.256  -1.868  0.00  0.00    +0.077 C 
ATOM      3  S   UNL     1       0.495   6.126  -3.625  0.00  0.00    -0.101 S 
ATOM      4  C   UNL     1       2.245   5.358  -3.481  0.00  0.00    +0.087 C 
ATOM      5  C   UNL     1       2.791   6.593  -2.627  0.00  0.00    +0.078 C 
ATOM      6  S   UNL     1       1.771   6.492  -1.118  0.00  0.00    -0.104 S 
ENDROOT
BRANCH   4   7
ATOM      7  C   UNL     1       2.769   5.893  -4.856  0.00  0.00    -0.001 A 
ATOM      8  C   UNL     1       3.955   5.347  -5.334  0.00  0.00    +0.055 A 
ATOM      9 CL   UNL     1       5.153   4.723  -4.226  0.00  0.00    -0.083 Cl
ATOM     10  C   UNL     1       4.220   5.542  -6.669  0.00  0.00    +0.022 A 
ATOM     11  C   UNL     1       3.451   6.397  -7.442  0.00  0.00    +0.058 A 
ATOM     12 CL   UNL     1       3.410   6.174  -9.188  0.00  0.00    -0.082 Cl
ATOM     13  C   UNL     1       2.556   7.225  -6.781  0.00  0.00    +0.011 A 
ATOM     14  C   UNL     1       2.093   6.865  -5.518  0.00  0.00    -0.002 A 
ENDBRANCH   4   7
BRANCH   1  15
ATOM     15  N   UNL     1      -1.179   6.779  -0.034  0.00  0.00    -0.277 N 
ATOM     16  C   UNL     1      -1.765   6.348   1.100  0.00  0.00    +0.183 A 
ATOM     17  N   UNL     1      -2.321   7.397   1.754  0.00  0.00    -0.222 NA
ATOM     18  C   UNL     1      -2.098   8.506   1.047  0.00  0.00    +0.120 A 
ATOM     19  C   UNL     1      -1.375   8.119  -0.051  0.00  0.00    +0.103 A 
ENDBRANCH   1  15
BRANCH   1  21
ATOM     20  N   UNL     1      -2.887   4.979  -2.432  0.00  0.00    -0.189 NA
ATOM     21  C   UNL     1      -2.077   5.393  -1.932  0.00  0.00    +0.119 C 
ENDBRANCH   1  21
TORSDOF 3
ENDMDL
MODEL 5
REMARK VINA RESULT:      -6.6      2.410      3.982
REMARK  Name = 
REMARK  3 active torsions:
REMARK  status: ('A' for Active; 'I' for Inactive)
REMARK    1  A    between atoms: C_2  and  C_3
REMARK    2  A    between atoms: C_3  and  N_17
REMARK    3  A    between atoms: C_7  and  C_8
REMARK                            x       y       z     vdW  Elec       q    Type
REMARK                         _______ _______ _______ _____ _____    ______ ____
ROOT
ATOM      1  C   UNL     1       2.599   6.148  -1.661  0.00  0.00    +0.146 C 
ATOM      2  C   UNL     1       3.021   6.529  -2.858  0.00  0.00    +0.077 C 
ATOM      3  S   UNL     1       2.249   6.276  -4.459  0.00  0.00    -0.101 S 
ATOM      4  C   UNL     1       3.840   5.851  -5.437  0.00  0.00    +0.087 C 
ATOM      5  C   UNL     1       4.523   7.247  -5.066  0.00  0.00    +0.078 C 
ATOM      6  S   UNL     1       4.671   7.127  -3.252  0.00  0.00    -0.104 S 
ENDROOT
BRANCH   4   7
ATOM      7  C   UNL     1       3.303   6.322  -6.831  0.00  0.00    -0.001 A 
ATOM      8  C   UNL     1       3.838   5.702  -7.954  0.00  0.00    +0.055 A 
ATOM      9 CL   UNL     1       5.457   5.046  -7.918  0.00  0.00    -0.083 Cl
ATOM     10  C   UNL     1       3.130   5.848  -9.124  0.00  0.00    +0.022 A 
ATOM     11  C   UNL     1       2.059   6.722  -9.218  0.00  0.00    +0.058 A 
ATOM     12 CL   UNL     1       0.839   6.455 -10.460  0.00  0.00    -0.082 Cl
ATOM     13  C   UNL     1       1.867   7.612  -8.172  0.00  0.00    +0.011 A 
ATOM     14  C   UNL     1       2.377   7.310  -6.912  0.00  0.00    -0.002 A 
ENDBRANCH   4   7
BRANCH   1  15
ATOM     15  N   UNL     1       2.997   6.998  -0.580  0.00  0.00    -0.277 N 
ATOM     16  C   UNL     1       4.020   6.771   0.266  0.00  0.00    +0.183 A 
ATOM     17  N   UNL     1       3.778   7.382   1.451  0.00  0.00    -0.222 NA
ATOM     18  C   UNL     1       2.601   8.005   1.376  0.00  0.00    +0.120 A 
ATOM     19  C   UNL     1       2.129   7.778   0.110  0.00  0.00    +0.103 A 
ENDBRANCH   1  15
BRANCH   1  21
ATOM     20  N   UNL     1       0.608   4.674  -1.466  0.00  0.00    -0.189 NA
ATOM     21  C   UNL     1       1.443   5.282  -1.564  0.00  0.00    +0.119 C 
ENDBRANCH   1  21
TORSDOF 3
ENDMDL
MODEL 6
REMARK VINA RESULT:      -6.5      2.412      3.235
REMARK  Name = 
REMARK  3 active torsions:
REMARK  status: ('A' for Active; 'I' for Inactive)
REMARK    1  A    between atoms: C_2  and  C_3
REMARK    2  A    between atoms: C_3  and  N_17
REMARK    3  A    between atoms: C_7  and  C_8
REMARK                            x       y       z     vdW  Elec       q    Type
REMARK                         _______ _______ _______ _____ _____    ______ ____
ROOT
ATOM      1  C   UNL     1      -0.717   5.652  -5.081  0.00  0.00    +0.146 C 
ATOM      2  C   UNL     1       0.516   5.569  -5.559  0.00  0.00    +0.077 C 
ATOM      3  S   UNL     1       1.077   5.699  -7.260  0.00  0.00    -0.101 S 
ATOM      4  C   UNL     1       2.366   4.283  -7.204  0.00  0.00    +0.087 C 
ATOM      5  C   UNL     1       3.178   4.977  -6.016  0.00  0.00    +0.078 C 
ATOM      6  S   UNL     1       1.955   4.968  -4.663  0.00  0.00    -0.104 S 
ENDROOT
BRANCH   4   7
ATOM      7  C   UNL     1       3.275   4.848  -8.348  0.00  0.00    -0.001 A 
ATOM      8  C   UNL     1       2.661   5.116  -9.566  0.00  0.00    +0.055 A 
ATOM      9 CL   UNL     1       1.243   4.222 -10.060  0.00  0.00    -0.083 Cl
ATOM     10  C   UNL     1       3.356   5.929 -10.431  0.00  0.00    +0.022 A 
ATOM     11  C   UNL     1       4.669   6.295 -10.183  0.00  0.00    +0.058 A 
ATOM     12 CL   UNL     1       5.309   7.756 -10.929  0.00  0.00    -0.082 Cl
ATOM     13  C   UNL     1       5.334   5.633  -9.163  0.00  0.00    +0.011 A 
ATOM     14  C   UNL     1       4.603   5.034  -8.141  0.00  0.00    -0.002 A 
ENDBRANCH   4   7
BRANCH   1  15
ATOM     15  N   UNL     1      -0.816   6.169  -3.749  0.00  0.00    -0.277 N 
ATOM     16  C   UNL     1      -0.727   5.447  -2.615  0.00  0.00    +0.183 A 
ATOM     17  N   UNL     1      -1.418   6.064  -1.626  0.00  0.00    -0.222 NA
ATOM     18  C   UNL     1      -1.956   7.182  -2.114  0.00  0.00    +0.120 A 
ATOM     19  C   UNL     1      -1.565   7.251  -3.426  0.00  0.00    +0.103 A 
ENDBRANCH   1  15
BRANCH   1  21
ATOM     20  N   UNL     1      -2.608   5.758  -6.691  0.00  0.00    -0.189 NA
ATOM     21  C   UNL     1      -1.830   5.710  -6.005  0.00  0.00    +0.119 C 
ENDBRANCH   1  21
TORSDOF 3
ENDMDL
MODEL 7
REMARK VINA RESULT:      -6.4      2.504      4.076
REMARK  Name = 
REMARK  3 active torsions:
REMARK  status: ('A' for Active; 'I' for Inactive)
REMARK    1  A    between atoms: C_2  and  C_3
REMARK    2  A    between atoms: C_3  and  N_17
REMARK    3  A    between atoms: C_7  and  C_8
REMARK                            x       y       z     vdW  Elec       q    Type
REMARK                         _______ _______ _______ _____ _____    ______ ____
ROOT
ATOM      1  C   UNL     1       2.212   5.416  -2.290  0.00  0.00    +0.146 C 
ATOM      2  C   UNL     1       2.495   5.508  -3.581  0.00  0.00    +0.077 C 
ATOM      3  S   UNL     1       1.390   5.379  -4.990  0.00  0.00    -0.101 S 
ATOM      4  C   UNL     1       2.542   4.339  -6.113  0.00  0.00    +0.087 C 
ATOM      5  C   UNL     1       3.694   5.446  -6.072  0.00  0.00    +0.078 C 
ATOM      6  S   UNL     1       4.141   5.463  -4.304  0.00  0.00    -0.104 S 
ENDROOT
BRANCH   4   7
ATOM      7  C   UNL     1       1.927   4.826  -7.469  0.00  0.00    -0.001 A 
ATOM      8  C   UNL     1       2.641   4.534  -8.625  0.00  0.00    +0.055 A 
ATOM      9 CL   UNL     1       4.377   4.352  -8.572  0.00  0.00    -0.083 Cl
ATOM     10  C   UNL     1       1.948   4.634  -9.809  0.00  0.00    +0.022 A 
ATOM     11  C   UNL     1       0.676   5.182  -9.859  0.00  0.00    +0.058 A 
ATOM     12 CL   UNL     1      -0.390   4.758 -11.195  0.00  0.00    -0.082 Cl
ATOM     13  C   UNL     1       0.218   5.836  -8.726  0.00  0.00    +0.011 A 
ATOM     14  C   UNL     1       0.762   5.521  -7.484  0.00  0.00    -0.002 A 
ENDBRANCH   4   7
BRANCH   1  15
ATOM     15  N   UNL     1       3.061   6.181  -1.427  0.00  0.00    -0.277 N 
ATOM     16  C   UNL     1       4.077   5.694  -0.688  0.00  0.00    +0.183 A 
ATOM     17  N   UNL     1       4.272   6.484   0.396  0.00  0.00    -0.222 NA
ATOM     18  C   UNL     1       3.385   7.480   0.363  0.00  0.00    +0.120 A 
ATOM     19  C   UNL     1       2.648   7.297  -0.778  0.00  0.00    +0.103 A 
ENDBRANCH   1  15
BRANCH   1  21
ATOM     20  N   UNL     1      -0.082   4.723  -1.628  0.00  0.00    -0.189 NA
ATOM     21  C   UNL     1       0.881   5.013  -1.887  0.00  0.00    +0.119 C 
ENDBRANCH   1  21
TORSDOF 3
ENDMDL
MODEL 8
REMARK VINA RESULT:      -6.3      1.640      2.063
REMARK  Name = 
REMARK  3 active torsions:
REMARK  status: ('A' for Active; 'I' for Inactive)
REMARK    1  A    between atoms: C_2  and  C_3
REMARK    2  A    between atoms: C_3  and  N_17
REMARK    3  A    between atoms: C_7  and  C_8
REMARK                            x       y       z     vdW  Elec       q    Type
REMARK                         _______ _______ _______ _____ _____    ______ ____
ROOT
ATOM      1  C   UNL     1       1.617   6.293  -4.307  0.00  0.00    +0.146 C 
ATOM      2  C   UNL     1       2.593   5.989  -5.151  0.00  0.00    +0.077 C 
ATOM      3  S   UNL     1       2.796   6.483  -6.865  0.00  0.00    -0.101 S 
ATOM      4  C   UNL     1       3.414   4.799  -7.537  0.00  0.00    +0.087 C 
ATOM      5  C   UNL     1       4.659   4.779  -6.535  0.00  0.00    +0.078 C 
ATOM      6  S   UNL     1       3.836   4.713  -4.908  0.00  0.00    -0.104 S 
ENDROOT
BRANCH   4   7
ATOM      7  C   UNL     1       4.214   5.392  -8.746  0.00  0.00    -0.001 A 
ATOM      8  C   UNL     1       3.470   5.897  -9.806  0.00  0.00    +0.055 A 
ATOM      9 CL   UNL     1       1.877   5.266 -10.151  0.00  0.00    -0.083 Cl
ATOM     10  C   UNL     1       4.139   6.723 -10.679  0.00  0.00    +0.022 A 
ATOM     11  C   UNL     1       5.513   6.881 -10.616  0.00  0.00    +0.058 A 
ATOM     12 CL   UNL     1       6.243   8.335 -11.291  0.00  0.00    -0.082 Cl
ATOM     13  C   UNL     1       6.220   6.008  -9.802  0.00  0.00    +0.011 A 
ATOM     14  C   UNL     1       5.570   5.376  -8.746  0.00  0.00    -0.002 A 
ENDBRANCH   4   7
BRANCH   1  15
ATOM     15  N   UNL     1       2.005   6.353  -2.930  0.00  0.00    -0.277 N 
ATOM     16  C   UNL     1       1.192   6.157  -1.874  0.00  0.00    +0.183 A 
ATOM     17  N   UNL     1       1.669   6.831  -0.800  0.00  0.00    -0.222 NA
ATOM     18  C   UNL     1       2.788   7.464  -1.156  0.00  0.00    +0.120 A 
ATOM     19  C   UNL     1       3.001   7.150  -2.473  0.00  0.00    +0.103 A 
ENDBRANCH   1  15
BRANCH   1  21
ATOM     20  N   UNL     1      -0.402   7.487  -5.129  0.00  0.00    -0.189 NA
ATOM     21  C   UNL     1       0.450   6.992  -4.802  0.00  0.00    +0.119 C 
ENDBRANCH   1  21
TORSDOF 3
ENDMDL
MODEL 9
REMARK VINA RESULT:      -6.1      5.497      8.131
REMARK  Name = 
REMARK  3 active torsions:
REMARK  status: ('A' for Active; 'I' for Inactive)
REMARK    1  A    between atoms: C_2  and  C_3
REMARK    2  A    between atoms: C_3  and  N_17
REMARK    3  A    between atoms: C_7  and  C_8
REMARK                            x       y       z     vdW  Elec       q    Type
REMARK                         _______ _______ _______ _____ _____    ______ ____
ROOT
ATOM      1  C   UNL     1       2.368   5.633 -12.554  0.00  0.00    +0.146 C 
ATOM      2  C   UNL     1       2.051   5.711 -11.269  0.00  0.00    +0.077 C 
ATOM      3  S   UNL     1       3.123   6.002  -9.859  0.00  0.00    -0.101 S 
ATOM      4  C   UNL     1       2.320   4.731  -8.671  0.00  0.00    +0.087 C 
ATOM      5  C   UNL     1       0.890   5.436  -8.775  0.00  0.00    +0.078 C 
ATOM      6  S   UNL     1       0.484   5.215 -10.540  0.00  0.00    -0.104 S 
ENDROOT
BRANCH   4   7
ATOM      7  C   UNL     1       2.741   5.458  -7.350  0.00  0.00    -0.001 A 
ATOM      8  C   UNL     1       2.452   4.809  -6.155  0.00  0.00    +0.055 A 
ATOM      9 CL   UNL     1       1.100   3.708  -6.048  0.00  0.00    -0.083 Cl
ATOM     10  C   UNL     1       3.125   5.257  -5.042  0.00  0.00    +0.022 A 
ATOM     11  C   UNL     1       3.892   6.410  -5.075  0.00  0.00    +0.058 A 
ATOM     12 CL   UNL     1       5.179   6.621  -3.891  0.00  0.00    -0.082 Cl
ATOM     13  C   UNL     1       3.776   7.222  -6.193  0.00  0.00    +0.011 A 
ATOM     14  C   UNL     1       3.336   6.677  -7.395  0.00  0.00    -0.002 A 
ENDBRANCH   4   7
BRANCH   1  15
ATOM     15  N   UNL     1       1.341   6.056 -13.458  0.00  0.00    -0.277 N 
ATOM     16  C   UNL     1       0.909   5.372 -14.535  0.00  0.00    +0.183 A 
ATOM     17  N   UNL     1       0.415   6.235 -15.456  0.00  0.00    -0.222 NA
ATOM     18  C   UNL     1       0.525   7.476 -14.979  0.00  0.00    +0.120 A 
ATOM     19  C   UNL     1       1.084   7.358 -13.733  0.00  0.00    +0.103 A 
ENDBRANCH   1  15
BRANCH   1  21
ATOM     20  N   UNL     1       4.764   5.652 -13.216  0.00  0.00    -0.189 NA
ATOM     21  C   UNL     1       3.764   5.626 -12.936  0.00  0.00    +0.119 C 
ENDBRANCH   1  21
TORSDOF 3
ENDMDL
