MODEL 1
REMARK VINA RESULT:      -7.4      0.000      0.000
REMARK  Name = 
REMARK  2 active torsions:
REMARK  status: ('A' for Active; 'I' for Inactive)
REMARK    1  A    between atoms: C_27  and  C_28
REMARK    2  A    between atoms: C_28  and  C_30
REMARK                            x       y       z     vdW  Elec       q    Type
REMARK                         _______ _______ _______ _____ _____    ______ ____
ROOT
ATOM      1  C   UNL     1       3.267   8.495  -2.584  0.00  0.00    +0.061 C 
ATOM      2  C   UNL     1       3.679   7.965  -2.155  0.00  0.00    +0.188 C 
ATOM      3  O   UNL     1       2.828   6.962  -1.747  0.00  0.00    -0.330 OA
ATOM      4  C   UNL     1       3.189   5.841  -2.405  0.00  0.00    +0.173 C 
ATOM      5  C   UNL     1       4.824   5.995  -2.311  0.00  0.00    +0.149 C 
ATOM      6  C   UNL     1       5.129   5.457  -3.849  0.00  0.00    +0.033 C 
ATOM      7  C   UNL     1       3.983   6.375  -4.514  0.00  0.00    +0.008 C 
ATOM      8  C   UNL     1       3.691   5.423  -5.880  0.00  0.00    +0.036 C 
ATOM      9  C   UNL     1       2.794   6.595  -6.514  0.00  0.00    +0.168 C 
ATOM     10  C   UNL     1       1.721   7.033  -5.368  0.00  0.00    +0.182 C 
ATOM     11  C   UNL     1       1.706   5.632  -4.493  0.00  0.00    +0.038 C 
ATOM     12  O   UNL     1       0.502   6.583  -6.163  0.00  0.00    -0.220 OA
ATOM     13  F   UNL     1       3.526   7.741  -6.583  0.00  0.00    -0.237 F 
ATOM     14  C   UNL     1       2.267   6.048  -7.714  0.00  0.00    +0.066 C 
ATOM     15  C   UNL     1       3.499   5.914  -8.568  0.00  0.00    -0.003 C 
ATOM     16  C   UNL     1       3.206   5.447  -9.787  0.00  0.00    +0.036 C 
ATOM     17  C   UNL     1       1.941   5.778 -10.451  0.00  0.00    +0.195 C 
ATOM     18  C   UNL     1       1.067   6.709  -9.724  0.00  0.00    +0.038 C 
ATOM     19  O   UNL     1       1.777   5.538 -11.686  0.00  0.00    -0.287 OA
ATOM     20  C   UNL     1       4.608   4.883  -7.976  0.00  0.00    +0.180 C 
ATOM     21  F   UNL     1       5.691   5.479  -8.847  0.00  0.00    -0.233 F 
ATOM     22  C   UNL     1       1.618   4.712  -7.513  0.00  0.00    +0.011 C 
ATOM     23  C   UNL     1       1.439   7.006  -8.486  0.00  0.00    -0.017 C 
ATOM     24  C   UNL     1       5.019   5.868  -6.706  0.00  0.00    +0.042 C 
ATOM     25  C   UNL     1       2.887   5.492  -3.711  0.00  0.00    +0.034 C 
ATOM     26  C   UNL     1       3.298   4.018  -3.867  0.00  0.00    +0.003 C 
ATOM     27  O   UNL     1       4.808   7.454  -2.713  0.00  0.00    -0.334 OA
ATOM     28  C   UNL     1       3.942   8.807  -0.910  0.00  0.00    +0.061 C 
ENDROOT
BRANCH   4  29
ATOM     29  C   UNL     1       3.001   4.678  -1.470  0.00  0.00    +0.210 C 
ATOM     30  O   UNL     1       1.922   4.458  -0.922  0.00  0.00    -0.291 OA
BRANCH  29  31
ATOM     31  C   UNL     1       4.160   3.914  -0.907  0.00  0.00    +0.248 C 
ATOM     32  O   UNL     1       3.766   2.666  -0.402  0.00  0.00    -0.212 OA
ENDBRANCH  29  31
ENDBRANCH   4  29
TORSDOF 2
ENDMDL
MODEL 2
REMARK VINA RESULT:      -7.1      3.819      7.830
REMARK  Name = 
REMARK  2 active torsions:
REMARK  status: ('A' for Active; 'I' for Inactive)
REMARK    1  A    between atoms: C_27  and  C_28
REMARK    2  A    between atoms: C_28  and  C_30
REMARK                            x       y       z     vdW  Elec       q    Type
REMARK                         _______ _______ _______ _____ _____    ______ ____
ROOT
ATOM      1  C   UNL     1       7.514   5.288 -10.021  0.00  0.00    +0.061 C 
ATOM      2  C   UNL     1       7.484   5.756 -10.665  0.00  0.00    +0.188 C 
ATOM      3  O   UNL     1       6.843   5.080 -11.678  0.00  0.00    -0.330 OA
ATOM      4  C   UNL     1       5.663   5.701 -11.888  0.00  0.00    +0.173 C 
ATOM      5  C   UNL     1       6.162   7.263 -11.758  0.00  0.00    +0.149 C 
ATOM      6  C   UNL     1       4.831   7.793 -10.925  0.00  0.00    +0.033 C 
ATOM      7  C   UNL     1       4.847   6.553  -9.895  0.00  0.00    +0.008 C 
ATOM      8  C   UNL     1       3.204   6.564  -9.498  0.00  0.00    +0.036 C 
ATOM      9  C   UNL     1       3.476   5.517  -8.311  0.00  0.00    +0.168 C 
ATOM     10  C   UNL     1       4.328   4.288  -8.959  0.00  0.00    +0.182 C 
ATOM     11  C   UNL     1       3.862   4.466 -10.534  0.00  0.00    +0.038 C 
ATOM     12  O   UNL     1       3.240   3.247  -8.725  0.00  0.00    -0.220 OA
ATOM     13  F   UNL     1       4.419   6.021  -7.468  0.00  0.00    -0.237 F 
ATOM     14  C   UNL     1       2.191   5.207  -7.791  0.00  0.00    +0.066 C 
ATOM     15  C   UNL     1       1.785   6.509  -7.156  0.00  0.00    -0.003 C 
ATOM     16  C   UNL     1       0.593   6.413  -6.555  0.00  0.00    +0.036 C 
ATOM     17  C   UNL     1       0.155   5.169  -5.915  0.00  0.00    +0.195 C 
ATOM     18  C   UNL     1       1.137   4.076  -5.913  0.00  0.00    +0.038 C 
ATOM     19  O   UNL     1      -0.854   5.158  -5.146  0.00  0.00    -0.287 OA
ATOM     20  C   UNL     1       1.631   7.740  -8.206  0.00  0.00    +0.180 C 
ATOM     21  F   UNL     1       1.720   8.759  -7.094  0.00  0.00    -0.233 F 
ATOM     22  C   UNL     1       1.211   4.809  -8.852  0.00  0.00    +0.011 C 
ATOM     23  C   UNL     1       2.231   4.279  -6.634  0.00  0.00    -0.017 C 
ATOM     24  C   UNL     1       3.259   7.848  -8.502  0.00  0.00    +0.042 C 
ATOM     25  C   UNL     1       4.500   5.582 -11.144  0.00  0.00    +0.034 C 
ATOM     26  C   UNL     1       3.397   6.277 -11.960  0.00  0.00    +0.003 C 
ATOM     27  O   UNL     1       6.971   7.004 -10.506  0.00  0.00    -0.334 OA
ATOM     28  C   UNL     1       8.962   5.748 -11.043  0.00  0.00    +0.061 C 
ENDROOT
BRANCH   4  29
ATOM     29  C   UNL     1       5.377   5.659 -13.363  0.00  0.00    +0.210 C 
ATOM     30  O   UNL     1       4.868   4.674 -13.895  0.00  0.00    -0.291 OA
BRANCH  29  31
ATOM     31  C   UNL     1       5.963   6.656 -14.316  0.00  0.00    +0.248 C 
ATOM     32  O   UNL     1       6.968   6.086 -15.113  0.00  0.00    -0.212 OA
ENDBRANCH  29  31
ENDBRANCH   4  29
TORSDOF 2
ENDMDL
MODEL 3
REMARK VINA RESULT:      -7.0      2.211      3.559
REMARK  Name = 
REMARK  2 active torsions:
REMARK  status: ('A' for Active; 'I' for Inactive)
REMARK    1  A    between atoms: C_27  and  C_28
REMARK    2  A    between atoms: C_28  and  C_30
REMARK                            x       y       z     vdW  Elec       q    Type
REMARK                         _______ _______ _______ _____ _____    ______ ____
ROOT
ATOM      1  C   UNL     1       2.608   7.018  -3.127  0.00  0.00    +0.061 C 
ATOM      2  C   UNL     1       1.990   6.585  -2.873  0.00  0.00    +0.188 C 
ATOM      3  O   UNL     1       0.822   7.234  -3.207  0.00  0.00    -0.330 OA
ATOM      4  C   UNL     1       0.209   6.492  -4.152  0.00  0.00    +0.173 C 
ATOM      5  C   UNL     1       0.490   4.993  -3.533  0.00  0.00    +0.149 C 
ATOM      6  C   UNL     1       0.801   4.269  -4.991  0.00  0.00    +0.033 C 
ATOM      7  C   UNL     1       1.784   5.446  -5.489  0.00  0.00    +0.008 C 
ATOM      8  C   UNL     1       1.583   5.223  -7.153  0.00  0.00    +0.036 C 
ATOM      9  C   UNL     1       2.800   6.229  -7.442  0.00  0.00    +0.168 C 
ATOM     10  C   UNL     1       2.501   7.582  -6.584  0.00  0.00    +0.182 C 
ATOM     11  C   UNL     1       0.861   7.435  -6.451  0.00  0.00    +0.038 C 
ATOM     12  O   UNL     1       2.350   8.475  -7.809  0.00  0.00    -0.220 OA
ATOM     13  F   UNL     1       3.914   5.795  -6.792  0.00  0.00    -0.237 F 
ATOM     14  C   UNL     1       2.842   6.360  -8.856  0.00  0.00    +0.066 C 
ATOM     15  C   UNL     1       3.283   4.987  -9.287  0.00  0.00    -0.003 C 
ATOM     16  C   UNL     1       3.432   4.911 -10.615  0.00  0.00    +0.036 C 
ATOM     17  C   UNL     1       3.890   6.060 -11.402  0.00  0.00    +0.195 C 
ATOM     18  C   UNL     1       4.245   7.259 -10.629  0.00  0.00    +0.038 C 
ATOM     19  O   UNL     1       4.259   5.913 -12.606  0.00  0.00    -0.287 OA
ATOM     20  C   UNL     1       2.234   3.804  -8.911  0.00  0.00    +0.180 C 
ATOM     21  F   UNL     1       3.298   2.745  -9.082  0.00  0.00    -0.233 F 
ATOM     22  C   UNL     1       1.510   6.697  -9.453  0.00  0.00    +0.011 C 
ATOM     23  C   UNL     1       3.949   7.224  -9.336  0.00  0.00    -0.017 C 
ATOM     24  C   UNL     1       2.524   3.903  -7.280  0.00  0.00    +0.042 C 
ATOM     25  C   UNL     1       0.501   6.435  -5.505  0.00  0.00    +0.034 C 
ATOM     26  C   UNL     1      -0.655   5.661  -6.161  0.00  0.00    +0.003 C 
ATOM     27  O   UNL     1       1.948   5.279  -3.246  0.00  0.00    -0.334 OA
ATOM     28  C   UNL     1       2.151   6.785  -1.369  0.00  0.00    +0.061 C 
ENDROOT
BRANCH   4  29
ATOM     29  C   UNL     1      -1.273   6.578  -3.914  0.00  0.00    +0.210 C 
ATOM     30  O   UNL     1      -1.936   7.538  -4.306  0.00  0.00    -0.291 OA
BRANCH  29  31
ATOM     31  C   UNL     1      -1.976   5.685  -2.938  0.00  0.00    +0.248 C 
ATOM     32  O   UNL     1      -3.074   5.036  -3.523  0.00  0.00    -0.212 OA
ENDBRANCH  29  31
ENDBRANCH   4  29
TORSDOF 2
ENDMDL
MODEL 4
REMARK VINA RESULT:      -6.9      3.019      7.456
REMARK  Name = 
REMARK  2 active torsions:
REMARK  status: ('A' for Active; 'I' for Inactive)
REMARK    1  A    between atoms: C_27  and  C_28
REMARK    2  A    between atoms: C_28  and  C_30
REMARK                            x       y       z     vdW  Elec       q    Type
REMARK                         _______ _______ _______ _____ _____    ______ ____
ROOT
ATOM      1  C   UNL     1       2.112   6.445 -12.357  0.00  0.00    +0.061 C 
ATOM      2  C   UNL     1       2.828   6.145 -12.537  0.00  0.00    +0.188 C 
ATOM      3  O   UNL     1       3.793   7.081 -12.238  0.00  0.00    -0.330 OA
ATOM      4  C   UNL     1       4.500   6.605 -11.192  0.00  0.00    +0.173 C 
ATOM      5  C   UNL     1       4.608   5.027 -11.643  0.00  0.00    +0.149 C 
ATOM      6  C   UNL     1       4.381   4.405 -10.125  0.00  0.00    +0.033 C 
ATOM      7  C   UNL     1       3.127   5.363  -9.801  0.00  0.00    +0.008 C 
ATOM      8  C   UNL     1       3.269   5.367  -8.117  0.00  0.00    +0.036 C 
ATOM      9  C   UNL     1       1.838   6.084  -7.989  0.00  0.00    +0.168 C 
ATOM     10  C   UNL     1       1.872   7.373  -8.987  0.00  0.00    +0.182 C 
ATOM     11  C   UNL     1       3.507   7.602  -9.042  0.00  0.00    +0.038 C 
ATOM     12  O   UNL     1       1.738   8.399  -7.868  0.00  0.00    -0.220 OA
ATOM     13  F   UNL     1       0.896   5.335  -8.626  0.00  0.00    -0.237 F 
ATOM     14  C   UNL     1       1.679   6.347  -6.602  0.00  0.00    +0.066 C 
ATOM     15  C   UNL     1       1.538   4.962  -6.033  0.00  0.00    -0.003 C 
ATOM     16  C   UNL     1       1.330   4.991  -4.711  0.00  0.00    +0.036 C 
ATOM     17  C   UNL     1       0.571   6.075  -4.079  0.00  0.00    +0.195 C 
ATOM     18  C   UNL     1       0.001   7.071  -4.997  0.00  0.00    +0.038 C 
ATOM     19  O   UNL     1       0.172   5.971  -2.880  0.00  0.00    -0.287 OA
ATOM     20  C   UNL     1       2.853   4.025  -6.232  0.00  0.00    +0.180 C 
ATOM     21  F   UNL     1       2.051   2.769  -5.979  0.00  0.00    -0.233 F 
ATOM     22  C   UNL     1       2.860   7.047  -6.000  0.00  0.00    +0.011 C 
ATOM     23  C   UNL     1       0.377   6.972  -6.266  0.00  0.00    -0.017 C 
ATOM     24  C   UNL     1       2.650   3.884  -7.872  0.00  0.00    +0.042 C 
ATOM     25  C   UNL     1       4.145   6.622  -9.853  0.00  0.00    +0.034 C 
ATOM     26  C   UNL     1       5.404   6.213  -9.070  0.00  0.00    +0.003 C 
ATOM     27  O   UNL     1       3.144   4.931 -12.015  0.00  0.00    -0.334 OA
ATOM     28  C   UNL     1       2.719   6.145 -14.059  0.00  0.00    +0.061 C 
ENDROOT
BRANCH   4  29
ATOM     29  C   UNL     1       5.935   7.012 -11.384  0.00  0.00    +0.210 C 
ATOM     30  O   UNL     1       6.300   8.178 -11.245  0.00  0.00    -0.291 OA
BRANCH  29  31
ATOM     31  C   UNL     1       6.934   6.114 -12.046  0.00  0.00    +0.248 C 
ATOM     32  O   UNL     1       8.121   6.019 -11.305  0.00  0.00    -0.212 OA
ENDBRANCH  29  31
ENDBRANCH   4  29
TORSDOF 2
ENDMDL
MODEL 5
REMARK VINA RESULT:      -6.7      3.409      6.146
REMARK  Name = 
REMARK  2 active torsions:
REMARK  status: ('A' for Active; 'I' for Inactive)
REMARK    1  A    between atoms: C_27  and  C_28
REMARK    2  A    between atoms: C_28  and  C_30
REMARK                            x       y       z     vdW  Elec       q    Type
REMARK                         _______ _______ _______ _____ _____    ______ ____
ROOT
ATOM      1  C   UNL     1       5.506   7.004   2.044  0.00  0.00    +0.061 C 
ATOM      2  C   UNL     1       5.072   7.553   2.425  0.00  0.00    +0.188 C 
ATOM      3  O   UNL     1       5.297   8.781   1.844  0.00  0.00    -0.330 OA
ATOM      4  C   UNL     1       4.153   9.146   1.227  0.00  0.00    +0.173 C 
ATOM      5  C   UNL     1       3.072   8.654   2.366  0.00  0.00    +0.149 C 
ATOM      6  C   UNL     1       1.956   8.067   1.291  0.00  0.00    +0.033 C 
ATOM      7  C   UNL     1       3.055   7.276   0.416  0.00  0.00    +0.008 C 
ATOM      8  C   UNL     1       2.213   7.262  -1.050  0.00  0.00    +0.036 C 
ATOM      9  C   UNL     1       3.281   6.231  -1.662  0.00  0.00    +0.168 C 
ATOM     10  C   UNL     1       4.756   6.863  -1.377  0.00  0.00    +0.182 C 
ATOM     11  C   UNL     1       4.324   8.452  -1.240  0.00  0.00    +0.038 C 
ATOM     12  O   UNL     1       5.096   7.052  -2.850  0.00  0.00    -0.220 OA
ATOM     13  F   UNL     1       3.354   5.127  -0.869  0.00  0.00    -0.237 F 
ATOM     14  C   UNL     1       2.901   6.070  -3.022  0.00  0.00    +0.066 C 
ATOM     15  C   UNL     1       1.592   5.339  -2.900  0.00  0.00    -0.003 C 
ATOM     16  C   UNL     1       1.078   5.046  -4.100  0.00  0.00    +0.036 C 
ATOM     17  C   UNL     1       1.937   4.732  -5.246  0.00  0.00    +0.195 C 
ATOM     18  C   UNL     1       3.379   4.688  -4.966  0.00  0.00    +0.038 C 
ATOM     19  O   UNL     1       1.449   4.222  -6.300  0.00  0.00    -0.287 OA
ATOM     20  C   UNL     1       0.430   6.182  -2.137  0.00  0.00    +0.180 C 
ATOM     21  F   UNL     1      -0.371   4.927  -1.875  0.00  0.00    -0.233 F 
ATOM     22  C   UNL     1       2.712   7.375  -3.735  0.00  0.00    +0.011 C 
ATOM     23  C   UNL     1       3.748   5.102  -3.761  0.00  0.00    -0.017 C 
ATOM     24  C   UNL     1       1.165   6.083  -0.654  0.00  0.00    +0.042 C 
ATOM     25  C   UNL     1       3.678   8.712   0.001  0.00  0.00    +0.034 C 
ATOM     26  C   UNL     1       2.494   9.631  -0.349  0.00  0.00    +0.003 C 
ATOM     27  O   UNL     1       3.742   7.311   2.564  0.00  0.00    -0.334 OA
ATOM     28  C   UNL     1       5.828   7.586   3.750  0.00  0.00    +0.061 C 
ENDROOT
BRANCH   4  29
ATOM     29  C   UNL     1       4.004  10.634   1.378  0.00  0.00    +0.210 C 
ATOM     30  O   UNL     1       4.679  11.421   0.717  0.00  0.00    -0.291 OA
BRANCH  29  31
ATOM     31  C   UNL     1       3.275  11.248   2.534  0.00  0.00    +0.248 C 
ATOM     32  O   UNL     1       3.834  12.478   2.910  0.00  0.00    -0.212 OA
ENDBRANCH  29  31
ENDBRANCH   4  29
TORSDOF 2
ENDMDL
MODEL 6
REMARK VINA RESULT:      -6.6      1.952      3.622
REMARK  Name = 
REMARK  2 active torsions:
REMARK  status: ('A' for Active; 'I' for Inactive)
REMARK    1  A    between atoms: C_27  and  C_28
REMARK    2  A    between atoms: C_28  and  C_30
REMARK                            x       y       z     vdW  Elec       q    Type
REMARK                         _______ _______ _______ _____ _____    ______ ____
ROOT
ATOM      1  C   UNL     1       4.427   4.134  -2.522  0.00  0.00    +0.061 C 
ATOM      2  C   UNL     1       4.026   4.537  -1.964  0.00  0.00    +0.188 C 
ATOM      3  O   UNL     1       4.427   5.854  -1.989  0.00  0.00    -0.330 OA
ATOM      4  C   UNL     1       3.384   6.580  -2.440  0.00  0.00    +0.173 C 
ATOM      5  C   UNL     1       2.167   5.822  -1.632  0.00  0.00    +0.149 C 
ATOM      6  C   UNL     1       1.086   5.864  -2.887  0.00  0.00    +0.033 C 
ATOM      7  C   UNL     1       2.160   5.351  -3.974  0.00  0.00    +0.008 C 
ATOM      8  C   UNL     1       1.443   6.033  -5.344  0.00  0.00    +0.036 C 
ATOM      9  C   UNL     1       2.440   5.202  -6.289  0.00  0.00    +0.168 C 
ATOM     10  C   UNL     1       3.946   5.468  -5.726  0.00  0.00    +0.182 C 
ATOM     11  C   UNL     1       3.678   6.912  -4.970  0.00  0.00    +0.038 C 
ATOM     12  O   UNL     1       4.424   6.183  -6.984  0.00  0.00    -0.220 OA
ATOM     13  F   UNL     1       2.330   3.874  -6.010  0.00  0.00    -0.237 F 
ATOM     14  C   UNL     1       2.157   5.648  -7.608  0.00  0.00    +0.066 C 
ATOM     15  C   UNL     1       0.771   5.108  -7.833  0.00  0.00    -0.003 C 
ATOM     16  C   UNL     1       0.328   5.388  -9.065  0.00  0.00    +0.036 C 
ATOM     17  C   UNL     1       1.238   5.447 -10.212  0.00  0.00    +0.195 C 
ATOM     18  C   UNL     1       2.639   5.106  -9.929  0.00  0.00    +0.038 C 
ATOM     19  O   UNL     1       0.785   5.469 -11.397  0.00  0.00    -0.287 OA
ATOM     20  C   UNL     1      -0.352   5.721  -6.830  0.00  0.00    +0.180 C 
ATOM     21  F   UNL     1      -1.301   4.582  -7.125  0.00  0.00    -0.233 F 
ATOM     22  C   UNL     1       2.168   7.142  -7.735  0.00  0.00    +0.011 C 
ATOM     23  C   UNL     1       2.952   4.953  -8.650  0.00  0.00    -0.017 C 
ATOM     24  C   UNL     1       0.246   4.943  -5.493  0.00  0.00    +0.042 C 
ATOM     25  C   UNL     1       2.965   6.739  -3.751  0.00  0.00    +0.034 C 
ATOM     26  C   UNL     1       1.920   7.867  -3.734  0.00  0.00    +0.003 C 
ATOM     27  O   UNL     1       2.671   4.437  -1.976  0.00  0.00    -0.334 OA
ATOM     28  C   UNL     1       4.671   3.939  -0.717  0.00  0.00    +0.061 C 
ENDROOT
BRANCH   4  29
ATOM     29  C   UNL     1       3.384   7.891  -1.702  0.00  0.00    +0.210 C 
ATOM     30  O   UNL     1       4.087   8.834  -2.060  0.00  0.00    -0.291 OA
BRANCH  29  31
ATOM     31  C   UNL     1       2.787   8.035  -0.336  0.00  0.00    +0.248 C 
ATOM     32  O   UNL     1       2.759   9.374   0.082  0.00  0.00    -0.212 OA
ENDBRANCH  29  31
ENDBRANCH   4  29
TORSDOF 2
ENDMDL
MODEL 7
REMARK VINA RESULT:      -6.3      2.575      6.920
REMARK  Name = 
REMARK  2 active torsions:
REMARK  status: ('A' for Active; 'I' for Inactive)
REMARK    1  A    between atoms: C_27  and  C_28
REMARK    2  A    between atoms: C_28  and  C_30
REMARK                            x       y       z     vdW  Elec       q    Type
REMARK                         _______ _______ _______ _____ _____    ______ ____
ROOT
ATOM      1  C   UNL     1       0.081   6.127  -5.970  0.00  0.00    +0.061 C 
ATOM      2  C   UNL     1       0.404   5.606  -6.479  0.00  0.00    +0.188 C 
ATOM      3  O   UNL     1       1.383   6.242  -7.209  0.00  0.00    -0.330 OA
ATOM      4  C   UNL     1       2.567   5.719  -6.828  0.00  0.00    +0.173 C 
ATOM      5  C   UNL     1       2.134   4.135  -6.724  0.00  0.00    +0.149 C 
ATOM      6  C   UNL     1       3.009   3.815  -5.354  0.00  0.00    +0.033 C 
ATOM      7  C   UNL     1       2.499   5.138  -4.588  0.00  0.00    +0.008 C 
ATOM      8  C   UNL     1       3.816   5.321  -3.544  0.00  0.00    +0.036 C 
ATOM      9  C   UNL     1       3.017   6.443  -2.719  0.00  0.00    +0.168 C 
ATOM     10  C   UNL     1       2.465   7.519  -3.811  0.00  0.00    +0.182 C 
ATOM     11  C   UNL     1       3.563   7.241  -5.013  0.00  0.00    +0.038 C 
ATOM     12  O   UNL     1       3.300   8.676  -3.277  0.00  0.00    -0.220 OA
ATOM     13  F   UNL     1       1.830   5.932  -2.290  0.00  0.00    -0.237 F 
ATOM     14  C   UNL     1       3.943   6.921  -1.754  0.00  0.00    +0.066 C 
ATOM     15  C   UNL     1       4.102   5.728  -0.851  0.00  0.00    -0.003 C 
ATOM     16  C   UNL     1       4.920   5.992   0.175  0.00  0.00    +0.036 C 
ATOM     17  C   UNL     1       4.986   7.327   0.779  0.00  0.00    +0.195 C 
ATOM     18  C   UNL     1       4.046   8.317   0.235  0.00  0.00    +0.038 C 
ATOM     19  O   UNL     1       5.571   7.506   1.890  0.00  0.00    -0.287 OA
ATOM     20  C   UNL     1       4.745   4.425  -1.579  0.00  0.00    +0.180 C 
ATOM     21  F   UNL     1       4.239   3.510  -0.487  0.00  0.00    -0.233 F 
ATOM     22  C   UNL     1       5.262   7.310  -2.351  0.00  0.00    +0.011 C 
ATOM     23  C   UNL     1       3.372   7.945  -0.845  0.00  0.00    -0.017 C 
ATOM     24  C   UNL     1       3.403   4.136  -2.510  0.00  0.00    +0.042 C 
ATOM     25  C   UNL     1       3.297   6.017  -5.689  0.00  0.00    +0.034 C 
ATOM     26  C   UNL     1       4.674   5.357  -5.878  0.00  0.00    +0.003 C 
ATOM     27  O   UNL     1       0.858   4.432  -5.966  0.00  0.00    -0.334 OA
ATOM     28  C   UNL     1      -0.772   5.438  -7.437  0.00  0.00    +0.061 C 
ENDROOT
BRANCH   4  29
ATOM     29  C   UNL     1       3.451   5.649  -8.043  0.00  0.00    +0.210 C 
ATOM     30  O   UNL     1       3.891   6.664  -8.581  0.00  0.00    -0.291 OA
BRANCH  29  31
ATOM     31  C   UNL     1       3.595   4.397  -8.851  0.00  0.00    +0.248 C 
ATOM     32  O   UNL     1       4.131   4.655 -10.122  0.00  0.00    -0.212 OA
ENDBRANCH  29  31
ENDBRANCH   4  29
TORSDOF 2
ENDMDL
MODEL 8
REMARK VINA RESULT:      -6.3      2.247      6.807
REMARK  Name = 
REMARK  2 active torsions:
REMARK  status: ('A' for Active; 'I' for Inactive)
REMARK    1  A    between atoms: C_27  and  C_28
REMARK    2  A    between atoms: C_28  and  C_30
REMARK                            x       y       z     vdW  Elec       q    Type
REMARK                         _______ _______ _______ _____ _____    ______ ____
ROOT
ATOM      1  C   UNL     1       1.722   7.579  -7.931  0.00  0.00    +0.061 C 
ATOM      2  C   UNL     1       1.760   6.858  -8.268  0.00  0.00    +0.188 C 
ATOM      3  O   UNL     1       3.077   6.560  -8.538  0.00  0.00    -0.330 OA
ATOM      4  C   UNL     1       3.435   5.555  -7.712  0.00  0.00    +0.173 C 
ATOM      5  C   UNL     1       2.067   4.644  -7.796  0.00  0.00    +0.149 C 
ATOM      6  C   UNL     1       2.041   4.239  -6.190  0.00  0.00    +0.033 C 
ATOM      7  C   UNL     1       2.320   5.746  -5.692  0.00  0.00    +0.008 C 
ATOM      8  C   UNL     1       3.029   5.369  -4.205  0.00  0.00    +0.036 C 
ATOM      9  C   UNL     1       2.958   6.913  -3.771  0.00  0.00    +0.168 C 
ATOM     10  C   UNL     1       3.617   7.771  -4.990  0.00  0.00    +0.182 C 
ATOM     11  C   UNL     1       4.562   6.586  -5.646  0.00  0.00    +0.038 C 
ATOM     12  O   UNL     1       4.787   8.285  -4.161  0.00  0.00    -0.220 OA
ATOM     13  F   UNL     1       1.672   7.352  -3.860  0.00  0.00    -0.237 F 
ATOM     14  C   UNL     1       3.614   6.974  -2.512  0.00  0.00    +0.066 C 
ATOM     15  C   UNL     1       2.666   6.215  -1.625  0.00  0.00    -0.003 C 
ATOM     16  C   UNL     1       3.089   6.194  -0.355  0.00  0.00    +0.036 C 
ATOM     17  C   UNL     1       3.823   7.322   0.227  0.00  0.00    +0.195 C 
ATOM     18  C   UNL     1       3.989   8.491  -0.648  0.00  0.00    +0.038 C 
ATOM     19  O   UNL     1       4.003   7.398   1.480  0.00  0.00    -0.287 OA
ATOM     20  C   UNL     1       2.480   4.652  -2.034  0.00  0.00    +0.180 C 
ATOM     21  F   UNL     1       1.197   4.551  -1.242  0.00  0.00    -0.233 F 
ATOM     22  C   UNL     1       4.963   6.320  -2.524  0.00  0.00    +0.011 C 
ATOM     23  C   UNL     1       3.611   8.329  -1.909  0.00  0.00    -0.017 C 
ATOM     24  C   UNL     1       1.650   4.993  -3.429  0.00  0.00    +0.042 C 
ATOM     25  C   UNL     1       3.785   5.642  -6.375  0.00  0.00    +0.034 C 
ATOM     26  C   UNL     1       4.362   4.268  -5.992  0.00  0.00    +0.003 C 
ATOM     27  O   UNL     1       1.148   5.833  -7.618  0.00  0.00    -0.334 OA
ATOM     28  C   UNL     1       1.131   7.184  -9.619  0.00  0.00    +0.061 C 
ENDROOT
BRANCH   4  29
ATOM     29  C   UNL     1       4.373   4.653  -8.466  0.00  0.00    +0.210 C 
ATOM     30  O   UNL     1       4.005   3.570  -8.917  0.00  0.00    -0.291 OA
BRANCH  29  31
ATOM     31  C   UNL     1       5.857   4.856  -8.450  0.00  0.00    +0.248 C 
ATOM     32  O   UNL     1       6.261   5.824  -9.382  0.00  0.00    -0.212 OA
ENDBRANCH  29  31
ENDBRANCH   4  29
TORSDOF 2
ENDMDL
MODEL 9
REMARK VINA RESULT:      -6.2      3.524      5.822
REMARK  Name = 
REMARK  2 active torsions:
REMARK  status: ('A' for Active; 'I' for Inactive)
REMARK    1  A    between atoms: C_27  and  C_28
REMARK    2  A    between atoms: C_28  and  C_30
REMARK                            x       y       z     vdW  Elec       q    Type
REMARK                         _______ _______ _______ _____ _____    ______ ____
ROOT
ATOM      1  C   UNL     1       2.167   7.794  -8.249  0.00  0.00    +0.061 C 
ATOM      2  C   UNL     1       2.354   7.299  -7.653  0.00  0.00    +0.188 C 
ATOM      3  O   UNL     1       1.787   6.069  -7.898  0.00  0.00    -0.330 OA
ATOM      4  C   UNL     1       2.795   5.209  -8.155  0.00  0.00    +0.173 C 
ATOM      5  C   UNL     1       3.868   5.712  -7.014  0.00  0.00    +0.149 C 
ATOM      6  C   UNL     1       5.210   5.567  -7.976  0.00  0.00    +0.033 C 
ATOM      7  C   UNL     1       4.525   6.309  -9.232  0.00  0.00    +0.008 C 
ATOM      8  C   UNL     1       5.455   5.599 -10.452  0.00  0.00    +0.036 C 
ATOM      9  C   UNL     1       4.854   6.635 -11.522  0.00  0.00    +0.168 C 
ATOM     10  C   UNL     1       3.233   6.585 -11.360  0.00  0.00    +0.182 C 
ATOM     11  C   UNL     1       3.095   5.075 -10.704  0.00  0.00    +0.038 C 
ATOM     12  O   UNL     1       2.986   6.030 -12.758  0.00  0.00    -0.220 OA
ATOM     13  F   UNL     1       5.081   7.909 -11.100  0.00  0.00    -0.237 F 
ATOM     14  C   UNL     1       5.389   6.225 -12.773  0.00  0.00    +0.066 C 
ATOM     15  C   UNL     1       6.850   6.545 -12.611  0.00  0.00    -0.003 C 
ATOM     16  C   UNL     1       7.542   6.268 -13.723  0.00  0.00    +0.036 C 
ATOM     17  C   UNL     1       6.946   6.423 -15.054  0.00  0.00    +0.195 C 
ATOM     18  C   UNL     1       5.583   6.970 -15.080  0.00  0.00    +0.038 C 
ATOM     19  O   UNL     1       7.672   6.396 -16.094  0.00  0.00    -0.287 OA
ATOM     20  C   UNL     1       7.589   5.701 -11.434  0.00  0.00    +0.180 C 
ATOM     21  F   UNL     1       8.734   6.685 -11.385  0.00  0.00    -0.233 F 
ATOM     22  C   UNL     1       5.196   4.763 -13.041  0.00  0.00    +0.011 C 
ATOM     23  C   UNL     1       4.987   7.099 -13.902  0.00  0.00    -0.017 C 
ATOM     24  C   UNL     1       6.795   6.488 -10.208  0.00  0.00    +0.042 C 
ATOM     25  C   UNL     1       3.499   5.061  -9.339  0.00  0.00    +0.034 C 
ATOM     26  C   UNL     1       4.334   3.778  -9.183  0.00  0.00    +0.003 C 
ATOM     27  O   UNL     1       3.670   7.179  -7.334  0.00  0.00    -0.334 OA
ATOM     28  C   UNL     1       1.513   7.922  -6.543  0.00  0.00    +0.061 C 
ENDROOT
BRANCH   4  29
ATOM     29  C   UNL     1       2.423   3.876  -7.568  0.00  0.00    +0.210 C 
ATOM     30  O   UNL     1       2.088   2.928  -8.276  0.00  0.00    -0.291 OA
BRANCH  29  31
ATOM     31  C   UNL     1       2.135   3.702  -6.108  0.00  0.00    +0.248 C 
ATOM     32  O   UNL     1       0.810   4.038  -5.794  0.00  0.00    -0.212 OA
ENDBRANCH  29  31
ENDBRANCH   4  29
TORSDOF 2
ENDMDL
