MODEL 1
REMARK VINA RESULT:      -7.1      0.000      0.000
REMARK  Name = 
REMARK  2 active torsions:
REMARK  status: ('A' for Active; 'I' for Inactive)
REMARK    1  A    between atoms: N_2  and  C_3
REMARK    2  A    between atoms: C_11  and  C_12
REMARK                            x       y       z     vdW  Elec       q    Type
REMARK                         _______ _______ _______ _____ _____    ______ ____
ROOT
ATOM      1  C   UNL     1       1.134   5.535 -10.424  0.00  0.00    +0.078 C 
ATOM      2  C   UNL     1       2.503   6.194 -11.052  0.00  0.00    +0.045 C 
ATOM      3  C   UNL     1       3.610   5.619 -10.226  0.00  0.00    -0.006 A 
ATOM      4  C   UNL     1       3.477   5.402  -8.865  0.00  0.00    +0.055 A 
ATOM      5  N   UNL     1       4.691   5.403  -8.282  0.00  0.00    -0.250 NA
ATOM      6  C   UNL     1       5.602   5.601  -9.236  0.00  0.00    +0.081 A 
ATOM      7  C   UNL     1       6.981   5.717  -9.199  0.00  0.00    +0.019 A 
ATOM      8  C   UNL     1       7.744   5.583 -10.342  0.00  0.00    +0.006 A 
ATOM      9  C   UNL     1       7.081   5.299 -11.531  0.00  0.00    +0.057 A 
ATOM     10  C   UNL     1       5.706   5.404 -11.614  0.00  0.00    +0.006 A 
ATOM     11  C   UNL     1       2.156   5.456  -8.183  0.00  0.00    +0.047 C 
ATOM     12  C   UNL     1       4.956   5.521 -10.456  0.00  0.00    +0.015 A 
ATOM     13  C   UNL     1       1.292   6.381  -9.025  0.00  0.00    +0.024 C 
ENDROOT
BRANCH   9  14
ATOM     14  C   UNL     1       7.833   5.557 -12.748  0.00  0.00    +0.284 C 
ATOM     15  O   UNL     1       8.984   6.012 -12.631  0.00  0.00    -0.267 OA
ATOM     16  N   UNL     1       7.379   5.153 -14.018  0.00  0.00    -0.084 NA
ENDBRANCH   9  14
BRANCH   1  18
ATOM     17  C   UNL     1       0.509   6.613 -12.079  0.00  0.00    +0.107 C 
ATOM     18  N   UNL     1       0.226   6.655 -11.062  0.00  0.00    -0.218 NA
ENDBRANCH   1  18
TORSDOF 2
ENDMDL
MODEL 2
REMARK VINA RESULT:      -7.1      2.664      5.596
REMARK  Name = 
REMARK  2 active torsions:
REMARK  status: ('A' for Active; 'I' for Inactive)
REMARK    1  A    between atoms: N_2  and  C_3
REMARK    2  A    between atoms: C_11  and  C_12
REMARK                            x       y       z     vdW  Elec       q    Type
REMARK                         _______ _______ _______ _____ _____    ______ ____
ROOT
ATOM      1  C   UNL     1       7.058   6.751 -13.337  0.00  0.00    +0.078 C 
ATOM      2  C   UNL     1       5.676   6.223 -12.620  0.00  0.00    +0.045 C 
ATOM      3  C   UNL     1       5.976   6.260 -11.155  0.00  0.00    -0.006 A 
ATOM      4  C   UNL     1       7.220   5.925 -10.648  0.00  0.00    +0.055 A 
ATOM      5  N   UNL     1       7.099   5.525  -9.368  0.00  0.00    -0.250 NA
ATOM      6  C   UNL     1       5.811   5.607  -9.034  0.00  0.00    +0.081 A 
ATOM      7  C   UNL     1       5.127   5.301  -7.870  0.00  0.00    +0.019 A 
ATOM      8  C   UNL     1       3.853   5.780  -7.637  0.00  0.00    +0.006 A 
ATOM      9  C   UNL     1       3.289   6.606  -8.602  0.00  0.00    +0.057 A 
ATOM     10  C   UNL     1       3.867   6.730  -9.850  0.00  0.00    +0.006 A 
ATOM     11  C   UNL     1       8.415   5.780 -11.523  0.00  0.00    +0.047 C 
ATOM     12  C   UNL     1       5.152   6.260 -10.061  0.00  0.00    +0.015 A 
ATOM     13  C   UNL     1       7.880   5.400 -12.895  0.00  0.00    +0.024 C 
ENDROOT
BRANCH   9  14
ATOM     14  C   UNL     1       1.845   6.762  -8.530  0.00  0.00    +0.284 C 
ATOM     15  O   UNL     1       1.256   7.175  -9.543  0.00  0.00    -0.267 OA
ATOM     16  N   UNL     1       1.088   6.302  -7.435  0.00  0.00    -0.084 NA
ENDBRANCH   9  14
BRANCH   1  18
ATOM     17  C   UNL     1       5.924   6.796 -15.070  0.00  0.00    +0.107 C 
ATOM     18  N   UNL     1       6.655   6.117 -14.724  0.00  0.00    -0.218 NA
ENDBRANCH   1  18
TORSDOF 2
ENDMDL
MODEL 3
REMARK VINA RESULT:      -7.0      2.372      5.754
REMARK  Name = 
REMARK  2 active torsions:
REMARK  status: ('A' for Active; 'I' for Inactive)
REMARK    1  A    between atoms: N_2  and  C_3
REMARK    2  A    between atoms: C_11  and  C_12
REMARK                            x       y       z     vdW  Elec       q    Type
REMARK                         _______ _______ _______ _____ _____    ______ ____
ROOT
ATOM      1  C   UNL     1       7.370   6.794 -11.394  0.00  0.00    +0.078 C 
ATOM      2  C   UNL     1       5.950   6.074 -11.803  0.00  0.00    +0.045 C 
ATOM      3  C   UNL     1       5.239   5.879 -10.502  0.00  0.00    -0.006 A 
ATOM      4  C   UNL     1       5.908   5.535  -9.340  0.00  0.00    +0.055 A 
ATOM      5  N   UNL     1       5.063   4.917  -8.492  0.00  0.00    -0.250 NA
ATOM      6  C   UNL     1       3.865   4.868  -9.074  0.00  0.00    +0.081 A 
ATOM      7  C   UNL     1       2.654   4.330  -8.672  0.00  0.00    +0.019 A 
ATOM      8  C   UNL     1       1.469   4.689  -9.283  0.00  0.00    +0.006 A 
ATOM      9  C   UNL     1       1.530   5.634 -10.301  0.00  0.00    +0.057 A 
ATOM     10  C   UNL     1       2.742   6.000 -10.852  0.00  0.00    +0.006 A 
ATOM     11  C   UNL     1       7.391   5.608  -9.233  0.00  0.00    +0.047 C 
ATOM     12  C   UNL     1       3.920   5.646 -10.216  0.00  0.00    +0.015 A 
ATOM     13  C   UNL     1       7.918   5.436 -10.648  0.00  0.00    +0.024 C 
ENDROOT
BRANCH   9  14
ATOM     14  C   UNL     1       0.369   5.692 -11.175  0.00  0.00    +0.284 C 
ATOM     15  O   UNL     1      -0.124   4.617 -11.556  0.00  0.00    -0.267 OA
ATOM     16  N   UNL     1      -0.308   6.895 -11.454  0.00  0.00    -0.084 NA
ENDBRANCH   9  14
BRANCH   1  18
ATOM     17  C   UNL     1       8.870   5.810 -12.429  0.00  0.00    +0.107 C 
ATOM     18  N   UNL     1       8.045   6.383 -12.757  0.00  0.00    -0.218 NA
ENDBRANCH   1  18
TORSDOF 2
ENDMDL
MODEL 4
REMARK VINA RESULT:      -7.0      6.049      9.319
REMARK  Name = 
REMARK  2 active torsions:
REMARK  status: ('A' for Active; 'I' for Inactive)
REMARK    1  A    between atoms: N_2  and  C_3
REMARK    2  A    between atoms: C_11  and  C_12
REMARK                            x       y       z     vdW  Elec       q    Type
REMARK                         _______ _______ _______ _____ _____    ______ ____
ROOT
ATOM      1  C   UNL     1       4.142   5.155  -4.809  0.00  0.00    +0.078 C 
ATOM      2  C   UNL     1       2.802   5.916  -4.234  0.00  0.00    +0.045 C 
ATOM      3  C   UNL     1       1.689   5.422  -5.103  0.00  0.00    -0.006 A 
ATOM      4  C   UNL     1       1.856   5.192  -6.458  0.00  0.00    +0.055 A 
ATOM      5  N   UNL     1       0.669   5.281  -7.086  0.00  0.00    -0.250 NA
ATOM      6  C   UNL     1      -0.260   5.549  -6.168  0.00  0.00    +0.081 A 
ATOM      7  C   UNL     1      -1.624   5.766  -6.257  0.00  0.00    +0.019 A 
ATOM      8  C   UNL     1      -2.438   5.693  -5.144  0.00  0.00    +0.006 A 
ATOM      9  C   UNL     1      -1.844   5.364  -3.931  0.00  0.00    +0.057 A 
ATOM     10  C   UNL     1      -0.470   5.368  -3.796  0.00  0.00    +0.006 A 
ATOM     11  C   UNL     1       3.204   5.146  -7.088  0.00  0.00    +0.047 C 
ATOM     12  C   UNL     1       0.331   5.425  -4.924  0.00  0.00    +0.015 A 
ATOM     13  C   UNL     1       4.101   6.007  -6.214  0.00  0.00    +0.024 C 
ENDROOT
BRANCH   9  14
ATOM     14  C   UNL     1      -2.621   5.681  -2.744  0.00  0.00    +0.284 C 
ATOM     15  O   UNL     1      -2.437   4.987  -1.730  0.00  0.00    -0.267 OA
ATOM     16  N   UNL     1      -3.429   6.831  -2.654  0.00  0.00    -0.084 NA
ENDBRANCH   9  14
BRANCH   1  18
ATOM     17  C   UNL     1       4.747   7.118  -4.537  0.00  0.00    +0.107 C 
ATOM     18  N   UNL     1       5.105   6.207  -4.137  0.00  0.00    -0.218 NA
ENDBRANCH   1  18
TORSDOF 2
ENDMDL
MODEL 5
REMARK VINA RESULT:      -7.0      2.084      3.762
REMARK  Name = 
REMARK  2 active torsions:
REMARK  status: ('A' for Active; 'I' for Inactive)
REMARK    1  A    between atoms: N_2  and  C_3
REMARK    2  A    between atoms: C_11  and  C_12
REMARK                            x       y       z     vdW  Elec       q    Type
REMARK                         _______ _______ _______ _____ _____    ______ ____
ROOT
ATOM      1  C   UNL     1       3.972   6.218  -6.110  0.00  0.00    +0.078 C 
ATOM      2  C   UNL     1       4.750   5.368  -7.283  0.00  0.00    +0.045 C 
ATOM      3  C   UNL     1       4.261   5.965  -8.565  0.00  0.00    -0.006 A 
ATOM      4  C   UNL     1       2.953   6.386  -8.732  0.00  0.00    +0.055 A 
ATOM      5  N   UNL     1       2.632   6.371 -10.040  0.00  0.00    -0.250 NA
ATOM      6  C   UNL     1       3.705   5.966 -10.719  0.00  0.00    +0.081 A 
ATOM      7  C   UNL     1       3.927   5.747 -12.068  0.00  0.00    +0.019 A 
ATOM      8  C   UNL     1       5.206   5.653 -12.580  0.00  0.00    +0.006 A 
ATOM      9  C   UNL     1       6.267   5.816 -11.697  0.00  0.00    +0.057 A 
ATOM     10  C   UNL     1       6.056   5.810 -10.333  0.00  0.00    +0.006 A 
ATOM     11  C   UNL     1       2.021   6.536  -7.581  0.00  0.00    +0.047 C 
ATOM     12  C   UNL     1       4.768   5.921  -9.836  0.00  0.00    +0.015 A 
ATOM     13  C   UNL     1       2.517   5.571  -6.516  0.00  0.00    +0.024 C 
ENDROOT
BRANCH   9  14
ATOM     14  C   UNL     1       7.554   5.326 -12.165  0.00  0.00    +0.284 C 
ATOM     15  O   UNL     1       7.567   4.611 -13.181  0.00  0.00    -0.267 OA
ATOM     16  N   UNL     1       8.775   5.769 -11.620  0.00  0.00    -0.084 NA
ENDBRANCH   9  14
BRANCH   1  18
ATOM     17  C   UNL     1       4.416   5.661  -4.164  0.00  0.00    +0.107 C 
ATOM     18  N   UNL     1       4.232   5.093  -5.036  0.00  0.00    -0.218 NA
ENDBRANCH   1  18
TORSDOF 2
ENDMDL
MODEL 6
REMARK VINA RESULT:      -6.9      5.405      8.214
REMARK  Name = 
REMARK  2 active torsions:
REMARK  status: ('A' for Active; 'I' for Inactive)
REMARK    1  A    between atoms: N_2  and  C_3
REMARK    2  A    between atoms: C_11  and  C_12
REMARK                            x       y       z     vdW  Elec       q    Type
REMARK                         _______ _______ _______ _____ _____    ______ ____
ROOT
ATOM      1  C   UNL     1       0.444   6.122  -9.674  0.00  0.00    +0.078 C 
ATOM      2  C   UNL     1      -0.078   5.307  -8.344  0.00  0.00    +0.045 C 
ATOM      3  C   UNL     1       0.418   6.118  -7.189  0.00  0.00    -0.006 A 
ATOM      4  C   UNL     1       1.650   6.750  -7.205  0.00  0.00    +0.055 A 
ATOM      5  N   UNL     1       2.083   6.938  -5.944  0.00  0.00    -0.250 NA
ATOM      6  C   UNL     1       1.154   6.457  -5.118  0.00  0.00    +0.081 A 
ATOM      7  C   UNL     1       1.091   6.367  -3.738  0.00  0.00    +0.019 A 
ATOM      8  C   UNL     1      -0.105   6.141  -3.086  0.00  0.00    +0.006 A 
ATOM      9  C   UNL     1      -1.253   6.035  -3.864  0.00  0.00    +0.057 A 
ATOM     10  C   UNL     1      -1.165   5.901  -5.235  0.00  0.00    +0.006 A 
ATOM     11  C   UNL     1       2.440   6.904  -8.457  0.00  0.00    +0.047 C 
ATOM     12  C   UNL     1       0.038   6.148  -5.874  0.00  0.00    +0.015 A 
ATOM     13  C   UNL     1       2.015   5.757  -9.360  0.00  0.00    +0.024 C 
ENDROOT
BRANCH   9  14
ATOM     14  C   UNL     1      -2.396   5.414  -3.216  0.00  0.00    +0.284 C 
ATOM     15  O   UNL     1      -3.317   4.998  -3.940  0.00  0.00    -0.267 OA
ATOM     16  N   UNL     1      -2.416   5.116  -1.839  0.00  0.00    -0.084 NA
ENDBRANCH   9  14
BRANCH   1  18
ATOM     17  C   UNL     1       0.217   5.286 -11.556  0.00  0.00    +0.107 C 
ATOM     18  N   UNL     1       0.277   4.853 -10.594  0.00  0.00    -0.218 NA
ENDBRANCH   1  18
TORSDOF 2
ENDMDL
MODEL 7
REMARK VINA RESULT:      -6.9      1.732      2.346
REMARK  Name = 
REMARK  2 active torsions:
REMARK  status: ('A' for Active; 'I' for Inactive)
REMARK    1  A    between atoms: N_2  and  C_3
REMARK    2  A    between atoms: C_11  and  C_12
REMARK                            x       y       z     vdW  Elec       q    Type
REMARK                         _______ _______ _______ _____ _____    ______ ____
ROOT
ATOM      1  C   UNL     1       2.754   5.624  -8.977  0.00  0.00    +0.078 C 
ATOM      2  C   UNL     1       3.509   6.492 -10.151  0.00  0.00    +0.045 C 
ATOM      3  C   UNL     1       4.880   5.900 -10.234  0.00  0.00    -0.006 A 
ATOM      4  C   UNL     1       5.565   5.465  -9.113  0.00  0.00    +0.055 A 
ATOM      5  N   UNL     1       6.890   5.486  -9.350  0.00  0.00    -0.250 NA
ATOM      6  C   UNL     1       7.074   5.909 -10.601  0.00  0.00    +0.081 A 
ATOM      7  C   UNL     1       8.216   6.142 -11.348  0.00  0.00    +0.019 A 
ATOM      8  C   UNL     1       8.164   6.255 -12.724  0.00  0.00    +0.006 A 
ATOM      9  C   UNL     1       6.927   6.098 -13.337  0.00  0.00    +0.057 A 
ATOM     10  C   UNL     1       5.765   6.091 -12.590  0.00  0.00    +0.006 A 
ATOM     11  C   UNL     1       4.892   5.294  -7.796  0.00  0.00    +0.047 C 
ATOM     12  C   UNL     1       5.835   5.960 -11.213  0.00  0.00    +0.015 A 
ATOM     13  C   UNL     1       3.715   6.255  -7.803  0.00  0.00    +0.024 C 
ENDROOT
BRANCH   9  14
ATOM     14  C   UNL     1       6.830   6.607 -14.696  0.00  0.00    +0.284 C 
ATOM     15  O   UNL     1       7.135   5.840 -15.625  0.00  0.00    -0.267 OA
ATOM     16  N   UNL     1       6.247   7.854 -14.996  0.00  0.00    -0.084 NA
ENDBRANCH   9  14
BRANCH   1  18
ATOM     17  C   UNL     1       1.047   6.612  -9.609  0.00  0.00    +0.107 C 
ATOM     18  N   UNL     1       1.665   6.742  -8.761  0.00  0.00    -0.218 NA
ENDBRANCH   1  18
TORSDOF 2
ENDMDL
MODEL 8
REMARK VINA RESULT:      -6.8      5.841      8.312
REMARK  Name = 
REMARK  2 active torsions:
REMARK  status: ('A' for Active; 'I' for Inactive)
REMARK    1  A    between atoms: N_2  and  C_3
REMARK    2  A    between atoms: C_11  and  C_12
REMARK                            x       y       z     vdW  Elec       q    Type
REMARK                         _______ _______ _______ _____ _____    ______ ____
ROOT
ATOM      1  C   UNL     1      -1.854   6.788  -1.784  0.00  0.00    +0.078 C 
ATOM      2  C   UNL     1      -0.572   6.304  -2.693  0.00  0.00    +0.045 C 
ATOM      3  C   UNL     1      -1.086   6.308  -4.098  0.00  0.00    -0.006 A 
ATOM      4  C   UNL     1      -2.376   5.917  -4.413  0.00  0.00    +0.055 A 
ATOM      5  N   UNL     1      -2.428   5.504  -5.693  0.00  0.00    -0.250 NA
ATOM      6  C   UNL     1      -1.207   5.632  -6.214  0.00  0.00    +0.081 A 
ATOM      7  C   UNL     1      -0.690   5.336  -7.463  0.00  0.00    +0.019 A 
ATOM      8  C   UNL     1       0.515   5.861  -7.885  0.00  0.00    +0.006 A 
ATOM      9  C   UNL     1       1.181   6.724  -7.022  0.00  0.00    +0.057 A 
ATOM     10  C   UNL     1       0.787   6.843  -5.703  0.00  0.00    +0.006 A 
ATOM     11  C   UNL     1      -3.422   5.738  -3.369  0.00  0.00    +0.047 C 
ATOM     12  C   UNL     1      -0.433   6.325  -5.301  0.00  0.00    +0.015 A 
ATOM     13  C   UNL     1      -2.676   5.399  -2.089  0.00  0.00    +0.024 C 
ENDROOT
BRANCH   9  14
ATOM     14  C   UNL     1       2.590   6.935  -7.307  0.00  0.00    +0.284 C 
ATOM     15  O   UNL     1       3.288   7.460  -6.423  0.00  0.00    -0.267 OA
ATOM     16  N   UNL     1       3.215   6.416  -8.458  0.00  0.00    -0.084 NA
ENDBRANCH   9  14
BRANCH   1  18
ATOM     17  C   UNL     1      -0.472   6.897  -0.244  0.00  0.00    +0.107 C 
ATOM     18  N   UNL     1      -1.226   6.191  -0.467  0.00  0.00    -0.218 NA
ENDBRANCH   1  18
TORSDOF 2
ENDMDL
MODEL 9
REMARK VINA RESULT:      -6.8      6.607      8.399
REMARK  Name = 
REMARK  2 active torsions:
REMARK  status: ('A' for Active; 'I' for Inactive)
REMARK    1  A    between atoms: N_2  and  C_3
REMARK    2  A    between atoms: C_11  and  C_12
REMARK                            x       y       z     vdW  Elec       q    Type
REMARK                         _______ _______ _______ _____ _____    ______ ____
ROOT
ATOM      1  C   UNL     1      -1.869   6.321  -4.590  0.00  0.00    +0.078 C 
ATOM      2  C   UNL     1      -0.824   5.459  -3.658  0.00  0.00    +0.045 C 
ATOM      3  C   UNL     1       0.519   5.718  -4.263  0.00  0.00    -0.006 A 
ATOM      4  C   UNL     1       0.704   5.830  -5.631  0.00  0.00    +0.055 A 
ATOM      5  N   UNL     1       1.978   5.528  -5.946  0.00  0.00    -0.250 NA
ATOM      6  C   UNL     1       2.621   5.239  -4.814  0.00  0.00    +0.081 A 
ATOM      7  C   UNL     1       3.922   4.843  -4.556  0.00  0.00    +0.019 A 
ATOM      8  C   UNL     1       4.460   4.925  -3.287  0.00  0.00    +0.006 A 
ATOM      9  C   UNL     1       3.657   5.447  -2.279  0.00  0.00    +0.057 A 
ATOM     10  C   UNL     1       2.303   5.631  -2.480  0.00  0.00    +0.006 A 
ATOM     11  C   UNL     1      -0.441   5.982  -6.570  0.00  0.00    +0.047 C 
ATOM     12  C   UNL     1       1.784   5.562  -3.761  0.00  0.00    +0.015 A 
ATOM     13  C   UNL     1      -1.631   5.333  -5.882  0.00  0.00    +0.024 C 
ENDROOT
BRANCH   9  14
ATOM     14  C   UNL     1       4.085   5.156  -0.920  0.00  0.00    +0.284 C 
ATOM     15  O   UNL     1       4.431   3.991  -0.659  0.00  0.00    -0.267 OA
ATOM     16  N   UNL     1       4.284   6.164   0.043  0.00  0.00    -0.084 NA
ENDBRANCH   9  14
BRANCH   1  18
ATOM     17  C   UNL     1      -2.911   5.380  -3.067  0.00  0.00    +0.107 C 
ATOM     18  N   UNL     1      -3.104   5.472  -4.101  0.00  0.00    -0.218 NA
ENDBRANCH   1  18
TORSDOF 2
ENDMDL
