MODEL 1
REMARK VINA RESULT:      -5.9      0.000      0.000
REMARK  Name = 
REMARK  2 active torsions:
REMARK  status: ('A' for Active; 'I' for Inactive)
REMARK    1  A    between atoms: N_4  and  S_5
REMARK    2  A    between atoms: S_5  and  C_8
REMARK                            x       y       z     vdW  Elec       q    Type
REMARK                         _______ _______ _______ _____ _____    ______ ____
ROOT
ATOM      1  S   UNL     1       3.805   5.354  -8.574  0.00  0.00    +0.103 S 
ATOM      2  O   UNL     1       3.247   3.948  -8.568  0.00  0.00    -0.146 OA
ATOM      3  O   UNL     1       2.696   6.317  -8.875  0.00  0.00    -0.146 OA
ENDROOT
BRANCH   1   4
ATOM      4  C   UNL     1       4.955   5.413  -9.877  0.00  0.00    +0.129 A 
ATOM      5  C   UNL     1       6.272   5.716  -9.550  0.00  0.00    +0.022 A 
ATOM      6  C   UNL     1       7.231   5.844 -10.547  0.00  0.00    +0.019 A 
ATOM      7  C   UNL     1       6.897   5.398 -11.820  0.00  0.00    +0.089 A 
ATOM      8  N   UNL     1       7.848   4.730 -12.658  0.00  0.00    -0.128 NA
ATOM      9  C   UNL     1       5.553   5.438 -12.145  0.00  0.00    +0.019 A 
ATOM     10  C   UNL     1       4.595   5.727 -11.182  0.00  0.00    +0.022 A 
ENDBRANCH   1   4
BRANCH   1  13
ATOM     11  C   UNL     1       4.571   4.937  -4.724  0.00  0.00    +0.101 C 
ATOM     12  C   UNL     1       3.872   5.426  -5.955  0.00  0.00    +0.274 C 
ATOM     13  N   UNL     1       4.501   5.703  -7.049  0.00  0.00    -0.090 NA
ATOM     14  O   UNL     1       2.501   5.629  -5.968  0.00  0.00    -0.269 OA
ENDBRANCH   1  13
TORSDOF 2
ENDMDL
MODEL 2
REMARK VINA RESULT:      -5.9      2.439      3.348
REMARK  Name = 
REMARK  2 active torsions:
REMARK  status: ('A' for Active; 'I' for Inactive)
REMARK    1  A    between atoms: N_4  and  S_5
REMARK    2  A    between atoms: S_5  and  C_8
REMARK                            x       y       z     vdW  Elec       q    Type
REMARK                         _______ _______ _______ _____ _____    ______ ____
ROOT
ATOM      1  S   UNL     1       3.419   5.842  -9.511  0.00  0.00    +0.103 S 
ATOM      2  O   UNL     1       3.175   6.840  -8.402  0.00  0.00    -0.146 OA
ATOM      3  O   UNL     1       3.397   4.458  -8.935  0.00  0.00    -0.146 OA
ENDROOT
BRANCH   1   4
ATOM      4  C   UNL     1       5.019   6.164 -10.109  0.00  0.00    +0.129 A 
ATOM      5  C   UNL     1       6.087   5.652  -9.380  0.00  0.00    +0.022 A 
ATOM      6  C   UNL     1       7.394   5.924  -9.762  0.00  0.00    +0.019 A 
ATOM      7  C   UNL     1       7.592   6.478 -11.021  0.00  0.00    +0.089 A 
ATOM      8  N   UNL     1       8.701   6.100 -11.845  0.00  0.00    -0.128 NA
ATOM      9  C   UNL     1       6.553   7.244 -11.519  0.00  0.00    +0.019 A 
ATOM     10  C   UNL     1       5.325   7.285 -10.872  0.00  0.00    +0.022 A 
ENDBRANCH   1   4
BRANCH   1  13
ATOM     11  C   UNL     1       0.050   7.075 -11.158  0.00  0.00    +0.101 C 
ATOM     12  C   UNL     1       0.971   6.184 -10.384  0.00  0.00    +0.274 C 
ATOM     13  N   UNL     1       2.209   6.009 -10.711  0.00  0.00    -0.090 NA
ATOM     14  O   UNL     1       0.524   5.476  -9.279  0.00  0.00    -0.269 OA
ENDBRANCH   1  13
TORSDOF 2
ENDMDL
MODEL 3
REMARK VINA RESULT:      -5.9      2.539      3.326
REMARK  Name = 
REMARK  2 active torsions:
REMARK  status: ('A' for Active; 'I' for Inactive)
REMARK    1  A    between atoms: N_4  and  S_5
REMARK    2  A    between atoms: S_5  and  C_8
REMARK                            x       y       z     vdW  Elec       q    Type
REMARK                         _______ _______ _______ _____ _____    ______ ____
ROOT
ATOM      1  S   UNL     1       2.641   6.985  -7.181  0.00  0.00    +0.103 S 
ATOM      2  O   UNL     1       2.014   8.200  -7.828  0.00  0.00    -0.146 OA
ATOM      3  O   UNL     1       3.259   7.392  -5.877  0.00  0.00    -0.146 OA
ENDROOT
BRANCH   1   4
ATOM      4  C   UNL     1       3.909   6.467  -8.252  0.00  0.00    +0.129 A 
ATOM      5  C   UNL     1       3.757   6.751  -9.604  0.00  0.00    +0.022 A 
ATOM      6  C   UNL     1       4.698   6.311 -10.525  0.00  0.00    +0.019 A 
ATOM      7  C   UNL     1       5.904   5.830 -10.030  0.00  0.00    +0.089 A 
ATOM      8  N   UNL     1       7.149   6.094 -10.690  0.00  0.00    -0.128 NA
ATOM      9  C   UNL     1       5.864   5.274  -8.765  0.00  0.00    +0.019 A 
ATOM     10  C   UNL     1       4.723   5.373  -7.979  0.00  0.00    +0.022 A 
ENDBRANCH   1   4
BRANCH   1  13
ATOM     11  C   UNL     1      -0.975   5.415  -6.981  0.00  0.00    +0.101 C 
ATOM     12  C   UNL     1       0.266   6.106  -6.507  0.00  0.00    +0.274 C 
ATOM     13  N   UNL     1       1.445   5.786  -6.928  0.00  0.00    -0.090 NA
ATOM     14  O   UNL     1       0.207   7.118  -5.562  0.00  0.00    -0.269 OA
ENDBRANCH   1  13
TORSDOF 2
ENDMDL
MODEL 4
REMARK VINA RESULT:      -5.8      4.880      8.020
REMARK  Name = 
REMARK  2 active torsions:
REMARK  status: ('A' for Active; 'I' for Inactive)
REMARK    1  A    between atoms: N_4  and  S_5
REMARK    2  A    between atoms: S_5  and  C_8
REMARK                            x       y       z     vdW  Elec       q    Type
REMARK                         _______ _______ _______ _____ _____    ______ ____
ROOT
ATOM      1  S   UNL     1       0.863   5.791  -7.449  0.00  0.00    +0.103 S 
ATOM      2  O   UNL     1       1.670   4.533  -7.215  0.00  0.00    -0.146 OA
ATOM      3  O   UNL     1       1.753   6.983  -7.264  0.00  0.00    -0.146 OA
ENDROOT
BRANCH   1   4
ATOM      4  C   UNL     1      -0.358   5.819  -6.211  0.00  0.00    +0.129 A 
ATOM      5  C   UNL     1      -1.645   5.441  -6.576  0.00  0.00    +0.022 A 
ATOM      6  C   UNL     1      -2.683   5.501  -5.656  0.00  0.00    +0.019 A 
ATOM      7  C   UNL     1      -2.346   5.682  -4.320  0.00  0.00    +0.089 A 
ATOM      8  N   UNL     1      -3.053   5.014  -3.267  0.00  0.00    -0.128 NA
ATOM      9  C   UNL     1      -1.168   6.363  -4.077  0.00  0.00    +0.019 A 
ATOM     10  C   UNL     1      -0.294   6.669  -5.113  0.00  0.00    +0.022 A 
ENDBRANCH   1   4
BRANCH   1  13
ATOM     11  C   UNL     1       0.179   4.463 -11.103  0.00  0.00    +0.101 C 
ATOM     12  C   UNL     1       0.860   5.225 -10.008  0.00  0.00    +0.274 C 
ATOM     13  N   UNL     1       0.212   5.771  -9.032  0.00  0.00    -0.090 NA
ATOM     14  O   UNL     1       2.234   5.402 -10.005  0.00  0.00    -0.269 OA
ENDBRANCH   1  13
TORSDOF 2
ENDMDL
MODEL 5
REMARK VINA RESULT:      -5.8      4.872      6.404
REMARK  Name = 
REMARK  2 active torsions:
REMARK  status: ('A' for Active; 'I' for Inactive)
REMARK    1  A    between atoms: N_4  and  S_5
REMARK    2  A    between atoms: S_5  and  C_8
REMARK                            x       y       z     vdW  Elec       q    Type
REMARK                         _______ _______ _______ _____ _____    ______ ____
ROOT
ATOM      1  S   UNL     1       2.585   7.125  -7.072  0.00  0.00    +0.103 S 
ATOM      2  O   UNL     1       2.386   8.361  -7.920  0.00  0.00    -0.146 OA
ATOM      3  O   UNL     1       3.370   6.117  -7.856  0.00  0.00    -0.146 OA
ENDROOT
BRANCH   1   4
ATOM      4  C   UNL     1       0.998   6.480  -6.777  0.00  0.00    +0.129 A 
ATOM      5  C   UNL     1       0.407   6.774  -5.554  0.00  0.00    +0.022 A 
ATOM      6  C   UNL     1      -0.832   6.240  -5.225  0.00  0.00    +0.019 A 
ATOM      7  C   UNL     1      -1.564   5.642  -6.243  0.00  0.00    +0.089 A 
ATOM      8  N   UNL     1      -2.987   5.779  -6.329  0.00  0.00    -0.128 NA
ATOM      9  C   UNL     1      -0.829   5.096  -7.280  0.00  0.00    +0.019 A 
ATOM     10  C   UNL     1       0.540   5.311  -7.374  0.00  0.00    +0.022 A 
ENDBRANCH   1   4
BRANCH   1  13
ATOM     11  C   UNL     1       5.433   7.038  -4.340  0.00  0.00    +0.101 C 
ATOM     12  C   UNL     1       4.148   6.675  -5.016  0.00  0.00    +0.274 C 
ATOM     13  N   UNL     1       3.417   7.543  -5.634  0.00  0.00    -0.090 NA
ATOM     14  O   UNL     1       3.664   5.376  -4.988  0.00  0.00    -0.269 OA
ENDBRANCH   1  13
TORSDOF 2
ENDMDL
MODEL 6
REMARK VINA RESULT:      -5.7      5.053      7.260
REMARK  Name = 
REMARK  2 active torsions:
REMARK  status: ('A' for Active; 'I' for Inactive)
REMARK    1  A    between atoms: N_4  and  S_5
REMARK    2  A    between atoms: S_5  and  C_8
REMARK                            x       y       z     vdW  Elec       q    Type
REMARK                         _______ _______ _______ _____ _____    ______ ____
ROOT
ATOM      1  S   UNL     1       1.801   6.353  -6.863  0.00  0.00    +0.103 S 
ATOM      2  O   UNL     1       1.553   6.953  -8.229  0.00  0.00    -0.146 OA
ATOM      3  O   UNL     1       2.337   4.963  -7.031  0.00  0.00    -0.146 OA
ENDROOT
BRANCH   1   4
ATOM      4  C   UNL     1       0.247   6.253  -6.089  0.00  0.00    +0.129 A 
ATOM      5  C   UNL     1      -0.750   5.545  -6.750  0.00  0.00    +0.022 A 
ATOM      6  C   UNL     1      -2.033   5.478  -6.222  0.00  0.00    +0.019 A 
ATOM      7  C   UNL     1      -2.209   5.898  -4.909  0.00  0.00    +0.089 A 
ATOM      8  N   UNL     1      -3.102   5.222  -4.015  0.00  0.00    -0.128 NA
ATOM      9  C   UNL     1      -1.324   6.858  -4.454  0.00  0.00    +0.019 A 
ATOM     10  C   UNL     1      -0.219   7.226  -5.211  0.00  0.00    +0.022 A 
ENDBRANCH   1   4
BRANCH   1  13
ATOM     11  C   UNL     1       4.985   7.214  -4.695  0.00  0.00    +0.101 C 
ATOM     12  C   UNL     1       3.562   6.851  -4.987  0.00  0.00    +0.274 C 
ATOM     13  N   UNL     1       2.917   7.325  -6.002  0.00  0.00    -0.090 NA
ATOM     14  O   UNL     1       2.854   5.999  -4.155  0.00  0.00    -0.269 OA
ENDBRANCH   1  13
TORSDOF 2
ENDMDL
MODEL 7
REMARK VINA RESULT:      -5.6      4.644      7.211
REMARK  Name = 
REMARK  2 active torsions:
REMARK  status: ('A' for Active; 'I' for Inactive)
REMARK    1  A    between atoms: N_4  and  S_5
REMARK    2  A    between atoms: S_5  and  C_8
REMARK                            x       y       z     vdW  Elec       q    Type
REMARK                         _______ _______ _______ _____ _____    ______ ____
ROOT
ATOM      1  S   UNL     1       1.901   4.808  -6.470  0.00  0.00    +0.103 S 
ATOM      2  O   UNL     1       1.645   5.100  -7.932  0.00  0.00    -0.146 OA
ATOM      3  O   UNL     1       1.930   3.323  -6.267  0.00  0.00    -0.146 OA
ENDROOT
BRANCH   1   4
ATOM      4  C   UNL     1       0.541   5.456  -5.602  0.00  0.00    +0.129 A 
ATOM      5  C   UNL     1       0.519   5.274  -4.224  0.00  0.00    +0.022 A 
ATOM      6  C   UNL     1      -0.566   5.709  -3.475  0.00  0.00    +0.019 A 
ATOM      7  C   UNL     1      -1.478   6.554  -4.096  0.00  0.00    +0.089 A 
ATOM      8  N   UNL     1      -2.091   7.645  -3.399  0.00  0.00    -0.128 NA
ATOM      9  C   UNL     1      -1.594   6.420  -5.468  0.00  0.00    +0.019 A 
ATOM     10  C   UNL     1      -0.711   5.622  -6.184  0.00  0.00    +0.022 A 
ENDBRANCH   1   4
BRANCH   1  13
ATOM     11  C   UNL     1       4.350   7.380  -4.747  0.00  0.00    +0.101 C 
ATOM     12  C   UNL     1       3.501   6.781  -5.826  0.00  0.00    +0.274 C 
ATOM     13  N   UNL     1       3.392   5.504  -5.997  0.00  0.00    -0.090 NA
ATOM     14  O   UNL     1       2.805   7.580  -6.718  0.00  0.00    -0.269 OA
ENDBRANCH   1  13
TORSDOF 2
ENDMDL
MODEL 8
REMARK VINA RESULT:      -5.6      4.203      7.345
REMARK  Name = 
REMARK  2 active torsions:
REMARK  status: ('A' for Active; 'I' for Inactive)
REMARK    1  A    between atoms: N_4  and  S_5
REMARK    2  A    between atoms: S_5  and  C_8
REMARK                            x       y       z     vdW  Elec       q    Type
REMARK                         _______ _______ _______ _____ _____    ______ ____
ROOT
ATOM      1  S   UNL     1       1.827   5.046  -7.122  0.00  0.00    +0.103 S 
ATOM      2  O   UNL     1       2.001   3.635  -6.607  0.00  0.00    -0.146 OA
ATOM      3  O   UNL     1       3.010   5.867  -6.704  0.00  0.00    -0.146 OA
ENDROOT
BRANCH   1   4
ATOM      4  C   UNL     1       0.412   5.678  -6.334  0.00  0.00    +0.129 A 
ATOM      5  C   UNL     1      -0.824   5.258  -6.811  0.00  0.00    +0.022 A 
ATOM      6  C   UNL     1      -1.996   5.771  -6.271  0.00  0.00    +0.019 A 
ATOM      7  C   UNL     1      -1.897   6.489  -5.086  0.00  0.00    +0.089 A 
ATOM      8  N   UNL     1      -2.887   6.383  -4.055  0.00  0.00    -0.128 NA
ATOM      9  C   UNL     1      -0.695   7.136  -4.866  0.00  0.00    +0.019 A 
ATOM     10  C   UNL     1       0.397   6.913  -5.695  0.00  0.00    +0.022 A 
ENDBRANCH   1   4
BRANCH   1  13
ATOM     11  C   UNL     1       2.609   6.025 -10.866  0.00  0.00    +0.101 C 
ATOM     12  C   UNL     1       1.940   6.081  -9.527  0.00  0.00    +0.274 C 
ATOM     13  N   UNL     1       1.690   5.023  -8.829  0.00  0.00    -0.090 NA
ATOM     14  O   UNL     1       1.528   7.287  -8.981  0.00  0.00    -0.269 OA
ENDBRANCH   1  13
TORSDOF 2
ENDMDL
MODEL 9
REMARK VINA RESULT:      -5.6      3.662      6.792
REMARK  Name = 
REMARK  2 active torsions:
REMARK  status: ('A' for Active; 'I' for Inactive)
REMARK    1  A    between atoms: N_4  and  S_5
REMARK    2  A    between atoms: S_5  and  C_8
REMARK                            x       y       z     vdW  Elec       q    Type
REMARK                         _______ _______ _______ _____ _____    ______ ____
ROOT
ATOM      1  S   UNL     1       2.473   7.185  -7.293  0.00  0.00    +0.103 S 
ATOM      2  O   UNL     1       3.346   7.445  -6.086  0.00  0.00    -0.146 OA
ATOM      3  O   UNL     1       2.133   8.494  -7.940  0.00  0.00    -0.146 OA
ENDROOT
BRANCH   1   4
ATOM      4  C   UNL     1       1.008   6.473  -6.687  0.00  0.00    +0.129 A 
ATOM      5  C   UNL     1       0.884   6.346  -5.308  0.00  0.00    +0.022 A 
ATOM      6  C   UNL     1      -0.230   5.728  -4.756  0.00  0.00    +0.019 A 
ATOM      7  C   UNL     1      -1.316   5.497  -5.593  0.00  0.00    +0.089 A 
ATOM      8  N   UNL     1      -2.665   5.649  -5.136  0.00  0.00    -0.128 NA
ATOM      9  C   UNL     1      -1.024   5.326  -6.933  0.00  0.00    +0.019 A 
ATOM     10  C   UNL     1       0.254   5.564  -7.421  0.00  0.00    +0.022 A 
ENDBRANCH   1   4
BRANCH   1  13
ATOM     11  C   UNL     1       4.290   6.137 -10.638  0.00  0.00    +0.101 C 
ATOM     12  C   UNL     1       3.161   6.325  -9.672  0.00  0.00    +0.274 C 
ATOM     13  N   UNL     1       3.304   6.173  -8.396  0.00  0.00    -0.090 NA
ATOM     14  O   UNL     1       1.887   6.649 -10.110  0.00  0.00    -0.269 OA
ENDBRANCH   1  13
TORSDOF 2
ENDMDL
