MODEL 1
REMARK VINA RESULT:      -6.2      0.000      0.000
REMARK  Name = 
REMARK  5 active torsions:
REMARK  status: ('A' for Active; 'I' for Inactive)
REMARK    1  A    between atoms: C_2  and  C_4
REMARK    2  A    between atoms: C_4  and  C_5
REMARK    3  A    between atoms: C_5  and  C_6
REMARK    4  A    between atoms: C_6  and  C_7
REMARK    5  A    between atoms: C_7  and  C_8
REMARK                            x       y       z     vdW  Elec       q    Type
REMARK                         _______ _______ _______ _____ _____    ______ ____
ROOT
ATOM      1  C   UNL     1       4.302   4.956 -10.037  0.00  0.00    +0.070 C 
ATOM      2  C   UNL     1       4.093   4.706  -8.395  0.00  0.00    +0.130 C 
ATOM      3  C   UNL     1       2.661   3.773  -8.633  0.00  0.00    +0.139 C 
ATOM      4  N   UNL     1       2.250   4.138  -7.152  0.00  0.00    -0.219 NA
ATOM      5  C   UNL     1       2.467   5.376  -7.015  0.00  0.00    +0.350 C 
ATOM      6  O   UNL     1       2.076   6.043  -5.844  0.00  0.00    -0.246 OA
ATOM      7  C   UNL     1       1.757   5.024  -9.202  0.00  0.00    +0.084 C 
ATOM      8  N   UNL     1       3.228   5.975  -8.067  0.00  0.00    -0.184 NA
ATOM      9  S   UNL     1       2.681   5.814 -10.399  0.00  0.00    -0.137 S 
ENDROOT
BRANCH   1  10
ATOM     10  C   UNL     1       5.140   6.274  -9.834  0.00  0.00    +0.013 C 
BRANCH  10  11
ATOM     11  C   UNL     1       6.560   5.802  -9.684  0.00  0.00    +0.002 C 
BRANCH  11  12
ATOM     12  C   UNL     1       7.547   6.746 -10.302  0.00  0.00    +0.012 C 
BRANCH  12  13
ATOM     13  C   UNL     1       7.470   6.811 -11.799  0.00  0.00    +0.114 C 
BRANCH  13  15
ATOM     14  O   UNL     1       9.198   5.816 -12.288  0.00  0.00    -0.246 OA
ATOM     15  C   UNL     1       8.367   5.770 -12.360  0.00  0.00    +0.365 C 
ATOM     16  O   UNL     1       7.796   4.610 -12.880  0.00  0.00    -0.246 OA
ENDBRANCH  13  15
ENDBRANCH  12  13
ENDBRANCH  11  12
ENDBRANCH  10  11
ENDBRANCH   1  10
TORSDOF 5
ENDMDL
MODEL 2
REMARK VINA RESULT:      -6.1      2.102      2.449
REMARK  Name = 
REMARK  5 active torsions:
REMARK  status: ('A' for Active; 'I' for Inactive)
REMARK    1  A    between atoms: C_2  and  C_4
REMARK    2  A    between atoms: C_4  and  C_5
REMARK    3  A    between atoms: C_5  and  C_6
REMARK    4  A    between atoms: C_6  and  C_7
REMARK    5  A    between atoms: C_7  and  C_8
REMARK                            x       y       z     vdW  Elec       q    Type
REMARK                         _______ _______ _______ _____ _____    ______ ____
ROOT
ATOM      1  C   UNL     1       3.891   6.467  -9.334  0.00  0.00    +0.070 C 
ATOM      2  C   UNL     1       2.258   6.568  -9.685  0.00  0.00    +0.130 C 
ATOM      3  C   UNL     1       1.808   5.765  -8.225  0.00  0.00    +0.139 C 
ATOM      4  N   UNL     1       0.450   5.373  -8.931  0.00  0.00    -0.219 NA
ATOM      5  C   UNL     1       0.753   4.964 -10.088  0.00  0.00    +0.350 C 
ATOM      6  O   UNL     1      -0.226   4.410 -10.928  0.00  0.00    -0.246 OA
ATOM      7  C   UNL     1       2.456   4.313  -8.644  0.00  0.00    +0.084 C 
ATOM      8  N   UNL     1       2.101   5.226 -10.487  0.00  0.00    -0.184 NA
ATOM      9  S   UNL     1       4.038   4.608  -9.210  0.00  0.00    -0.137 S 
ENDROOT
BRANCH   1  10
ATOM     10  C   UNL     1       4.327   6.563 -10.845  0.00  0.00    +0.013 C 
BRANCH  10  11
ATOM     11  C   UNL     1       5.438   7.576 -10.856  0.00  0.00    +0.002 C 
BRANCH  11  12
ATOM     12  C   UNL     1       6.552   7.197 -11.786  0.00  0.00    +0.012 C 
BRANCH  12  13
ATOM     13  C   UNL     1       7.699   6.508 -11.109  0.00  0.00    +0.114 C 
BRANCH  13  15
ATOM     14  O   UNL     1       9.245   5.869 -12.299  0.00  0.00    -0.246 OA
ATOM     15  C   UNL     1       8.441   5.723 -12.127  0.00  0.00    +0.365 C 
ATOM     16  O   UNL     1       7.818   4.613 -12.693  0.00  0.00    -0.246 OA
ENDBRANCH  13  15
ENDBRANCH  12  13
ENDBRANCH  11  12
ENDBRANCH  10  11
ENDBRANCH   1  10
TORSDOF 5
ENDMDL
MODEL 3
REMARK VINA RESULT:      -6.0      5.197      8.509
REMARK  Name = 
REMARK  5 active torsions:
REMARK  status: ('A' for Active; 'I' for Inactive)
REMARK    1  A    between atoms: C_2  and  C_4
REMARK    2  A    between atoms: C_4  and  C_5
REMARK    3  A    between atoms: C_5  and  C_6
REMARK    4  A    between atoms: C_6  and  C_7
REMARK    5  A    between atoms: C_7  and  C_8
REMARK                            x       y       z     vdW  Elec       q    Type
REMARK                         _______ _______ _______ _____ _____    ______ ____
ROOT
ATOM      1  C   UNL     1       0.964   6.077  -6.930  0.00  0.00    +0.070 C 
ATOM      2  C   UNL     1       1.714   6.459  -5.483  0.00  0.00    +0.130 C 
ATOM      3  C   UNL     1       3.170   6.950  -6.269  0.00  0.00    +0.139 C 
ATOM      4  N   UNL     1       3.926   6.671  -4.910  0.00  0.00    -0.219 NA
ATOM      5  C   UNL     1       3.501   5.558  -4.486  0.00  0.00    +0.350 C 
ATOM      6  O   UNL     1       4.079   4.958  -3.357  0.00  0.00    -0.246 OA
ATOM      7  C   UNL     1       3.566   5.447  -6.808  0.00  0.00    +0.084 C 
ATOM      8  N   UNL     1       2.345   5.057  -5.162  0.00  0.00    -0.184 NA
ATOM      9  S   UNL     1       2.173   4.789  -7.541  0.00  0.00    -0.137 S 
ENDROOT
BRANCH   1  10
ATOM     10  C   UNL     1      -0.034   5.058  -6.262  0.00  0.00    +0.013 C 
BRANCH  10  11
ATOM     11  C   UNL     1      -1.392   5.482  -6.748  0.00  0.00    +0.002 C 
BRANCH  11  12
ATOM     12  C   UNL     1      -2.404   5.544  -5.643  0.00  0.00    +0.012 C 
BRANCH  12  13
ATOM     13  C   UNL     1      -1.812   5.817  -4.292  0.00  0.00    +0.114 C 
BRANCH  13  15
ATOM     14  O   UNL     1      -3.489   5.004  -3.433  0.00  0.00    -0.246 OA
ATOM     15  C   UNL     1      -2.703   5.227  -3.263  0.00  0.00    +0.365 C 
ATOM     16  O   UNL     1      -2.158   4.893  -2.025  0.00  0.00    -0.246 OA
ENDBRANCH  13  15
ENDBRANCH  12  13
ENDBRANCH  11  12
ENDBRANCH  10  11
ENDBRANCH   1  10
TORSDOF 5
ENDMDL
MODEL 4
REMARK VINA RESULT:      -5.9      4.449      8.898
REMARK  Name = 
REMARK  5 active torsions:
REMARK  status: ('A' for Active; 'I' for Inactive)
REMARK    1  A    between atoms: C_2  and  C_4
REMARK    2  A    between atoms: C_4  and  C_5
REMARK    3  A    between atoms: C_5  and  C_6
REMARK    4  A    between atoms: C_6  and  C_7
REMARK    5  A    between atoms: C_7  and  C_8
REMARK                            x       y       z     vdW  Elec       q    Type
REMARK                         _______ _______ _______ _____ _____    ______ ____
ROOT
ATOM      1  C   UNL     1       0.624   5.387  -4.989  0.00  0.00    +0.070 C 
ATOM      2  C   UNL     1       0.727   4.888  -6.584  0.00  0.00    +0.130 C 
ATOM      3  C   UNL     1       2.031   3.808  -6.250  0.00  0.00    +0.139 C 
ATOM      4  N   UNL     1       2.422   3.906  -7.778  0.00  0.00    -0.219 NA
ATOM      5  C   UNL     1       2.367   5.131  -8.084  0.00  0.00    +0.350 C 
ATOM      6  O   UNL     1       2.792   5.570  -9.347  0.00  0.00    -0.246 OA
ATOM      7  C   UNL     1       3.117   4.988  -5.886  0.00  0.00    +0.084 C 
ATOM      8  N   UNL     1       1.739   5.968  -7.109  0.00  0.00    -0.184 NA
ATOM      9  S   UNL     1       2.359   6.054  -4.792  0.00  0.00    -0.137 S 
ENDROOT
BRANCH   1  10
ATOM     10  C   UNL     1      -0.039   6.768  -5.357  0.00  0.00    +0.013 C 
BRANCH  10  11
ATOM     11  C   UNL     1      -1.517   6.491  -5.358  0.00  0.00    +0.002 C 
BRANCH  11  12
ATOM     12  C   UNL     1      -2.284   7.468  -4.518  0.00  0.00    +0.012 C 
BRANCH  12  13
ATOM     13  C   UNL     1      -2.179   7.215  -3.043  0.00  0.00    +0.114 C 
BRANCH  13  15
ATOM     14  O   UNL     1      -3.989   6.307  -2.703  0.00  0.00    -0.246 OA
ATOM     15  C   UNL     1      -3.165   6.168  -2.676  0.00  0.00    +0.365 C 
ATOM     16  O   UNL     1      -2.704   4.877  -2.433  0.00  0.00    -0.246 OA
ENDBRANCH  13  15
ENDBRANCH  12  13
ENDBRANCH  11  12
ENDBRANCH  10  11
ENDBRANCH   1  10
TORSDOF 5
ENDMDL
MODEL 5
REMARK VINA RESULT:      -5.6      5.924      8.826
REMARK  Name = 
REMARK  5 active torsions:
REMARK  status: ('A' for Active; 'I' for Inactive)
REMARK    1  A    between atoms: C_2  and  C_4
REMARK    2  A    between atoms: C_4  and  C_5
REMARK    3  A    between atoms: C_5  and  C_6
REMARK    4  A    between atoms: C_6  and  C_7
REMARK    5  A    between atoms: C_7  and  C_8
REMARK                            x       y       z     vdW  Elec       q    Type
REMARK                         _______ _______ _______ _____ _____    ______ ____
ROOT
ATOM      1  C   UNL     1       0.906   5.014  -5.263  0.00  0.00    +0.070 C 
ATOM      2  C   UNL     1       2.337   5.684  -5.817  0.00  0.00    +0.130 C 
ATOM      3  C   UNL     1       3.300   4.689  -4.786  0.00  0.00    +0.139 C 
ATOM      4  N   UNL     1       4.441   5.775  -4.906  0.00  0.00    -0.219 NA
ATOM      5  C   UNL     1       3.883   6.899  -4.753  0.00  0.00    +0.350 C 
ATOM      6  O   UNL     1       4.651   8.071  -4.671  0.00  0.00    -0.246 OA
ATOM      7  C   UNL     1       2.782   5.375  -3.384  0.00  0.00    +0.084 C 
ATOM      8  N   UNL     1       2.454   6.874  -4.798  0.00  0.00    -0.184 NA
ATOM      9  S   UNL     1       1.078   5.440  -3.451  0.00  0.00    -0.137 S 
ENDROOT
BRANCH   1  10
ATOM     10  C   UNL     1       0.046   6.277  -5.646  0.00  0.00    +0.013 C 
BRANCH  10  11
ATOM     11  C   UNL     1      -1.181   5.715  -6.308  0.00  0.00    +0.002 C 
BRANCH  11  12
ATOM     12  C   UNL     1      -2.450   6.215  -5.684  0.00  0.00    +0.012 C 
BRANCH  12  13
ATOM     13  C   UNL     1      -2.239   6.994  -4.419  0.00  0.00    +0.114 C 
BRANCH  13  15
ATOM     14  O   UNL     1      -3.278   6.703  -2.673  0.00  0.00    -0.246 OA
ATOM     15  C   UNL     1      -2.937   6.291  -3.315  0.00  0.00    +0.365 C 
ATOM     16  O   UNL     1      -3.163   4.922  -3.437  0.00  0.00    -0.246 OA
ENDBRANCH  13  15
ENDBRANCH  12  13
ENDBRANCH  11  12
ENDBRANCH  10  11
ENDBRANCH   1  10
TORSDOF 5
ENDMDL
MODEL 6
REMARK VINA RESULT:      -5.5      7.318      9.207
REMARK  Name = 
REMARK  5 active torsions:
REMARK  status: ('A' for Active; 'I' for Inactive)
REMARK    1  A    between atoms: C_2  and  C_4
REMARK    2  A    between atoms: C_4  and  C_5
REMARK    3  A    between atoms: C_5  and  C_6
REMARK    4  A    between atoms: C_6  and  C_7
REMARK    5  A    between atoms: C_7  and  C_8
REMARK                            x       y       z     vdW  Elec       q    Type
REMARK                         _______ _______ _______ _____ _____    ______ ____
ROOT
ATOM      1  C   UNL     1       2.367   6.556  -4.747  0.00  0.00    +0.070 C 
ATOM      2  C   UNL     1       2.718   7.036  -3.182  0.00  0.00    +0.130 C 
ATOM      3  C   UNL     1       4.409   7.148  -3.505  0.00  0.00    +0.139 C 
ATOM      4  N   UNL     1       4.655   6.969  -1.955  0.00  0.00    -0.219 NA
ATOM      5  C   UNL     1       3.904   6.024  -1.580  0.00  0.00    +0.350 C 
ATOM      6  O   UNL     1       3.986   5.525  -0.270  0.00  0.00    -0.246 OA
ATOM      7  C   UNL     1       4.628   5.534  -3.735  0.00  0.00    +0.084 C 
ATOM      8  N   UNL     1       2.922   5.618  -2.536  0.00  0.00    -0.184 NA
ATOM      9  S   UNL     1       3.409   5.005  -4.806  0.00  0.00    -0.137 S 
ENDROOT
BRANCH   1  10
ATOM     10  C   UNL     1       1.028   5.835  -4.336  0.00  0.00    +0.013 C 
BRANCH  10  11
ATOM     11  C   UNL     1      -0.059   6.794  -4.737  0.00  0.00    +0.002 C 
BRANCH  11  12
ATOM     12  C   UNL     1      -1.397   6.128  -4.853  0.00  0.00    +0.012 C 
BRANCH  12  13
ATOM     13  C   UNL     1      -2.334   6.447  -3.726  0.00  0.00    +0.114 C 
BRANCH  13  15
ATOM     14  O   UNL     1      -2.960   4.671  -2.908  0.00  0.00    -0.246 OA
ATOM     15  C   UNL     1      -2.390   5.275  -2.817  0.00  0.00    +0.365 C 
ATOM     16  O   UNL     1      -1.365   5.104  -1.889  0.00  0.00    -0.246 OA
ENDBRANCH  13  15
ENDBRANCH  12  13
ENDBRANCH  11  12
ENDBRANCH  10  11
ENDBRANCH   1  10
TORSDOF 5
ENDMDL
MODEL 7
REMARK VINA RESULT:      -5.5      3.711      7.604
REMARK  Name = 
REMARK  5 active torsions:
REMARK  status: ('A' for Active; 'I' for Inactive)
REMARK    1  A    between atoms: C_2  and  C_4
REMARK    2  A    between atoms: C_4  and  C_5
REMARK    3  A    between atoms: C_5  and  C_6
REMARK    4  A    between atoms: C_6  and  C_7
REMARK    5  A    between atoms: C_7  and  C_8
REMARK                            x       y       z     vdW  Elec       q    Type
REMARK                         _______ _______ _______ _____ _____    ______ ____
ROOT
ATOM      1  C   UNL     1       1.158   5.270  -7.442  0.00  0.00    +0.070 C 
ATOM      2  C   UNL     1       1.674   4.806  -8.965  0.00  0.00    +0.130 C 
ATOM      3  C   UNL     1       3.325   5.154  -8.605  0.00  0.00    +0.139 C 
ATOM      4  N   UNL     1       3.570   5.299 -10.159  0.00  0.00    -0.219 NA
ATOM      5  C   UNL     1       2.615   5.995 -10.609  0.00  0.00    +0.350 C 
ATOM      6  O   UNL     1       2.610   6.419 -11.946  0.00  0.00    -0.246 OA
ATOM      7  C   UNL     1       3.114   6.780  -8.478  0.00  0.00    +0.084 C 
ATOM      8  N   UNL     1       1.529   6.188  -9.699  0.00  0.00    -0.184 NA
ATOM      9  S   UNL     1       1.765   7.038  -7.466  0.00  0.00    -0.137 S 
ENDROOT
BRANCH   1  10
ATOM     10  C   UNL     1      -0.306   5.595  -7.923  0.00  0.00    +0.013 C 
BRANCH  10  11
ATOM     11  C   UNL     1      -1.194   5.006  -6.863  0.00  0.00    +0.002 C 
BRANCH  11  12
ATOM     12  C   UNL     1      -2.267   5.956  -6.419  0.00  0.00    +0.012 C 
BRANCH  12  13
ATOM     13  C   UNL     1      -2.212   6.294  -4.959  0.00  0.00    +0.114 C 
BRANCH  13  15
ATOM     14  O   UNL     1      -1.235   8.096  -4.856  0.00  0.00    -0.246 OA
ATOM     15  C   UNL     1      -1.120   7.276  -4.746  0.00  0.00    +0.365 C 
ATOM     16  O   UNL     1       0.080   6.828  -4.199  0.00  0.00    -0.246 OA
ENDBRANCH  13  15
ENDBRANCH  12  13
ENDBRANCH  11  12
ENDBRANCH  10  11
ENDBRANCH   1  10
TORSDOF 5
ENDMDL
MODEL 8
REMARK VINA RESULT:      -5.2      3.067      6.615
REMARK  Name = 
REMARK  5 active torsions:
REMARK  status: ('A' for Active; 'I' for Inactive)
REMARK    1  A    between atoms: C_2  and  C_4
REMARK    2  A    between atoms: C_4  and  C_5
REMARK    3  A    between atoms: C_5  and  C_6
REMARK    4  A    between atoms: C_6  and  C_7
REMARK    5  A    between atoms: C_7  and  C_8
REMARK                            x       y       z     vdW  Elec       q    Type
REMARK                         _______ _______ _______ _____ _____    ______ ____
ROOT
ATOM      1  C   UNL     1       5.994   6.064 -10.444  0.00  0.00    +0.070 C 
ATOM      2  C   UNL     1       5.908   5.417 -11.986  0.00  0.00    +0.130 C 
ATOM      3  C   UNL     1       7.568   4.948 -11.974  0.00  0.00    +0.139 C 
ATOM      4  N   UNL     1       7.522   4.966 -13.553  0.00  0.00    -0.219 NA
ATOM      5  C   UNL     1       6.923   6.030 -13.881  0.00  0.00    +0.350 C 
ATOM      6  O   UNL     1       6.836   6.411 -15.229  0.00  0.00    -0.246 OA
ATOM      7  C   UNL     1       8.160   6.483 -11.964  0.00  0.00    +0.084 C 
ATOM      8  N   UNL     1       6.264   6.707 -12.808  0.00  0.00    -0.184 NA
ATOM      9  S   UNL     1       7.325   7.341 -10.749  0.00  0.00    -0.137 S 
ENDROOT
BRANCH   1  10
ATOM     10  C   UNL     1       4.778   7.039 -10.674  0.00  0.00    +0.013 C 
BRANCH  10  11
ATOM     11  C   UNL     1       3.563   6.214 -10.355  0.00  0.00    +0.002 C 
BRANCH  11  12
ATOM     12  C   UNL     1       3.372   6.020  -8.880  0.00  0.00    +0.012 C 
BRANCH  12  13
ATOM     13  C   UNL     1       3.041   4.610  -8.490  0.00  0.00    +0.114 C 
BRANCH  13  15
ATOM     14  O   UNL     1       1.862   5.325  -6.969  0.00  0.00    -0.246 OA
ATOM     15  C   UNL     1       2.275   4.643  -7.220  0.00  0.00    +0.365 C 
ATOM     16  O   UNL     1       2.114   3.456  -6.510  0.00  0.00    -0.246 OA
ENDBRANCH  13  15
ENDBRANCH  12  13
ENDBRANCH  11  12
ENDBRANCH  10  11
ENDBRANCH   1  10
TORSDOF 5
ENDMDL
MODEL 9
REMARK VINA RESULT:      -5.2      2.652      3.356
REMARK  Name = 
REMARK  5 active torsions:
REMARK  status: ('A' for Active; 'I' for Inactive)
REMARK    1  A    between atoms: C_2  and  C_4
REMARK    2  A    between atoms: C_4  and  C_5
REMARK    3  A    between atoms: C_5  and  C_6
REMARK    4  A    between atoms: C_6  and  C_7
REMARK    5  A    between atoms: C_7  and  C_8
REMARK                            x       y       z     vdW  Elec       q    Type
REMARK                         _______ _______ _______ _____ _____    ______ ____
ROOT
ATOM      1  C   UNL     1       2.312   5.847  -8.069  0.00  0.00    +0.070 C 
ATOM      2  C   UNL     1       1.525   6.851  -9.153  0.00  0.00    +0.130 C 
ATOM      3  C   UNL     1       0.153   5.809  -9.253  0.00  0.00    +0.139 C 
ATOM      4  N   UNL     1      -0.165   6.462 -10.656  0.00  0.00    -0.219 NA
ATOM      5  C   UNL     1       0.932   6.516 -11.283  0.00  0.00    +0.350 C 
ATOM      6  O   UNL     1       0.966   6.926 -12.624  0.00  0.00    -0.246 OA
ATOM      7  C   UNL     1       0.951   4.578  -9.997  0.00  0.00    +0.084 C 
ATOM      8  N   UNL     1       2.093   6.254 -10.490  0.00  0.00    -0.184 NA
ATOM      9  S   UNL     1       2.389   4.304  -9.121  0.00  0.00    -0.137 S 
ENDROOT
BRANCH   1  10
ATOM     10  C   UNL     1       3.743   6.379  -8.457  0.00  0.00    +0.013 C 
BRANCH  10  11
ATOM     11  C   UNL     1       4.695   5.394  -7.838  0.00  0.00    +0.002 C 
BRANCH  11  12
ATOM     12  C   UNL     1       5.966   5.254  -8.622  0.00  0.00    +0.012 C 
BRANCH  12  13
ATOM     13  C   UNL     1       5.943   5.957  -9.947  0.00  0.00    +0.114 C 
BRANCH  13  15
ATOM     14  O   UNL     1       7.717   6.979 -10.101  0.00  0.00    -0.246 OA
ATOM     15  C   UNL     1       7.340   6.270 -10.335  0.00  0.00    +0.365 C 
ATOM     16  O   UNL     1       8.091   5.284 -10.971  0.00  0.00    -0.246 OA
ENDBRANCH  13  15
ENDBRANCH  12  13
ENDBRANCH  11  12
ENDBRANCH  10  11
ENDBRANCH   1  10
TORSDOF 5
ENDMDL
