MODEL 1
REMARK VINA RESULT:      -7.8      0.000      0.000
REMARK  Name = 
REMARK  8 active torsions:
REMARK  status: ('A' for Active; 'I' for Inactive)
REMARK    1  A    between atoms: O_2  and  C_3
REMARK    2  A    between atoms: C_3  and  C_4
REMARK    3  A    between atoms: C_4  and  C_5
REMARK    4  A    between atoms: C_5  and  O_6
REMARK    5  A    between atoms: O_6  and  C_7
REMARK    6  A    between atoms: C_11  and  C_12
REMARK    7  A    between atoms: C_12  and  S_13
REMARK    8  A    between atoms: S_13  and  C_15
REMARK                            x       y       z     vdW  Elec       q    Type
REMARK                         _______ _______ _______ _____ _____    ______ ____
ROOT
ATOM      1  C   UNL     1      -1.053   5.900  -5.474  0.00  0.00    +0.137 A 
ATOM      2  C   UNL     1       0.292   6.187  -5.399  0.00  0.00    +0.027 A 
ATOM      3  C   UNL     1       0.919   6.275  -4.043  0.00  0.00    +0.035 C 
ATOM      4  C   UNL     1       1.082   6.417  -6.515  0.00  0.00    +0.072 A 
ATOM      5  N   UNL     1       0.606   5.919  -7.681  0.00  0.00    -0.247 NA
ATOM      6  C   UNL     1      -0.596   5.293  -7.729  0.00  0.00    +0.102 A 
ATOM      7  C   UNL     1      -1.510   5.422  -6.691  0.00  0.00    +0.057 A 
ENDROOT
BRANCH   4   8
ATOM      8  C   UNL     1       2.445   7.030  -6.414  0.00  0.00    +0.145 C 
BRANCH   8   9
ATOM      9  S   UNL     1       3.603   5.600  -6.316  0.00  0.00    +0.107 S 
ATOM     10  O   UNL     1       4.783   6.271  -5.550  0.00  0.00    -0.248 OA
BRANCH   9  11
ATOM     11  C   UNL     1       4.253   5.583  -8.005  0.00  0.00    +0.221 A 
ATOM     12  N   UNL     1       5.491   5.110  -8.286  0.00  0.00    -0.218 NA
ATOM     13  C   UNL     1       5.942   5.668  -9.437  0.00  0.00    +0.101 A 
ATOM     14  C   UNL     1       4.867   6.348  -9.996  0.00  0.00    +0.101 A 
ATOM     15  C   UNL     1       5.202   7.401 -10.839  0.00  0.00    +0.021 A 
ATOM     16  C   UNL     1       6.491   7.693 -11.206  0.00  0.00    +0.002 A 
ATOM     17  C   UNL     1       7.538   7.077 -10.545  0.00  0.00    +0.002 A 
ATOM     18  C   UNL     1       7.229   5.877  -9.917  0.00  0.00    +0.021 A 
ATOM     19  N   UNL     1       3.924   6.379  -9.020  0.00  0.00    -0.218 NA
ENDBRANCH   9  11
ENDBRANCH   8   9
ENDBRANCH   4   8
BRANCH   1  20
ATOM     20  O   UNL     1      -1.912   6.466  -4.527  0.00  0.00    -0.476 OA
BRANCH  20  21
ATOM     21  C   UNL     1      -2.788   5.610  -3.798  0.00  0.00    +0.208 C 
BRANCH  21  22
ATOM     22  C   UNL     1      -3.242   6.266  -2.501  0.00  0.00    +0.079 C 
BRANCH  22  23
ATOM     23  C   UNL     1      -2.399   7.499  -2.203  0.00  0.00    +0.146 C 
BRANCH  23  25
ATOM     24  C   UNL     1      -1.590   7.609  -0.616  0.00  0.00    +0.174 C 
ATOM     25  O   UNL     1      -1.877   7.391  -0.904  0.00  0.00    -0.351 OA
ENDBRANCH  23  25
ENDBRANCH  22  23
ENDBRANCH  21  22
ENDBRANCH  20  21
ENDBRANCH   1  20
TORSDOF 8
ENDMDL
MODEL 2
REMARK VINA RESULT:      -7.4      2.486      3.618
REMARK  Name = 
REMARK  8 active torsions:
REMARK  status: ('A' for Active; 'I' for Inactive)
REMARK    1  A    between atoms: O_2  and  C_3
REMARK    2  A    between atoms: C_3  and  C_4
REMARK    3  A    between atoms: C_4  and  C_5
REMARK    4  A    between atoms: C_5  and  O_6
REMARK    5  A    between atoms: O_6  and  C_7
REMARK    6  A    between atoms: C_11  and  C_12
REMARK    7  A    between atoms: C_12  and  S_13
REMARK    8  A    between atoms: S_13  and  C_15
REMARK                            x       y       z     vdW  Elec       q    Type
REMARK                         _______ _______ _______ _____ _____    ______ ____
ROOT
ATOM      1  C   UNL     1       0.564   5.100  -4.839  0.00  0.00    +0.137 A 
ATOM      2  C   UNL     1       0.935   4.747  -6.117  0.00  0.00    +0.027 A 
ATOM      3  C   UNL     1       2.087   3.805  -6.282  0.00  0.00    +0.035 C 
ATOM      4  C   UNL     1       0.307   5.236  -7.252  0.00  0.00    +0.072 A 
ATOM      5  N   UNL     1      -0.947   5.712  -7.066  0.00  0.00    -0.247 NA
ATOM      6  C   UNL     1      -1.501   5.747  -5.830  0.00  0.00    +0.102 A 
ATOM      7  C   UNL     1      -0.715   5.612  -4.692  0.00  0.00    +0.057 A 
ENDROOT
BRANCH   4   8
ATOM      8  C   UNL     1       0.908   5.100  -8.617  0.00  0.00    +0.145 C 
BRANCH   8   9
ATOM      9  S   UNL     1       1.684   6.736  -8.959  0.00  0.00    +0.107 S 
ATOM     10  O   UNL     1       0.805   7.197 -10.160  0.00  0.00    -0.248 OA
BRANCH   9  11
ATOM     11  C   UNL     1       3.192   6.215  -9.814  0.00  0.00    +0.221 A 
ATOM     12  N   UNL     1       4.161   5.510  -9.182  0.00  0.00    -0.218 NA
ATOM     13  C   UNL     1       5.347   5.700  -9.810  0.00  0.00    +0.101 A 
ATOM     14  C   UNL     1       5.067   6.377 -10.991  0.00  0.00    +0.101 A 
ATOM     15  C   UNL     1       6.113   7.134 -11.506  0.00  0.00    +0.021 A 
ATOM     16  C   UNL     1       7.377   7.133 -10.974  0.00  0.00    +0.002 A 
ATOM     17  C   UNL     1       7.592   6.547  -9.740  0.00  0.00    +0.002 A 
ATOM     18  C   UNL     1       6.657   5.594  -9.358  0.00  0.00    +0.021 A 
ATOM     19  N   UNL     1       3.778   6.782 -10.867  0.00  0.00    -0.218 NA
ENDBRANCH   9  11
ENDBRANCH   8   9
ENDBRANCH   4   8
BRANCH   1  20
ATOM     20  O   UNL     1       1.565   5.314  -3.886  0.00  0.00    -0.476 OA
BRANCH  20  21
ATOM     21  C   UNL     1       2.195   6.591  -3.829  0.00  0.00    +0.208 C 
BRANCH  21  22
ATOM     22  C   UNL     1       3.519   6.516  -3.082  0.00  0.00    +0.079 C 
BRANCH  22  23
ATOM     23  C   UNL     1       4.004   5.074  -2.997  0.00  0.00    +0.146 C 
BRANCH  23  25
ATOM     24  C   UNL     1       4.048   4.871  -1.225  0.00  0.00    +0.174 C 
ATOM     25  O   UNL     1       4.049   4.687  -1.648  0.00  0.00    -0.351 OA
ENDBRANCH  23  25
ENDBRANCH  22  23
ENDBRANCH  21  22
ENDBRANCH  20  21
ENDBRANCH   1  20
TORSDOF 8
ENDMDL
MODEL 3
REMARK VINA RESULT:      -7.1      2.042      2.470
REMARK  Name = 
REMARK  8 active torsions:
REMARK  status: ('A' for Active; 'I' for Inactive)
REMARK    1  A    between atoms: O_2  and  C_3
REMARK    2  A    between atoms: C_3  and  C_4
REMARK    3  A    between atoms: C_4  and  C_5
REMARK    4  A    between atoms: C_5  and  O_6
REMARK    5  A    between atoms: O_6  and  C_7
REMARK    6  A    between atoms: C_11  and  C_12
REMARK    7  A    between atoms: C_12  and  S_13
REMARK    8  A    between atoms: S_13  and  C_15
REMARK                            x       y       z     vdW  Elec       q    Type
REMARK                         _______ _______ _______ _____ _____    ______ ____
ROOT
ATOM      1  C   UNL     1       0.294   5.147  -5.333  0.00  0.00    +0.137 A 
ATOM      2  C   UNL     1       1.454   5.203  -6.074  0.00  0.00    +0.027 A 
ATOM      3  C   UNL     1       2.713   4.688  -5.451  0.00  0.00    +0.035 C 
ATOM      4  C   UNL     1       1.511   5.731  -7.355  0.00  0.00    +0.072 A 
ATOM      5  N   UNL     1       0.332   5.779  -8.020  0.00  0.00    -0.247 NA
ATOM      6  C   UNL     1      -0.819   5.384  -7.423  0.00  0.00    +0.102 A 
ATOM      7  C   UNL     1      -0.892   5.230  -6.044  0.00  0.00    +0.057 A 
ENDROOT
BRANCH   4   8
ATOM      8  C   UNL     1       2.809   6.075  -8.018  0.00  0.00    +0.145 C 
BRANCH   8   9
ATOM      9  S   UNL     1       2.897   4.969  -9.489  0.00  0.00    +0.107 S 
ATOM     10  O   UNL     1       3.750   3.809  -8.895  0.00  0.00    -0.248 OA
BRANCH   9  11
ATOM     11  C   UNL     1       4.136   5.837 -10.482  0.00  0.00    +0.221 A 
ATOM     12  N   UNL     1       4.444   5.440 -11.741  0.00  0.00    -0.218 NA
ATOM     13  C   UNL     1       5.694   5.858 -12.057  0.00  0.00    +0.101 A 
ATOM     14  C   UNL     1       6.094   6.719 -11.043  0.00  0.00    +0.101 A 
ATOM     15  C   UNL     1       7.468   6.832 -10.864  0.00  0.00    +0.021 A 
ATOM     16  C   UNL     1       8.387   6.243 -11.694  0.00  0.00    +0.002 A 
ATOM     17  C   UNL     1       7.962   5.304 -12.616  0.00  0.00    +0.002 A 
ATOM     18  C   UNL     1       6.622   5.378 -12.974  0.00  0.00    +0.021 A 
ATOM     19  N   UNL     1       5.175   6.553 -10.059  0.00  0.00    -0.218 NA
ENDBRANCH   9  11
ENDBRANCH   8   9
ENDBRANCH   4   8
BRANCH   1  20
ATOM     20  O   UNL     1       0.361   5.422  -3.963  0.00  0.00    -0.476 OA
BRANCH  20  21
ATOM     21  C   UNL     1      -0.833   5.337  -3.188  0.00  0.00    +0.208 C 
BRANCH  21  22
ATOM     22  C   UNL     1      -1.211   6.695  -2.614  0.00  0.00    +0.079 C 
BRANCH  22  23
ATOM     23  C   UNL     1      -2.454   7.240  -3.306  0.00  0.00    +0.146 C 
BRANCH  23  25
ATOM     24  C   UNL     1      -1.752   8.384  -4.482  0.00  0.00    +0.174 C 
ATOM     25  O   UNL     1      -2.076   8.280  -4.170  0.00  0.00    -0.351 OA
ENDBRANCH  23  25
ENDBRANCH  22  23
ENDBRANCH  21  22
ENDBRANCH  20  21
ENDBRANCH   1  20
TORSDOF 8
ENDMDL
MODEL 4
REMARK VINA RESULT:      -7.1      2.918      7.771
REMARK  Name = 
REMARK  8 active torsions:
REMARK  status: ('A' for Active; 'I' for Inactive)
REMARK    1  A    between atoms: O_2  and  C_3
REMARK    2  A    between atoms: C_3  and  C_4
REMARK    3  A    between atoms: C_4  and  C_5
REMARK    4  A    between atoms: C_5  and  O_6
REMARK    5  A    between atoms: O_6  and  C_7
REMARK    6  A    between atoms: C_11  and  C_12
REMARK    7  A    between atoms: C_12  and  S_13
REMARK    8  A    between atoms: S_13  and  C_15
REMARK                            x       y       z     vdW  Elec       q    Type
REMARK                         _______ _______ _______ _____ _____    ______ ____
ROOT
ATOM      1  C   UNL     1       3.820   5.597 -10.566  0.00  0.00    +0.137 A 
ATOM      2  C   UNL     1       3.543   5.145  -9.295  0.00  0.00    +0.027 A 
ATOM      3  C   UNL     1       2.233   4.459  -9.062  0.00  0.00    +0.035 C 
ATOM      4  C   UNL     1       4.407   5.314  -8.225  0.00  0.00    +0.072 A 
ATOM      5  N   UNL     1       5.704   5.532  -8.550  0.00  0.00    -0.247 NA
ATOM      6  C   UNL     1       6.088   5.631  -9.846  0.00  0.00    +0.102 A 
ATOM      7  C   UNL     1       5.154   5.838 -10.853  0.00  0.00    +0.057 A 
ENDROOT
BRANCH   4   8
ATOM      8  C   UNL     1       3.970   5.108  -6.807  0.00  0.00    +0.145 C 
BRANCH   8   9
ATOM      9  S   UNL     1       3.400   6.767  -6.241  0.00  0.00    +0.107 S 
ATOM     10  O   UNL     1       4.288   6.930  -4.971  0.00  0.00    -0.248 OA
BRANCH   9  11
ATOM     11  C   UNL     1       1.809   6.334  -5.496  0.00  0.00    +0.221 A 
ATOM     12  N   UNL     1       1.007   5.383  -6.034  0.00  0.00    -0.218 NA
ATOM     13  C   UNL     1      -0.277   5.605  -5.660  0.00  0.00    +0.101 A 
ATOM     14  C   UNL     1      -0.243   6.601  -4.692  0.00  0.00    +0.101 A 
ATOM     15  C   UNL     1      -1.407   7.350  -4.566  0.00  0.00    +0.021 A 
ATOM     16  C   UNL     1      -2.563   7.068  -5.249  0.00  0.00    +0.002 A 
ATOM     17  C   UNL     1      -2.530   6.151  -6.284  0.00  0.00    +0.002 A 
ATOM     18  C   UNL     1      -1.484   5.238  -6.245  0.00  0.00    +0.021 A 
ATOM     19  N   UNL     1       1.020   7.096  -4.742  0.00  0.00    -0.218 NA
ENDBRANCH   9  11
ENDBRANCH   8   9
ENDBRANCH   4   8
BRANCH   1  20
ATOM     20  O   UNL     1       2.784   6.159 -11.318  0.00  0.00    -0.476 OA
BRANCH  20  21
ATOM     21  C   UNL     1       2.608   5.736 -12.668  0.00  0.00    +0.208 C 
BRANCH  21  22
ATOM     22  C   UNL     1       1.140   5.776 -13.068  0.00  0.00    +0.079 C 
BRANCH  22  23
ATOM     23  C   UNL     1       0.260   6.019 -11.848  0.00  0.00    +0.146 C 
BRANCH  23  25
ATOM     24  C   UNL     1      -0.566   7.593 -11.699  0.00  0.00    +0.174 C 
ATOM     25  O   UNL     1      -0.269   7.317 -11.919  0.00  0.00    -0.351 OA
ENDBRANCH  23  25
ENDBRANCH  22  23
ENDBRANCH  21  22
ENDBRANCH  20  21
ENDBRANCH   1  20
TORSDOF 8
ENDMDL
MODEL 5
REMARK VINA RESULT:      -7.1      2.699      9.506
REMARK  Name = 
REMARK  8 active torsions:
REMARK  status: ('A' for Active; 'I' for Inactive)
REMARK    1  A    between atoms: O_2  and  C_3
REMARK    2  A    between atoms: C_3  and  C_4
REMARK    3  A    between atoms: C_4  and  C_5
REMARK    4  A    between atoms: C_5  and  O_6
REMARK    5  A    between atoms: O_6  and  C_7
REMARK    6  A    between atoms: C_11  and  C_12
REMARK    7  A    between atoms: C_12  and  S_13
REMARK    8  A    between atoms: S_13  and  C_15
REMARK                            x       y       z     vdW  Elec       q    Type
REMARK                         _______ _______ _______ _____ _____    ______ ____
ROOT
ATOM      1  C   UNL     1       4.387   6.096 -10.107  0.00  0.00    +0.137 A 
ATOM      2  C   UNL     1       3.249   6.330  -9.368  0.00  0.00    +0.027 A 
ATOM      3  C   UNL     1       1.957   6.505 -10.101  0.00  0.00    +0.035 C 
ATOM      4  C   UNL     1       3.250   6.430  -7.985  0.00  0.00    +0.072 A 
ATOM      5  N   UNL     1       4.305   5.857  -7.358  0.00  0.00    -0.247 NA
ATOM      6  C   UNL     1       5.306   5.282  -8.068  0.00  0.00    +0.102 A 
ATOM      7  C   UNL     1       5.457   5.537  -9.425  0.00  0.00    +0.057 A 
ENDROOT
BRANCH   4   8
ATOM      8  C   UNL     1       2.087   6.991  -7.226  0.00  0.00    +0.145 C 
BRANCH   8   9
ATOM      9  S   UNL     1       1.656   5.693  -5.991  0.00  0.00    +0.107 S 
ATOM     10  O   UNL     1       1.412   4.489  -6.949  0.00  0.00    -0.248 OA
BRANCH   9  11
ATOM     11  C   UNL     1      -0.044   6.167  -5.591  0.00  0.00    +0.221 A 
ATOM     12  N   UNL     1      -0.321   7.275  -4.863  0.00  0.00    -0.218 NA
ATOM     13  C   UNL     1      -1.528   7.137  -4.261  0.00  0.00    +0.101 A 
ATOM     14  C   UNL     1      -2.111   5.996  -4.799  0.00  0.00    +0.101 A 
ATOM     15  C   UNL     1      -3.050   5.368  -3.989  0.00  0.00    +0.021 A 
ATOM     16  C   UNL     1      -3.479   5.884  -2.793  0.00  0.00    +0.002 A 
ATOM     17  C   UNL     1      -2.799   6.951  -2.234  0.00  0.00    +0.002 A 
ATOM     18  C   UNL     1      -2.062   7.725  -3.121  0.00  0.00    +0.021 A 
ATOM     19  N   UNL     1      -1.113   5.381  -5.484  0.00  0.00    -0.218 NA
ENDBRANCH   9  11
ENDBRANCH   8   9
ENDBRANCH   4   8
BRANCH   1  20
ATOM     20  O   UNL     1       4.551   6.777 -11.317  0.00  0.00    -0.476 OA
BRANCH  20  21
ATOM     21  C   UNL     1       5.072   6.066 -12.438  0.00  0.00    +0.208 C 
BRANCH  21  22
ATOM     22  C   UNL     1       6.497   6.500 -12.748  0.00  0.00    +0.079 C 
BRANCH  22  23
ATOM     23  C   UNL     1       7.413   5.287 -12.863  0.00  0.00    +0.146 C 
BRANCH  23  25
ATOM     24  C   UNL     1       8.992   5.898 -12.300  0.00  0.00    +0.174 C 
ATOM     25  O   UNL     1       8.648   5.591 -12.270  0.00  0.00    -0.351 OA
ENDBRANCH  23  25
ENDBRANCH  22  23
ENDBRANCH  21  22
ENDBRANCH  20  21
ENDBRANCH   1  20
TORSDOF 8
ENDMDL
MODEL 6
REMARK VINA RESULT:      -6.9      2.829      9.207
REMARK  Name = 
REMARK  8 active torsions:
REMARK  status: ('A' for Active; 'I' for Inactive)
REMARK    1  A    between atoms: O_2  and  C_3
REMARK    2  A    between atoms: C_3  and  C_4
REMARK    3  A    between atoms: C_4  and  C_5
REMARK    4  A    between atoms: C_5  and  O_6
REMARK    5  A    between atoms: O_6  and  C_7
REMARK    6  A    between atoms: C_11  and  C_12
REMARK    7  A    between atoms: C_12  and  S_13
REMARK    8  A    between atoms: S_13  and  C_15
REMARK                            x       y       z     vdW  Elec       q    Type
REMARK                         _______ _______ _______ _____ _____    ______ ____
ROOT
ATOM      1  C   UNL     1       4.544   5.680 -10.363  0.00  0.00    +0.137 A 
ATOM      2  C   UNL     1       3.423   5.613  -9.566  0.00  0.00    +0.027 A 
ATOM      3  C   UNL     1       2.096   5.420 -10.232  0.00  0.00    +0.035 C 
ATOM      4  C   UNL     1       3.464   5.737  -8.186  0.00  0.00    +0.072 A 
ATOM      5  N   UNL     1       4.664   5.480  -7.612  0.00  0.00    -0.247 NA
ATOM      6  C   UNL     1       5.747   5.181  -8.371  0.00  0.00    +0.102 A 
ATOM      7  C   UNL     1       5.756   5.441  -9.735  0.00  0.00    +0.057 A 
ENDROOT
BRANCH   4   8
ATOM      8  C   UNL     1       2.232   5.979  -7.370  0.00  0.00    +0.145 C 
BRANCH   8   9
ATOM      9  S   UNL     1       2.341   4.778  -5.977  0.00  0.00    +0.107 S 
ATOM     10  O   UNL     1       2.127   3.448  -6.759  0.00  0.00    -0.248 OA
BRANCH   9  11
ATOM     11  C   UNL     1       0.713   5.000  -5.219  0.00  0.00    +0.221 A 
ATOM     12  N   UNL     1      -0.335   5.498  -5.918  0.00  0.00    -0.218 NA
ATOM     13  C   UNL     1      -1.230   6.054  -5.065  0.00  0.00    +0.101 A 
ATOM     14  C   UNL     1      -0.825   5.706  -3.783  0.00  0.00    +0.101 A 
ATOM     15  C   UNL     1      -1.234   6.570  -2.774  0.00  0.00    +0.021 A 
ATOM     16  C   UNL     1      -2.080   7.629  -2.985  0.00  0.00    +0.002 A 
ATOM     17  C   UNL     1      -2.369   8.016  -4.281  0.00  0.00    +0.002 A 
ATOM     18  C   UNL     1      -2.192   7.040  -5.252  0.00  0.00    +0.021 A 
ATOM     19  N   UNL     1       0.423   5.195  -3.935  0.00  0.00    -0.218 NA
ENDBRANCH   9  11
ENDBRANCH   8   9
ENDBRANCH   4   8
BRANCH   1  20
ATOM     20  O   UNL     1       4.459   6.355 -11.584  0.00  0.00    -0.476 OA
BRANCH  20  21
ATOM     21  C   UNL     1       4.349   5.592 -12.784  0.00  0.00    +0.208 C 
BRANCH  21  22
ATOM     22  C   UNL     1       5.711   5.399 -13.436  0.00  0.00    +0.079 C 
BRANCH  22  23
ATOM     23  C   UNL     1       6.600   6.611 -13.187  0.00  0.00    +0.146 C 
BRANCH  23  25
ATOM     24  C   UNL     1       8.101   5.798 -12.667  0.00  0.00    +0.174 C 
ATOM     25  O   UNL     1       7.886   6.168 -12.840  0.00  0.00    -0.351 OA
ENDBRANCH  23  25
ENDBRANCH  22  23
ENDBRANCH  21  22
ENDBRANCH  20  21
ENDBRANCH   1  20
TORSDOF 8
ENDMDL
MODEL 7
REMARK VINA RESULT:      -6.9      2.270      3.596
REMARK  Name = 
REMARK  8 active torsions:
REMARK  status: ('A' for Active; 'I' for Inactive)
REMARK    1  A    between atoms: O_2  and  C_3
REMARK    2  A    between atoms: C_3  and  C_4
REMARK    3  A    between atoms: C_4  and  C_5
REMARK    4  A    between atoms: C_5  and  O_6
REMARK    5  A    between atoms: O_6  and  C_7
REMARK    6  A    between atoms: C_11  and  C_12
REMARK    7  A    between atoms: C_12  and  S_13
REMARK    8  A    between atoms: S_13  and  C_15
REMARK                            x       y       z     vdW  Elec       q    Type
REMARK                         _______ _______ _______ _____ _____    ______ ____
ROOT
ATOM      1  C   UNL     1       1.994   5.465  -5.214  0.00  0.00    +0.137 A 
ATOM      2  C   UNL     1       2.041   5.291  -6.579  0.00  0.00    +0.027 A 
ATOM      3  C   UNL     1       0.747   5.245  -7.329  0.00  0.00    +0.035 C 
ATOM      4  C   UNL     1       3.225   5.136  -7.284  0.00  0.00    +0.072 A 
ATOM      5  N   UNL     1       4.337   5.602  -6.666  0.00  0.00    -0.247 NA
ATOM      6  C   UNL     1       4.271   6.125  -5.418  0.00  0.00    +0.102 A 
ATOM      7  C   UNL     1       3.159   5.913  -4.612  0.00  0.00    +0.057 A 
ENDROOT
BRANCH   4   8
ATOM      8  C   UNL     1       3.253   4.638  -8.696  0.00  0.00    +0.145 C 
BRANCH   8   9
ATOM      9  S   UNL     1       2.984   6.137  -9.733  0.00  0.00    +0.107 S 
ATOM     10  O   UNL     1       2.526   5.460 -11.059  0.00  0.00    -0.248 OA
BRANCH   9  11
ATOM     11  C   UNL     1       4.694   6.571 -10.138  0.00  0.00    +0.221 A 
ATOM     12  N   UNL     1       5.004   7.274 -11.254  0.00  0.00    -0.218 NA
ATOM     13  C   UNL     1       6.286   7.019 -11.612  0.00  0.00    +0.101 A 
ATOM     14  C   UNL     1       6.854   6.297 -10.569  0.00  0.00    +0.101 A 
ATOM     15  C   UNL     1       7.926   5.485 -10.921  0.00  0.00    +0.021 A 
ATOM     16  C   UNL     1       8.482   5.471 -12.175  0.00  0.00    +0.002 A 
ATOM     17  C   UNL     1       7.826   6.107 -13.213  0.00  0.00    +0.002 A 
ATOM     18  C   UNL     1       6.935   7.105 -12.838  0.00  0.00    +0.021 A 
ATOM     19  N   UNL     1       5.809   5.939  -9.781  0.00  0.00    -0.218 NA
ENDBRANCH   9  11
ENDBRANCH   8   9
ENDBRANCH   4   8
BRANCH   1  20
ATOM     20  O   UNL     1       0.984   4.821  -4.491  0.00  0.00    -0.476 OA
BRANCH  20  21
ATOM     21  C   UNL     1       0.387   5.504  -3.391  0.00  0.00    +0.208 C 
BRANCH  21  22
ATOM     22  C   UNL     1      -1.097   5.738  -3.630  0.00  0.00    +0.079 C 
BRANCH  22  23
ATOM     23  C   UNL     1      -1.312   6.983  -4.483  0.00  0.00    +0.146 C 
BRANCH  23  25
ATOM     24  C   UNL     1      -2.384   6.312  -5.741  0.00  0.00    +0.174 C 
ATOM     25  O   UNL     1      -2.207   6.676  -5.520  0.00  0.00    -0.351 OA
ENDBRANCH  23  25
ENDBRANCH  22  23
ENDBRANCH  21  22
ENDBRANCH  20  21
ENDBRANCH   1  20
TORSDOF 8
ENDMDL
MODEL 8
REMARK VINA RESULT:      -6.9      3.097      4.420
REMARK  Name = 
REMARK  8 active torsions:
REMARK  status: ('A' for Active; 'I' for Inactive)
REMARK    1  A    between atoms: O_2  and  C_3
REMARK    2  A    between atoms: C_3  and  C_4
REMARK    3  A    between atoms: C_4  and  C_5
REMARK    4  A    between atoms: C_5  and  O_6
REMARK    5  A    between atoms: O_6  and  C_7
REMARK    6  A    between atoms: C_11  and  C_12
REMARK    7  A    between atoms: C_12  and  S_13
REMARK    8  A    between atoms: S_13  and  C_15
REMARK                            x       y       z     vdW  Elec       q    Type
REMARK                         _______ _______ _______ _____ _____    ______ ____
ROOT
ATOM      1  C   UNL     1      -1.374   6.167  -5.016  0.00  0.00    +0.137 A 
ATOM      2  C   UNL     1      -0.026   6.303  -5.266  0.00  0.00    +0.027 A 
ATOM      3  C   UNL     1       0.881   6.573  -4.106  0.00  0.00    +0.035 C 
ATOM      4  C   UNL     1       0.522   6.223  -6.537  0.00  0.00    +0.072 A 
ATOM      5  N   UNL     1      -0.229   5.571  -7.457  0.00  0.00    -0.247 NA
ATOM      6  C   UNL     1      -1.456   5.093  -7.139  0.00  0.00    +0.102 A 
ATOM      7  C   UNL     1      -2.116   5.523  -5.994  0.00  0.00    +0.057 A 
ENDROOT
BRANCH   4   8
ATOM      8  C   UNL     1       1.917   6.680  -6.833  0.00  0.00    +0.145 C 
BRANCH   8   9
ATOM      9  S   UNL     1       2.916   5.134  -6.916  0.00  0.00    +0.107 S 
ATOM     10  O   UNL     1       1.871   4.117  -6.367  0.00  0.00    -0.248 OA
BRANCH   9  11
ATOM     11  C   UNL     1       3.982   5.350  -5.469  0.00  0.00    +0.221 A 
ATOM     12  N   UNL     1       3.907   4.521  -4.401  0.00  0.00    -0.218 NA
ATOM     13  C   UNL     1       4.368   5.157  -3.296  0.00  0.00    +0.101 A 
ATOM     14  C   UNL     1       4.940   6.346  -3.732  0.00  0.00    +0.101 A 
ATOM     15  C   UNL     1       4.979   7.369  -2.792  0.00  0.00    +0.021 A 
ATOM     16  C   UNL     1       4.600   7.206  -1.484  0.00  0.00    +0.002 A 
ATOM     17  C   UNL     1       3.930   6.054  -1.113  0.00  0.00    +0.002 A 
ATOM     18  C   UNL     1       4.116   4.957  -1.944  0.00  0.00    +0.021 A 
ATOM     19  N   UNL     1       4.550   6.469  -5.026  0.00  0.00    -0.218 NA
ENDBRANCH   9  11
ENDBRANCH   8   9
ENDBRANCH   4   8
BRANCH   1  20
ATOM     20  O   UNL     1      -1.966   6.999  -4.061  0.00  0.00    -0.476 OA
BRANCH  20  21
ATOM     21  C   UNL     1      -3.146   6.551  -3.399  0.00  0.00    +0.208 C 
BRANCH  21  22
ATOM     22  C   UNL     1      -2.918   6.426  -1.899  0.00  0.00    +0.079 C 
BRANCH  22  23
ATOM     23  C   UNL     1      -1.736   7.283  -1.465  0.00  0.00    +0.146 C 
BRANCH  23  25
ATOM     24  C   UNL     1      -0.639   6.084  -0.727  0.00  0.00    +0.174 C 
ATOM     25  O   UNL     1      -0.853   6.493  -0.711  0.00  0.00    -0.351 OA
ENDBRANCH  23  25
ENDBRANCH  22  23
ENDBRANCH  21  22
ENDBRANCH  20  21
ENDBRANCH   1  20
TORSDOF 8
ENDMDL
MODEL 9
REMARK VINA RESULT:      -6.7      1.775      2.598
REMARK  Name = 
REMARK  8 active torsions:
REMARK  status: ('A' for Active; 'I' for Inactive)
REMARK    1  A    between atoms: O_2  and  C_3
REMARK    2  A    between atoms: C_3  and  C_4
REMARK    3  A    between atoms: C_4  and  C_5
REMARK    4  A    between atoms: C_5  and  O_6
REMARK    5  A    between atoms: O_6  and  C_7
REMARK    6  A    between atoms: C_11  and  C_12
REMARK    7  A    between atoms: C_12  and  S_13
REMARK    8  A    between atoms: S_13  and  C_15
REMARK                            x       y       z     vdW  Elec       q    Type
REMARK                         _______ _______ _______ _____ _____    ______ ____
ROOT
ATOM      1  C   UNL     1       1.571   6.050  -4.583  0.00  0.00    +0.137 A 
ATOM      2  C   UNL     1       1.369   6.320  -5.918  0.00  0.00    +0.027 A 
ATOM      3  C   UNL     1      -0.019   6.191  -6.461  0.00  0.00    +0.035 C 
ATOM      4  C   UNL     1       2.392   6.684  -6.781  0.00  0.00    +0.072 A 
ATOM      5  N   UNL     1       3.499   7.195  -6.193  0.00  0.00    -0.247 NA
ATOM      6  C   UNL     1       3.593   7.277  -4.843  0.00  0.00    +0.102 A 
ATOM      7  C   UNL     1       2.730   6.563  -4.022  0.00  0.00    +0.057 A 
ENDROOT
BRANCH   4   8
ATOM      8  C   UNL     1       2.223   6.665  -8.269  0.00  0.00    +0.145 C 
BRANCH   8   9
ATOM      9  S   UNL     1       2.385   4.892  -8.744  0.00  0.00    +0.107 S 
ATOM     10  O   UNL     1       2.895   4.305  -7.394  0.00  0.00    -0.248 OA
BRANCH   9  11
ATOM     11  C   UNL     1       3.920   4.944  -9.700  0.00  0.00    +0.221 A 
ATOM     12  N   UNL     1       5.132   5.009  -9.098  0.00  0.00    -0.218 NA
ATOM     13  C   UNL     1       6.035   5.559  -9.947  0.00  0.00    +0.101 A 
ATOM     14  C   UNL     1       5.413   5.645 -11.186  0.00  0.00    +0.101 A 
ATOM     15  C   UNL     1       5.908   6.629 -12.034  0.00  0.00    +0.021 A 
ATOM     16  C   UNL     1       7.010   7.391 -11.742  0.00  0.00    +0.002 A 
ATOM     17  C   UNL     1       7.532   7.363 -10.462  0.00  0.00    +0.002 A 
ATOM     18  C   UNL     1       7.228   6.233  -9.714  0.00  0.00    +0.021 A 
ATOM     19  N   UNL     1       4.102   5.394 -10.940  0.00  0.00    -0.218 NA
ENDBRANCH   9  11
ENDBRANCH   8   9
ENDBRANCH   4   8
BRANCH   1  20
ATOM     20  O   UNL     1       0.869   4.989  -4.001  0.00  0.00    -0.476 OA
BRANCH  20  21
ATOM     21  C   UNL     1       0.053   5.251  -2.861  0.00  0.00    +0.208 C 
BRANCH  21  22
ATOM     22  C   UNL     1      -1.094   6.188  -3.212  0.00  0.00    +0.079 C 
BRANCH  22  23
ATOM     23  C   UNL     1      -2.414   5.428  -3.247  0.00  0.00    +0.146 C 
BRANCH  23  25
ATOM     24  C   UNL     1      -3.580   6.491  -2.413  0.00  0.00    +0.174 C 
ATOM     25  O   UNL     1      -3.439   6.275  -2.796  0.00  0.00    -0.351 OA
ENDBRANCH  23  25
ENDBRANCH  22  23
ENDBRANCH  21  22
ENDBRANCH  20  21
ENDBRANCH   1  20
TORSDOF 8
ENDMDL
