MODEL 1
REMARK VINA RESULT:      -7.7      0.000      0.000
REMARK  Name = 
REMARK  6 active torsions:
REMARK  status: ('A' for Active; 'I' for Inactive)
REMARK    1  A    between atoms: C_5  and  C_6
REMARK    2  A    between atoms: C_6  and  S_7
REMARK    3  A    between atoms: S_7  and  C_8
REMARK    4  A    between atoms: C_8  and  C_9
REMARK    5  A    between atoms: C_8  and  C_15
REMARK    6  A    between atoms: C_9  and  N_10
REMARK                            x       y       z     vdW  Elec       q    Type
REMARK                         _______ _______ _______ _____ _____    ______ ____
ROOT
ATOM      1  C   UNL     1       2.195   6.057  -7.534  0.00  0.00    +0.093 C 
ENDROOT
BRANCH   1   2
ATOM      2  C   UNL     1       2.527   5.419  -6.142  0.00  0.00    +0.000 A 
ATOM      3  C   UNL     1       1.751   5.905  -5.098  0.00  0.00    +0.055 A 
ATOM      4 CL   UNL     1       0.336   6.906  -5.400  0.00  0.00    -0.083 Cl
ATOM      5  C   UNL     1       2.251   5.762  -3.811  0.00  0.00    +0.022 A 
ATOM      6  C   UNL     1       3.558   5.361  -3.595  0.00  0.00    +0.058 A 
ATOM      7 CL   UNL     1       4.160   5.194  -1.955  0.00  0.00    -0.082 Cl
ATOM      8  C   UNL     1       4.427   5.357  -4.670  0.00  0.00    +0.011 A 
ATOM      9  C   UNL     1       3.896   5.294  -5.928  0.00  0.00    -0.002 A 
ENDBRANCH   1   2
BRANCH   1  10
ATOM     10  S   UNL     1       3.838   5.496  -8.342  0.00  0.00    -0.130 S 
BRANCH  10  11
ATOM     11  C   UNL     1       4.049   6.636  -9.734  0.00  0.00    +0.084 C 
BRANCH  11  16
ATOM     12 CL   UNL     1       9.315   5.834 -12.164  0.00  0.00    -0.082 Cl
ATOM     13  C   UNL     1       7.965   6.290 -11.288  0.00  0.00    +0.058 A 
ATOM     14  C   UNL     1       7.611   5.588 -10.143  0.00  0.00    +0.011 A 
ATOM     15  C   UNL     1       6.382   5.782  -9.536  0.00  0.00    -0.003 A 
ATOM     16  C   UNL     1       5.442   6.538 -10.227  0.00  0.00    -0.011 A 
ATOM     17  C   UNL     1       5.864   7.489 -11.145  0.00  0.00    -0.003 A 
ATOM     18  C   UNL     1       7.161   7.355 -11.624  0.00  0.00    +0.011 A 
ENDBRANCH  11  16
ENDBRANCH  10  11
ENDBRANCH   1  10
BRANCH   1  19
ATOM     19  C   UNL     1       1.372   4.793  -8.058  0.00  0.00    +0.123 C 
BRANCH  19  20
ATOM     20  N   UNL     1       0.731   5.213  -9.276  0.00  0.00    -0.307 N 
ATOM     21  C   UNL     1       0.355   6.486  -9.540  0.00  0.00    +0.179 A 
ATOM     22  N   UNL     1       0.542   6.739 -10.859  0.00  0.00    -0.222 NA
ATOM     23  C   UNL     1       0.704   5.547 -11.481  0.00  0.00    +0.119 A 
ATOM     24  C   UNL     1       0.648   4.591 -10.474  0.00  0.00    +0.098 A 
ENDBRANCH  19  20
ENDBRANCH   1  19
TORSDOF 6
ENDMDL
MODEL 2
REMARK VINA RESULT:      -7.7      3.837      8.494
REMARK  Name = 
REMARK  6 active torsions:
REMARK  status: ('A' for Active; 'I' for Inactive)
REMARK    1  A    between atoms: C_5  and  C_6
REMARK    2  A    between atoms: C_6  and  S_7
REMARK    3  A    between atoms: S_7  and  C_8
REMARK    4  A    between atoms: C_8  and  C_9
REMARK    5  A    between atoms: C_8  and  C_15
REMARK    6  A    between atoms: C_9  and  N_10
REMARK                            x       y       z     vdW  Elec       q    Type
REMARK                         _______ _______ _______ _____ _____    ______ ____
ROOT
ATOM      1  C   UNL     1       0.373   5.992  -6.435  0.00  0.00    +0.093 C 
ENDROOT
BRANCH   1   2
ATOM      2  C   UNL     1       0.922   5.690  -7.872  0.00  0.00    +0.000 A 
ATOM      3  C   UNL     1       2.021   6.462  -8.230  0.00  0.00    +0.055 A 
ATOM      4 CL   UNL     1       2.872   7.446  -7.046  0.00  0.00    -0.083 Cl
ATOM      5  C   UNL     1       2.285   6.604  -9.586  0.00  0.00    +0.022 A 
ATOM      6  C   UNL     1       1.371   6.187 -10.538  0.00  0.00    +0.058 A 
ATOM      7 CL   UNL     1       1.735   6.385 -12.242  0.00  0.00    -0.082 Cl
ATOM      8  C   UNL     1       0.091   5.869 -10.120  0.00  0.00    +0.011 A 
ATOM      9  C   UNL     1      -0.095   5.537  -8.808  0.00  0.00    -0.002 A 
ENDBRANCH   1   2
BRANCH   1  10
ATOM     10  S   UNL     1      -1.312   5.136  -6.746  0.00  0.00    -0.130 S 
BRANCH  10  11
ATOM     11  C   UNL     1      -2.526   6.324  -6.115  0.00  0.00    +0.084 C 
BRANCH  11  16
ATOM     12 CL   UNL     1      -1.452   6.376  -0.359  0.00  0.00    -0.082 Cl
ATOM     13  C   UNL     1      -2.052   6.482  -1.917  0.00  0.00    +0.058 A 
ATOM     14  C   UNL     1      -2.663   5.381  -2.502  0.00  0.00    +0.011 A 
ATOM     15  C   UNL     1      -2.951   5.358  -3.857  0.00  0.00    -0.003 A 
ATOM     16  C   UNL     1      -2.420   6.378  -4.638  0.00  0.00    -0.011 A 
ATOM     17  C   UNL     1      -2.127   7.606  -4.063  0.00  0.00    -0.003 A 
ATOM     18  C   UNL     1      -1.993   7.626  -2.681  0.00  0.00    +0.011 A 
ENDBRANCH  11  16
ENDBRANCH  10  11
ENDBRANCH   1  10
BRANCH   1  19
ATOM     19  C   UNL     1       1.038   4.700  -5.773  0.00  0.00    +0.123 C 
BRANCH  19  20
ATOM     20  N   UNL     1       1.755   5.172  -4.617  0.00  0.00    -0.307 N 
ATOM     21  C   UNL     1       3.080   4.987  -4.414  0.00  0.00    +0.179 A 
ATOM     22  N   UNL     1       3.591   6.082  -3.799  0.00  0.00    -0.222 NA
ATOM     23  C   UNL     1       2.549   6.795  -3.311  0.00  0.00    +0.119 A 
ATOM     24  C   UNL     1       1.409   6.102  -3.700  0.00  0.00    +0.098 A 
ENDBRANCH  19  20
ENDBRANCH   1  19
TORSDOF 6
ENDMDL
MODEL 3
REMARK VINA RESULT:      -7.7      2.933      6.548
REMARK  Name = 
REMARK  6 active torsions:
REMARK  status: ('A' for Active; 'I' for Inactive)
REMARK    1  A    between atoms: C_5  and  C_6
REMARK    2  A    between atoms: C_6  and  S_7
REMARK    3  A    between atoms: S_7  and  C_8
REMARK    4  A    between atoms: C_8  and  C_9
REMARK    5  A    between atoms: C_8  and  C_15
REMARK    6  A    between atoms: C_9  and  N_10
REMARK                            x       y       z     vdW  Elec       q    Type
REMARK                         _______ _______ _______ _____ _____    ______ ____
ROOT
ATOM      1  C   UNL     1       2.877   5.458  -8.316  0.00  0.00    +0.093 C 
ENDROOT
BRANCH   1   2
ATOM      2  C   UNL     1       3.560   5.580  -6.910  0.00  0.00    +0.000 A 
ATOM      3  C   UNL     1       3.104   4.655  -5.979  0.00  0.00    +0.055 A 
ATOM      4 CL   UNL     1       2.090   3.300  -6.457  0.00  0.00    -0.083 Cl
ATOM      5  C   UNL     1       3.289   4.958  -4.637  0.00  0.00    +0.022 A 
ATOM      6  C   UNL     1       3.702   6.219  -4.241  0.00  0.00    +0.058 A 
ATOM      7 CL   UNL     1       3.921   6.569  -2.536  0.00  0.00    -0.082 Cl
ATOM      8  C   UNL     1       3.674   7.239  -5.174  0.00  0.00    +0.011 A 
ATOM      9  C   UNL     1       3.696   6.901  -6.499  0.00  0.00    -0.002 A 
ENDBRANCH   1   2
BRANCH   1  10
ATOM     10  S   UNL     1       1.467   6.683  -7.895  0.00  0.00    -0.130 S 
BRANCH  10  11
ATOM     11  C   UNL     1      -0.027   5.659  -7.943  0.00  0.00    +0.084 C 
BRANCH  11  16
ATOM     12 CL   UNL     1      -2.446   5.385  -2.619  0.00  0.00    -0.082 Cl
ATOM     13  C   UNL     1      -1.870   5.771  -4.141  0.00  0.00    +0.058 A 
ATOM     14  C   UNL     1      -2.626   5.466  -5.266  0.00  0.00    +0.011 A 
ATOM     15  C   UNL     1      -2.081   5.550  -6.537  0.00  0.00    -0.003 A 
ATOM     16  C   UNL     1      -0.708   5.743  -6.631  0.00  0.00    -0.011 A 
ATOM     17  C   UNL     1      -0.029   6.371  -5.597  0.00  0.00    -0.003 A 
ATOM     18  C   UNL     1      -0.669   6.403  -4.365  0.00  0.00    +0.011 A 
ENDBRANCH  11  16
ENDBRANCH  10  11
ENDBRANCH   1  10
BRANCH   1  19
ATOM     19  C   UNL     1       3.797   6.571  -8.998  0.00  0.00    +0.123 C 
BRANCH  19  20
ATOM     20  N   UNL     1       4.756   5.857  -9.799  0.00  0.00    -0.307 N 
ATOM     21  C   UNL     1       4.507   5.377 -11.040  0.00  0.00    +0.179 A 
ATOM     22  N   UNL     1       5.627   5.497 -11.794  0.00  0.00    -0.222 NA
ATOM     23  C   UNL     1       6.661   5.724 -10.950  0.00  0.00    +0.119 A 
ATOM     24  C   UNL     1       6.100   5.777  -9.680  0.00  0.00    +0.098 A 
ENDBRANCH  19  20
ENDBRANCH   1  19
TORSDOF 6
ENDMDL
MODEL 4
REMARK VINA RESULT:      -7.6      3.854      6.126
REMARK  Name = 
REMARK  6 active torsions:
REMARK  status: ('A' for Active; 'I' for Inactive)
REMARK    1  A    between atoms: C_5  and  C_6
REMARK    2  A    between atoms: C_6  and  S_7
REMARK    3  A    between atoms: S_7  and  C_8
REMARK    4  A    between atoms: C_8  and  C_9
REMARK    5  A    between atoms: C_8  and  C_15
REMARK    6  A    between atoms: C_9  and  N_10
REMARK                            x       y       z     vdW  Elec       q    Type
REMARK                         _______ _______ _______ _____ _____    ______ ____
ROOT
ATOM      1  C   UNL     1       3.051   5.728  -4.778  0.00  0.00    +0.093 C 
ENDROOT
BRANCH   1   2
ATOM      2  C   UNL     1       1.489   5.602  -4.814  0.00  0.00    +0.000 A 
ATOM      3  C   UNL     1       1.019   4.658  -5.718  0.00  0.00    +0.055 A 
ATOM      4 CL   UNL     1       2.108   3.518  -6.498  0.00  0.00    -0.083 Cl
ATOM      5  C   UNL     1      -0.294   4.787  -6.150  0.00  0.00    +0.022 A 
ATOM      6  C   UNL     1      -1.027   5.928  -5.872  0.00  0.00    +0.058 A 
ATOM      7 CL   UNL     1      -2.682   6.061  -6.437  0.00  0.00    -0.082 Cl
ATOM      8  C   UNL     1      -0.355   7.035  -5.387  0.00  0.00    +0.011 A 
ATOM      9  C   UNL     1       0.856   6.840  -4.782  0.00  0.00    -0.002 A 
ENDBRANCH   1   2
BRANCH   1  10
ATOM     10  S   UNL     1       3.120   7.027  -6.183  0.00  0.00    -0.130 S 
BRANCH  10  11
ATOM     11  C   UNL     1       3.978   6.167  -7.528  0.00  0.00    +0.084 C 
BRANCH  11  16
ATOM     12 CL   UNL     1       0.351   5.576 -12.085  0.00  0.00    -0.082 Cl
ATOM     13  C   UNL     1       1.421   6.053 -10.891  0.00  0.00    +0.058 A 
ATOM     14  C   UNL     1       2.783   5.832 -11.051  0.00  0.00    +0.011 A 
ATOM     15  C   UNL     1       3.662   5.992  -9.994  0.00  0.00    -0.003 A 
ATOM     16  C   UNL     1       3.113   6.174  -8.730  0.00  0.00    -0.011 A 
ATOM     17  C   UNL     1       1.846   6.724  -8.602  0.00  0.00    -0.003 A 
ATOM     18  C   UNL     1       1.037   6.684  -9.730  0.00  0.00    +0.011 A 
ENDBRANCH  11  16
ENDBRANCH  10  11
ENDBRANCH   1  10
BRANCH   1  19
ATOM     19  C   UNL     1       3.061   6.819  -3.612  0.00  0.00    +0.123 C 
BRANCH  19  20
ATOM     20  N   UNL     1       3.742   6.206  -2.502  0.00  0.00    -0.307 N 
ATOM     21  C   UNL     1       3.755   6.707  -1.245  0.00  0.00    +0.179 A 
ATOM     22  N   UNL     1       3.727   5.681  -0.359  0.00  0.00    -0.222 NA
ATOM     23  C   UNL     1       4.041   4.551  -1.037  0.00  0.00    +0.119 A 
ATOM     24  C   UNL     1       4.211   4.946  -2.359  0.00  0.00    +0.098 A 
ENDBRANCH  19  20
ENDBRANCH   1  19
TORSDOF 6
ENDMDL
MODEL 5
REMARK VINA RESULT:      -7.5      1.747      6.523
REMARK  Name = 
REMARK  6 active torsions:
REMARK  status: ('A' for Active; 'I' for Inactive)
REMARK    1  A    between atoms: C_5  and  C_6
REMARK    2  A    between atoms: C_6  and  S_7
REMARK    3  A    between atoms: S_7  and  C_8
REMARK    4  A    between atoms: C_8  and  C_9
REMARK    5  A    between atoms: C_8  and  C_15
REMARK    6  A    between atoms: C_9  and  N_10
REMARK                            x       y       z     vdW  Elec       q    Type
REMARK                         _______ _______ _______ _____ _____    ______ ____
ROOT
ATOM      1  C   UNL     1       4.144   5.158  -9.966  0.00  0.00    +0.093 C 
ENDROOT
BRANCH   1   2
ATOM      2  C   UNL     1       5.421   5.818 -10.591  0.00  0.00    +0.000 A 
ATOM      3  C   UNL     1       5.603   5.532 -11.938  0.00  0.00    +0.055 A 
ATOM      4 CL   UNL     1       4.340   4.760 -12.888  0.00  0.00    -0.083 Cl
ATOM      5  C   UNL     1       6.886   5.670 -12.451  0.00  0.00    +0.022 A 
ATOM      6  C   UNL     1       7.971   5.864 -11.614  0.00  0.00    +0.058 A 
ATOM      7 CL   UNL     1       9.579   6.030 -12.295  0.00  0.00    -0.082 Cl
ATOM      8  C   UNL     1       7.796   5.658 -10.258  0.00  0.00    +0.011 A 
ATOM      9  C   UNL     1       6.528   5.730  -9.754  0.00  0.00    -0.002 A 
ENDBRANCH   1   2
BRANCH   1  10
ATOM     10  S   UNL     1       4.870   5.094  -8.196  0.00  0.00    -0.130 S 
BRANCH  10  11
ATOM     11  C   UNL     1       3.426   5.319  -7.125  0.00  0.00    +0.084 C 
BRANCH  11  16
ATOM     12 CL   UNL     1       4.584   7.144  -1.684  0.00  0.00    -0.082 Cl
ATOM     13  C   UNL     1       4.573   6.549  -3.247  0.00  0.00    +0.058 A 
ATOM     14  C   UNL     1       4.727   7.417  -4.321  0.00  0.00    +0.011 A 
ATOM     15  C   UNL     1       4.484   6.998  -5.619  0.00  0.00    -0.003 A 
ATOM     16  C   UNL     1       3.885   5.756  -5.786  0.00  0.00    -0.011 A 
ATOM     17  C   UNL     1       4.041   4.779  -4.814  0.00  0.00    -0.003 A 
ATOM     18  C   UNL     1       4.433   5.215  -3.555  0.00  0.00    +0.011 A 
ENDBRANCH  11  16
ENDBRANCH  10  11
ENDBRANCH   1  10
BRANCH   1  19
ATOM     19  C   UNL     1       3.389   6.545  -9.731  0.00  0.00    +0.123 C 
BRANCH  19  20
ATOM     20  N   UNL     1       2.057   6.364 -10.244  0.00  0.00    -0.307 N 
ATOM     21  C   UNL     1       1.717   6.501 -11.547  0.00  0.00    +0.179 A 
ATOM     22  N   UNL     1       0.763   5.587 -11.854  0.00  0.00    -0.222 NA
ATOM     23  C   UNL     1       0.262   5.117 -10.687  0.00  0.00    +0.119 A 
ATOM     24  C   UNL     1       0.986   5.755  -9.687  0.00  0.00    +0.098 A 
ENDBRANCH  19  20
ENDBRANCH   1  19
TORSDOF 6
ENDMDL
MODEL 6
REMARK VINA RESULT:      -7.5      3.244      7.513
REMARK  Name = 
REMARK  6 active torsions:
REMARK  status: ('A' for Active; 'I' for Inactive)
REMARK    1  A    between atoms: C_5  and  C_6
REMARK    2  A    between atoms: C_6  and  S_7
REMARK    3  A    between atoms: S_7  and  C_8
REMARK    4  A    between atoms: C_8  and  C_9
REMARK    5  A    between atoms: C_8  and  C_15
REMARK    6  A    between atoms: C_9  and  N_10
REMARK                            x       y       z     vdW  Elec       q    Type
REMARK                         _______ _______ _______ _____ _____    ______ ____
ROOT
ATOM      1  C   UNL     1       2.844   6.414  -7.161  0.00  0.00    +0.093 C 
ENDROOT
BRANCH   1   2
ATOM      2  C   UNL     1       3.684   6.571  -8.475  0.00  0.00    +0.000 A 
ATOM      3  C   UNL     1       2.917   6.653  -9.630  0.00  0.00    +0.055 A 
ATOM      4 CL   UNL     1       1.173   6.871  -9.556  0.00  0.00    -0.083 Cl
ATOM      5  C   UNL     1       3.537   6.337 -10.832  0.00  0.00    +0.022 A 
ATOM      6  C   UNL     1       4.791   5.750 -10.854  0.00  0.00    +0.058 A 
ATOM      7 CL   UNL     1       5.544   5.360 -12.389  0.00  0.00    -0.082 Cl
ATOM      8  C   UNL     1       5.299   5.250  -9.669  0.00  0.00    +0.011 A 
ATOM      9  C   UNL     1       4.798   5.738  -8.495  0.00  0.00    -0.002 A 
ENDBRANCH   1   2
BRANCH   1  10
ATOM     10  S   UNL     1       2.413   4.577  -7.487  0.00  0.00    -0.130 S 
BRANCH  10  11
ATOM     11  C   UNL     1       1.626   4.036  -5.947  0.00  0.00    +0.084 C 
BRANCH  11  16
ATOM     12 CL   UNL     1      -2.784   7.826  -5.258  0.00  0.00    -0.082 Cl
ATOM     13  C   UNL     1      -1.748   6.517  -5.373  0.00  0.00    +0.058 A 
ATOM     14  C   UNL     1      -0.965   6.154  -4.285  0.00  0.00    +0.011 A 
ATOM     15  C   UNL     1       0.066   5.240  -4.420  0.00  0.00    -0.003 A 
ATOM     16  C   UNL     1       0.419   4.863  -5.711  0.00  0.00    -0.011 A 
ATOM     17  C   UNL     1      -0.521   4.927  -6.729  0.00  0.00    -0.003 A 
ATOM     18  C   UNL     1      -1.624   5.739  -6.502  0.00  0.00    +0.011 A 
ENDBRANCH  11  16
ENDBRANCH  10  11
ENDBRANCH   1  10
BRANCH   1  19
ATOM     19  C   UNL     1       4.107   6.076  -6.245  0.00  0.00    +0.123 C 
BRANCH  19  20
ATOM     20  N   UNL     1       4.054   6.998  -5.141  0.00  0.00    -0.307 N 
ATOM     21  C   UNL     1       2.965   7.193  -4.362  0.00  0.00    +0.179 A 
ATOM     22  N   UNL     1       3.367   7.417  -3.086  0.00  0.00    -0.222 NA
ATOM     23  C   UNL     1       4.690   7.703  -3.123  0.00  0.00    +0.119 A 
ATOM     24  C   UNL     1       5.057   7.595  -4.459  0.00  0.00    +0.098 A 
ENDBRANCH  19  20
ENDBRANCH   1  19
TORSDOF 6
ENDMDL
MODEL 7
REMARK VINA RESULT:      -7.4      1.493      1.815
REMARK  Name = 
REMARK  6 active torsions:
REMARK  status: ('A' for Active; 'I' for Inactive)
REMARK    1  A    between atoms: C_5  and  C_6
REMARK    2  A    between atoms: C_6  and  S_7
REMARK    3  A    between atoms: S_7  and  C_8
REMARK    4  A    between atoms: C_8  and  C_9
REMARK    5  A    between atoms: C_8  and  C_15
REMARK    6  A    between atoms: C_9  and  N_10
REMARK                            x       y       z     vdW  Elec       q    Type
REMARK                         _______ _______ _______ _____ _____    ______ ____
ROOT
ATOM      1  C   UNL     1       1.181   6.441  -7.631  0.00  0.00    +0.093 C 
ENDROOT
BRANCH   1   2
ATOM      2  C   UNL     1       1.113   5.757  -6.222  0.00  0.00    +0.000 A 
ATOM      3  C   UNL     1      -0.180   5.523  -5.770  0.00  0.00    +0.055 A 
ATOM      4 CL   UNL     1      -1.568   5.704  -6.835  0.00  0.00    -0.083 Cl
ATOM      5  C   UNL     1      -0.357   5.360  -4.403  0.00  0.00    +0.022 A 
ATOM      6  C   UNL     1       0.665   5.641  -3.513  0.00  0.00    +0.058 A 
ATOM      7 CL   UNL     1       0.406   5.428  -1.791  0.00  0.00    -0.082 Cl
ATOM      8  C   UNL     1       1.769   6.330  -3.981  0.00  0.00    +0.011 A 
ATOM      9  C   UNL     1       2.025   6.299  -5.324  0.00  0.00    -0.002 A 
ENDBRANCH   1   2
BRANCH   1  10
ATOM     10  S   UNL     1       3.068   6.756  -7.543  0.00  0.00    -0.130 S 
BRANCH  10  11
ATOM     11  C   UNL     1       3.790   5.294  -8.333  0.00  0.00    +0.084 C 
BRANCH  11  16
ATOM     12 CL   UNL     1       8.019   6.471 -12.208  0.00  0.00    -0.082 Cl
ATOM     13  C   UNL     1       6.898   6.422 -10.967  0.00  0.00    +0.058 A 
ATOM     14  C   UNL     1       7.201   5.763  -9.783  0.00  0.00    +0.011 A 
ATOM     15  C   UNL     1       6.222   5.498  -8.841  0.00  0.00    -0.003 A 
ATOM     16  C   UNL     1       4.902   5.725  -9.212  0.00  0.00    -0.011 A 
ATOM     17  C   UNL     1       4.614   6.662 -10.194  0.00  0.00    -0.003 A 
ATOM     18  C   UNL     1       5.661   7.022 -11.033  0.00  0.00    +0.011 A 
ENDBRANCH  11  16
ENDBRANCH  10  11
ENDBRANCH   1  10
BRANCH   1  19
ATOM     19  C   UNL     1       1.332   5.067  -8.429  0.00  0.00    +0.123 C 
BRANCH  19  20
ATOM     20  N   UNL     1       0.608   5.243  -9.661  0.00  0.00    -0.307 N 
ATOM     21  C   UNL     1       0.329   6.445 -10.217  0.00  0.00    +0.179 A 
ATOM     22  N   UNL     1       0.397   6.336 -11.567  0.00  0.00    -0.222 NA
ATOM     23  C   UNL     1       0.378   5.015 -11.867  0.00  0.00    +0.119 A 
ATOM     24  C   UNL     1       0.339   4.355 -10.645  0.00  0.00    +0.098 A 
ENDBRANCH  19  20
ENDBRANCH   1  19
TORSDOF 6
ENDMDL
MODEL 8
REMARK VINA RESULT:      -7.4      2.613      3.800
REMARK  Name = 
REMARK  6 active torsions:
REMARK  status: ('A' for Active; 'I' for Inactive)
REMARK    1  A    between atoms: C_5  and  C_6
REMARK    2  A    between atoms: C_6  and  S_7
REMARK    3  A    between atoms: S_7  and  C_8
REMARK    4  A    between atoms: C_8  and  C_9
REMARK    5  A    between atoms: C_8  and  C_15
REMARK    6  A    between atoms: C_9  and  N_10
REMARK                            x       y       z     vdW  Elec       q    Type
REMARK                         _______ _______ _______ _____ _____    ______ ____
ROOT
ATOM      1  C   UNL     1       1.143   5.424  -6.614  0.00  0.00    +0.093 C 
ENDROOT
BRANCH   1   2
ATOM      2  C   UNL     1       2.188   6.068  -5.638  0.00  0.00    +0.000 A 
ATOM      3  C   UNL     1       2.908   7.117  -6.194  0.00  0.00    +0.055 A 
ATOM      4 CL   UNL     1       2.447   7.827  -7.736  0.00  0.00    -0.083 Cl
ATOM      5  C   UNL     1       4.125   7.437  -5.606  0.00  0.00    +0.022 A 
ATOM      6  C   UNL     1       4.698   6.608  -4.658  0.00  0.00    +0.058 A 
ATOM      7 CL   UNL     1       6.238   7.040  -3.938  0.00  0.00    -0.082 Cl
ATOM      8  C   UNL     1       4.174   5.339  -4.497  0.00  0.00    +0.011 A 
ATOM      9  C   UNL     1       2.890   5.114  -4.909  0.00  0.00    -0.002 A 
ENDBRANCH   1   2
BRANCH   1  10
ATOM     10  S   UNL     1       2.350   4.078  -7.245  0.00  0.00    -0.130 S 
BRANCH  10  11
ATOM     11  C   UNL     1       2.453   4.389  -9.027  0.00  0.00    +0.084 C 
BRANCH  11  16
ATOM     12 CL   UNL     1       7.586   7.004 -10.071  0.00  0.00    -0.082 Cl
ATOM     13  C   UNL     1       6.283   5.981  -9.845  0.00  0.00    +0.058 A 
ATOM     14  C   UNL     1       5.395   5.746 -10.887  0.00  0.00    +0.011 A 
ATOM     15  C   UNL     1       4.187   5.106 -10.667  0.00  0.00    -0.003 A 
ATOM     16  C   UNL     1       3.807   4.897  -9.347  0.00  0.00    -0.011 A 
ATOM     17  C   UNL     1       4.775   4.802  -8.358  0.00  0.00    -0.003 A 
ATOM     18  C   UNL     1       6.027   5.321  -8.665  0.00  0.00    +0.011 A 
ENDBRANCH  11  16
ENDBRANCH  10  11
ENDBRANCH   1  10
BRANCH   1  19
ATOM     19  C   UNL     1       0.494   4.484  -5.499  0.00  0.00    +0.123 C 
BRANCH  19  20
ATOM     20  N   UNL     1      -0.508   5.281  -4.841  0.00  0.00    -0.307 N 
ATOM     21  C   UNL     1      -1.606   5.781  -5.453  0.00  0.00    +0.179 A 
ATOM     22  N   UNL     1      -2.648   5.755  -4.585  0.00  0.00    -0.222 NA
ATOM     23  C   UNL     1      -2.136   5.567  -3.345  0.00  0.00    +0.119 A 
ATOM     24  C   UNL     1      -0.764   5.441  -3.523  0.00  0.00    +0.098 A 
ENDBRANCH  19  20
ENDBRANCH   1  19
TORSDOF 6
ENDMDL
MODEL 9
REMARK VINA RESULT:      -7.4      3.308      5.265
REMARK  Name = 
REMARK  6 active torsions:
REMARK  status: ('A' for Active; 'I' for Inactive)
REMARK    1  A    between atoms: C_5  and  C_6
REMARK    2  A    between atoms: C_6  and  S_7
REMARK    3  A    between atoms: S_7  and  C_8
REMARK    4  A    between atoms: C_8  and  C_9
REMARK    5  A    between atoms: C_8  and  C_15
REMARK    6  A    between atoms: C_9  and  N_10
REMARK                            x       y       z     vdW  Elec       q    Type
REMARK                         _______ _______ _______ _____ _____    ______ ____
ROOT
ATOM      1  C   UNL     1       1.159   5.248  -7.898  0.00  0.00    +0.093 C 
ENDROOT
BRANCH   1   2
ATOM      2  C   UNL     1       0.183   5.814  -6.810  0.00  0.00    +0.000 A 
ATOM      3  C   UNL     1       0.548   5.503  -5.506  0.00  0.00    +0.055 A 
ATOM      4 CL   UNL     1       2.123   4.809  -5.138  0.00  0.00    -0.083 Cl
ATOM      5  C   UNL     1      -0.445   5.549  -4.537  0.00  0.00    +0.022 A 
ATOM      6  C   UNL     1      -1.778   5.677  -4.889  0.00  0.00    +0.058 A 
ATOM      7 CL   UNL     1      -3.009   5.727  -3.640  0.00  0.00    -0.082 Cl
ATOM      8  C   UNL     1      -2.125   5.496  -6.215  0.00  0.00    +0.011 A 
ATOM      9  C   UNL     1      -1.153   5.659  -7.163  0.00  0.00    -0.002 A 
ENDBRANCH   1   2
BRANCH   1  10
ATOM     10  S   UNL     1       0.005   5.682  -9.363  0.00  0.00    -0.130 S 
BRANCH  10  11
ATOM     11  C   UNL     1       0.619   4.649 -10.719  0.00  0.00    +0.084 C 
BRANCH  11  16
ATOM     12 CL   UNL     1      -0.023   7.699 -15.676  0.00  0.00    -0.082 Cl
ATOM     13  C   UNL     1       0.467   6.947 -14.264  0.00  0.00    +0.058 A 
ATOM     14  C   UNL     1       0.955   5.647 -14.304  0.00  0.00    +0.011 A 
ATOM     15  C   UNL     1       1.140   4.917 -13.142  0.00  0.00    -0.003 A 
ATOM     16  C   UNL     1       0.626   5.450 -11.965  0.00  0.00    -0.011 A 
ATOM     17  C   UNL     1       0.463   6.822 -11.844  0.00  0.00    -0.003 A 
ATOM     18  C   UNL     1       0.432   7.549 -13.027  0.00  0.00    +0.011 A 
ENDBRANCH  11  16
ENDBRANCH  10  11
ENDBRANCH   1  10
BRANCH   1  19
ATOM     19  C   UNL     1       2.008   6.595  -8.017  0.00  0.00    +0.123 C 
BRANCH  19  20
ATOM     20  N   UNL     1       3.201   6.250  -8.745  0.00  0.00    -0.307 N 
ATOM     21  C   UNL     1       3.833   5.057  -8.651  0.00  0.00    +0.179 A 
ATOM     22  N   UNL     1       4.330   4.722  -9.868  0.00  0.00    -0.222 NA
ATOM     23  C   UNL     1       4.313   5.839 -10.633  0.00  0.00    +0.119 A 
ATOM     24  C   UNL     1       3.750   6.828  -9.837  0.00  0.00    +0.098 A 
ENDBRANCH  19  20
ENDBRANCH   1  19
TORSDOF 6
ENDMDL
