MODEL 1
REMARK VINA RESULT:      -5.6      0.000      0.000
REMARK  Name = 
REMARK  1 active torsions:
REMARK  status: ('A' for Active; 'I' for Inactive)
REMARK    1  A    between atoms: C_6  and  C_7
REMARK                            x       y       z     vdW  Elec       q    Type
REMARK                         _______ _______ _______ _____ _____    ______ ____
ROOT
ATOM      1  C   UNL     1       6.521   6.858 -13.098  0.00  0.00    +0.090 C 
ATOM      2  N   UNL     1       6.658   6.615 -12.830  0.00  0.00    -0.269 NA
ATOM      3  C   UNL     1       7.055   7.223 -11.437  0.00  0.00    +0.082 C 
ATOM      4  C   UNL     1       8.190   6.091 -11.068  0.00  0.00    +0.022 C 
ATOM      5  C   UNL     1       8.781   5.883 -12.454  0.00  0.00    +0.019 C 
ATOM      6  C   UNL     1       7.432   5.478 -13.025  0.00  0.00    +0.072 C 
ENDROOT
BRANCH   3   7
ATOM      7  C   UNL     1       5.873   6.441 -10.662  0.00  0.00    +0.011 A 
ATOM      8  C   UNL     1       4.721   7.106 -10.429  0.00  0.00    +0.096 A 
ATOM      9  N   UNL     1       3.751   6.471  -9.725  0.00  0.00    -0.243 NA
ATOM     10  C   UNL     1       4.119   5.540  -8.843  0.00  0.00    +0.099 A 
ATOM     11  C   UNL     1       5.468   5.280  -8.639  0.00  0.00    +0.020 A 
ATOM     12  C   UNL     1       6.389   5.759  -9.563  0.00  0.00    +0.000 A 
ENDBRANCH   3   7
TORSDOF 1
ENDMDL
MODEL 2
REMARK VINA RESULT:      -5.1      5.386      7.588
REMARK  Name = 
REMARK  1 active torsions:
REMARK  status: ('A' for Active; 'I' for Inactive)
REMARK    1  A    between atoms: C_6  and  C_7
REMARK                            x       y       z     vdW  Elec       q    Type
REMARK                         _______ _______ _______ _____ _____    ______ ____
ROOT
ATOM      1  C   UNL     1       2.542   6.774  -6.370  0.00  0.00    +0.090 C 
ATOM      2  N   UNL     1       2.238   6.784  -6.608  0.00  0.00    -0.269 NA
ATOM      3  C   UNL     1       1.563   5.415  -6.977  0.00  0.00    +0.082 C 
ATOM      4  C   UNL     1       0.988   5.891  -8.443  0.00  0.00    +0.022 C 
ATOM      5  C   UNL     1       2.152   6.766  -8.883  0.00  0.00    +0.019 C 
ATOM      6  C   UNL     1       2.009   7.659  -7.662  0.00  0.00    +0.072 C 
ENDROOT
BRANCH   3   7
ATOM      7  C   UNL     1       0.193   5.783  -6.204  0.00  0.00    +0.011 A 
ATOM      8  C   UNL     1       0.062   5.380  -4.922  0.00  0.00    +0.096 A 
ATOM      9  N   UNL     1      -1.113   5.636  -4.292  0.00  0.00    -0.243 NA
ATOM     10  C   UNL     1      -2.219   5.723  -5.032  0.00  0.00    +0.099 A 
ATOM     11  C   UNL     1      -2.150   5.508  -6.402  0.00  0.00    +0.020 A 
ATOM     12  C   UNL     1      -0.904   5.516  -7.020  0.00  0.00    +0.000 A 
ENDBRANCH   3   7
TORSDOF 1
ENDMDL
MODEL 3
REMARK VINA RESULT:      -5.1      6.248      7.797
REMARK  Name = 
REMARK  1 active torsions:
REMARK  status: ('A' for Active; 'I' for Inactive)
REMARK    1  A    between atoms: C_6  and  C_7
REMARK                            x       y       z     vdW  Elec       q    Type
REMARK                         _______ _______ _______ _____ _____    ______ ____
ROOT
ATOM      1  C   UNL     1       2.002   3.888  -6.437  0.00  0.00    +0.090 C 
ATOM      2  N   UNL     1       1.985   4.229  -6.256  0.00  0.00    -0.269 NA
ATOM      3  C   UNL     1       1.491   5.465  -7.090  0.00  0.00    +0.082 C 
ATOM      4  C   UNL     1       2.311   6.599  -6.226  0.00  0.00    +0.022 C 
ATOM      5  C   UNL     1       3.588   5.818  -5.955  0.00  0.00    +0.019 C 
ATOM      6  C   UNL     1       2.821   4.708  -5.255  0.00  0.00    +0.072 C 
ENDROOT
BRANCH   3   7
ATOM      7  C   UNL     1       0.142   5.625  -6.218  0.00  0.00    +0.011 A 
ATOM      8  C   UNL     1      -1.029   5.276  -6.792  0.00  0.00    +0.096 A 
ATOM      9  N   UNL     1      -2.169   5.467  -6.081  0.00  0.00    -0.243 NA
ATOM     10  C   UNL     1      -2.190   6.447  -5.176  0.00  0.00    +0.099 A 
ATOM     11  C   UNL     1      -1.077   7.262  -5.018  0.00  0.00    +0.020 A 
ATOM     12  C   UNL     1       0.133   6.858  -5.570  0.00  0.00    +0.000 A 
ENDBRANCH   3   7
TORSDOF 1
ENDMDL
MODEL 4
REMARK VINA RESULT:      -5.0      7.556     10.713
REMARK  Name = 
REMARK  1 active torsions:
REMARK  status: ('A' for Active; 'I' for Inactive)
REMARK    1  A    between atoms: C_6  and  C_7
REMARK                            x       y       z     vdW  Elec       q    Type
REMARK                         _______ _______ _______ _____ _____    ______ ____
ROOT
ATOM      1  C   UNL     1      -0.875   6.526  -2.417  0.00  0.00    +0.090 C 
ATOM      2  N   UNL     1      -1.123   6.370  -2.669  0.00  0.00    -0.269 NA
ATOM      3  C   UNL     1      -1.604   7.274  -3.861  0.00  0.00    +0.082 C 
ATOM      4  C   UNL     1      -3.056   6.531  -4.071  0.00  0.00    +0.022 C 
ATOM      5  C   UNL     1      -3.396   6.254  -2.614  0.00  0.00    +0.019 C 
ATOM      6  C   UNL     1      -2.126   5.443  -2.419  0.00  0.00    +0.072 C 
ENDROOT
BRANCH   3   7
ATOM      7  C   UNL     1      -0.860   6.362  -4.967  0.00  0.00    +0.011 A 
ATOM      8  C   UNL     1       0.296   6.822  -5.492  0.00  0.00    +0.096 A 
ATOM      9  N   UNL     1       0.889   6.085  -6.466  0.00  0.00    -0.243 NA
ATOM     10  C   UNL     1       0.115   5.322  -7.240  0.00  0.00    +0.099 A 
ATOM     11  C   UNL     1      -1.262   5.335  -7.062  0.00  0.00    +0.020 A 
ATOM     12  C   UNL     1      -1.782   5.890  -5.898  0.00  0.00    +0.000 A 
ENDBRANCH   3   7
TORSDOF 1
ENDMDL
MODEL 5
REMARK VINA RESULT:      -4.9      1.617      2.366
REMARK  Name = 
REMARK  1 active torsions:
REMARK  status: ('A' for Active; 'I' for Inactive)
REMARK    1  A    between atoms: C_6  and  C_7
REMARK                            x       y       z     vdW  Elec       q    Type
REMARK                         _______ _______ _______ _____ _____    ______ ____
ROOT
ATOM      1  C   UNL     1       7.470   7.197 -10.498  0.00  0.00    +0.090 C 
ATOM      2  N   UNL     1       7.122   7.146 -10.658  0.00  0.00    -0.269 NA
ATOM      3  C   UNL     1       6.663   5.670 -10.938  0.00  0.00    +0.082 C 
ATOM      4  C   UNL     1       5.668   6.031 -12.197  0.00  0.00    +0.022 C 
ATOM      5  C   UNL     1       6.492   7.133 -12.846  0.00  0.00    +0.019 C 
ATOM      6  C   UNL     1       6.475   7.965 -11.574  0.00  0.00    +0.072 C 
ENDROOT
BRANCH   3   7
ATOM      7  C   UNL     1       5.477   5.739  -9.845  0.00  0.00    +0.011 A 
ATOM      8  C   UNL     1       5.739   5.293  -8.598  0.00  0.00    +0.096 A 
ATOM      9  N   UNL     1       4.725   5.294  -7.695  0.00  0.00    -0.243 NA
ATOM     10  C   UNL     1       3.477   5.169  -8.150  0.00  0.00    +0.099 A 
ATOM     11  C   UNL     1       3.253   4.999  -9.510  0.00  0.00    +0.020 A 
ATOM     12  C   UNL     1       4.287   5.271 -10.398  0.00  0.00    +0.000 A 
ENDBRANCH   3   7
TORSDOF 1
ENDMDL
MODEL 6
REMARK VINA RESULT:      -4.9      1.985      5.175
REMARK  Name = 
REMARK  1 active torsions:
REMARK  status: ('A' for Active; 'I' for Inactive)
REMARK    1  A    between atoms: C_6  and  C_7
REMARK                            x       y       z     vdW  Elec       q    Type
REMARK                         _______ _______ _______ _____ _____    ______ ____
ROOT
ATOM      1  C   UNL     1       2.729   3.909  -8.389  0.00  0.00    +0.090 C 
ATOM      2  N   UNL     1       2.682   4.215  -8.619  0.00  0.00    -0.269 NA
ATOM      3  C   UNL     1       3.181   5.605  -8.083  0.00  0.00    +0.082 C 
ATOM      4  C   UNL     1       2.118   6.518  -8.945  0.00  0.00    +0.022 C 
ATOM      5  C   UNL     1       0.900   5.612  -8.859  0.00  0.00    +0.019 C 
ATOM      6  C   UNL     1       1.646   4.461  -9.512  0.00  0.00    +0.072 C 
ENDROOT
BRANCH   3   7
ATOM      7  C   UNL     1       4.342   5.716  -9.200  0.00  0.00    +0.011 A 
ATOM      8  C   UNL     1       5.614   5.475  -8.817  0.00  0.00    +0.096 A 
ATOM      9  N   UNL     1       6.597   5.627  -9.741  0.00  0.00    -0.243 NA
ATOM     10  C   UNL     1       6.402   6.500 -10.730  0.00  0.00    +0.099 A 
ATOM     11  C   UNL     1       5.235   7.253 -10.765  0.00  0.00    +0.020 A 
ATOM     12  C   UNL     1       4.167   6.869  -9.962  0.00  0.00    +0.000 A 
ENDBRANCH   3   7
TORSDOF 1
ENDMDL
MODEL 7
REMARK VINA RESULT:      -4.9      3.631      5.863
REMARK  Name = 
REMARK  1 active torsions:
REMARK  status: ('A' for Active; 'I' for Inactive)
REMARK    1  A    between atoms: C_6  and  C_7
REMARK                            x       y       z     vdW  Elec       q    Type
REMARK                         _______ _______ _______ _____ _____    ______ ____
ROOT
ATOM      1  C   UNL     1       0.011   4.290 -10.888  0.00  0.00    +0.090 C 
ATOM      2  N   UNL     1       0.210   4.620 -10.909  0.00  0.00    -0.269 NA
ATOM      3  C   UNL     1       0.444   5.409  -9.571  0.00  0.00    +0.082 C 
ATOM      4  C   UNL     1       0.557   6.898 -10.262  0.00  0.00    +0.022 C 
ATOM      5  C   UNL     1      -0.498   6.740 -11.346  0.00  0.00    +0.019 C 
ATOM      6  C   UNL     1       0.224   5.544 -11.946  0.00  0.00    +0.072 C 
ENDROOT
BRANCH   3   7
ATOM      7  C   UNL     1       2.039   5.160  -9.601  0.00  0.00    +0.011 A 
ATOM      8  C   UNL     1       2.536   4.151  -8.853  0.00  0.00    +0.096 A 
ATOM      9  N   UNL     1       3.882   3.980  -8.830  0.00  0.00    -0.243 NA
ATOM     10  C   UNL     1       4.657   5.048  -9.025  0.00  0.00    +0.099 A 
ATOM     11  C   UNL     1       4.077   6.297  -9.200  0.00  0.00    +0.020 A 
ATOM     12  C   UNL     1       2.716   6.370  -9.479  0.00  0.00    +0.000 A 
ENDBRANCH   3   7
TORSDOF 1
ENDMDL
MODEL 8
REMARK VINA RESULT:      -4.8      6.673      7.526
REMARK  Name = 
REMARK  1 active torsions:
REMARK  status: ('A' for Active; 'I' for Inactive)
REMARK    1  A    between atoms: C_6  and  C_7
REMARK                            x       y       z     vdW  Elec       q    Type
REMARK                         _______ _______ _______ _____ _____    ______ ____
ROOT
ATOM      1  C   UNL     1       4.528   5.021  -3.523  0.00  0.00    +0.090 C 
ATOM      2  N   UNL     1       4.358   5.350  -3.635  0.00  0.00    -0.269 NA
ATOM      3  C   UNL     1       4.362   5.679  -5.171  0.00  0.00    +0.082 C 
ATOM      4  C   UNL     1       4.303   7.314  -5.001  0.00  0.00    +0.022 C 
ATOM      5  C   UNL     1       5.199   7.461  -3.781  0.00  0.00    +0.019 C 
ATOM      6  C   UNL     1       4.303   6.557  -2.950  0.00  0.00    +0.072 C 
ENDROOT
BRANCH   3   7
ATOM      7  C   UNL     1       2.759   5.529  -5.296  0.00  0.00    +0.011 A 
ATOM      8  C   UNL     1       2.269   4.382  -5.813  0.00  0.00    +0.096 A 
ATOM      9  N   UNL     1       0.926   4.280  -5.975  0.00  0.00    -0.243 NA
ATOM     10  C   UNL     1       0.228   5.399  -6.176  0.00  0.00    +0.099 A 
ATOM     11  C   UNL     1       0.889   6.618  -6.257  0.00  0.00    +0.020 A 
ATOM     12  C   UNL     1       2.208   6.694  -5.824  0.00  0.00    +0.000 A 
ENDBRANCH   3   7
TORSDOF 1
ENDMDL
MODEL 9
REMARK VINA RESULT:      -4.8      5.014      6.728
REMARK  Name = 
REMARK  1 active torsions:
REMARK  status: ('A' for Active; 'I' for Inactive)
REMARK    1  A    between atoms: C_6  and  C_7
REMARK                            x       y       z     vdW  Elec       q    Type
REMARK                         _______ _______ _______ _____ _____    ______ ____
ROOT
ATOM      1  C   UNL     1       2.020   6.664  -9.673  0.00  0.00    +0.090 C 
ATOM      2  N   UNL     1       1.651   6.552  -9.661  0.00  0.00    -0.269 NA
ATOM      3  C   UNL     1       1.334   5.179  -8.967  0.00  0.00    +0.082 C 
ATOM      4  C   UNL     1      -0.027   4.854  -9.832  0.00  0.00    +0.022 C 
ATOM      5  C   UNL     1       0.412   5.396 -11.183  0.00  0.00    +0.019 C 
ATOM      6  C   UNL     1       0.657   6.781 -10.605  0.00  0.00    +0.072 C 
ENDROOT
BRANCH   3   7
ATOM      7  C   UNL     1       0.524   5.878  -7.757  0.00  0.00    +0.011 A 
ATOM      8  C   UNL     1       1.182   6.099  -6.599  0.00  0.00    +0.096 A 
ATOM      9  N   UNL     1       0.485   6.630  -5.563  0.00  0.00    -0.243 NA
ATOM     10  C   UNL     1      -0.826   6.392  -5.496  0.00  0.00    +0.099 A 
ATOM     11  C   UNL     1      -1.428   5.581  -6.449  0.00  0.00    +0.020 A 
ATOM     12  C   UNL     1      -0.731   5.290  -7.617  0.00  0.00    +0.000 A 
ENDBRANCH   3   7
TORSDOF 1
ENDMDL
