MODEL 1
REMARK VINA RESULT:      -8.3      0.000      0.000
REMARK  Name = 
REMARK  10 active torsions:
REMARK  status: ('A' for Active; 'I' for Inactive)
REMARK    1  A    between atoms: O_2  and  C_3
REMARK    2  A    between atoms: C_8  and  O_9
REMARK    3  A    between atoms: C_11  and  C_12
REMARK    4  A    between atoms: C_12  and  N_13
REMARK    5  A    between atoms: N_13  and  C_15
REMARK    6  A    between atoms: C_15  and  C_16
REMARK    7  A    between atoms: C_16  and  C_17
REMARK    8  A    between atoms: C_17  and  N_18
REMARK    9  A    between atoms: C_23  and  O_24
REMARK   10  A    between atoms: C_26  and  O_27
REMARK                            x       y       z     vdW  Elec       q    Type
REMARK                         _______ _______ _______ _____ _____    ______ ____
ROOT
ATOM      1  C   UNL     1      -0.124   5.203  -5.927  0.00  0.00    +0.039 C 
ENDROOT
BRANCH   1   2
ATOM      2  C   UNL     1       0.964   6.175  -6.349  0.00  0.00    +0.095 C 
BRANCH   2   3
ATOM      3  N   UNL     1       2.153   5.446  -6.781  0.00  0.00    -0.279 N 
ATOM      4  C   UNL     1       3.419   6.097  -6.618  0.00  0.00    +0.230 C 
ATOM      5  O   UNL     1       3.357   7.314  -6.265  0.00  0.00    -0.275 OA
ATOM      6  C   UNL     1       4.714   5.571  -7.116  0.00  0.00    +0.111 C 
ATOM      7  C   UNL     1       4.670   5.307  -8.565  0.00  0.00    -0.014 A 
ATOM      8  C   UNL     1       3.548   5.012  -9.296  0.00  0.00    -0.021 A 
ATOM      9  C   UNL     1       3.700   5.076 -10.678  0.00  0.00    +0.036 A 
ATOM     10  C   UNL     1       4.930   5.298 -11.273  0.00  0.00    +0.172 A 
ATOM     11  C   UNL     1       6.030   5.602 -10.489  0.00  0.00    +0.172 A 
ATOM     12  C   UNL     1       2.206   4.515  -9.006  0.00  0.00    +0.048 C 
ATOM     13  C   UNL     1       5.776   5.901  -9.163  0.00  0.00    +0.036 A 
ATOM     14  C   UNL     1       1.891   4.252  -7.576  0.00  0.00    +0.098 C 
BRANCH  11  15
ATOM     15  O   UNL     1       7.325   5.523 -11.010  0.00  0.00    -0.468 OA
ATOM     16  C   UNL     1       7.893   6.734 -11.504  0.00  0.00    +0.253 C 
ENDBRANCH  11  15
BRANCH  10  17
ATOM     17  O   UNL     1       5.199   4.931 -12.594  0.00  0.00    -0.468 OA
ATOM     18  C   UNL     1       4.178   5.145 -13.541  0.00  0.00    +0.253 C 
ENDBRANCH  10  17
ENDBRANCH   2   3
ENDBRANCH   1   2
BRANCH   1  19
ATOM     19  C   UNL     1      -1.428   5.727  -6.456  0.00  0.00    +0.074 C 
BRANCH  19  20
ATOM     20  N   UNL     1      -2.333   6.168  -5.434  0.00  0.00    -0.271 NA
ATOM     21  C   UNL     1      -2.459   7.587  -5.319  0.00  0.00    +0.090 C 
BRANCH  20  22
ATOM     22  C   UNL     1      -2.158   5.478  -4.170  0.00  0.00    +0.077 C 
BRANCH  22  27
ATOM     23  C   UNL     1       0.277   6.516   0.170  0.00  0.00    +0.172 A 
ATOM     24  C   UNL     1       1.059   5.965  -0.835  0.00  0.00    +0.172 A 
ATOM     25  C   UNL     1       0.546   5.934  -2.125  0.00  0.00    +0.036 A 
ATOM     26  C   UNL     1      -0.785   6.025  -2.317  0.00  0.00    -0.022 A 
ATOM     27  C   UNL     1      -1.896   6.814  -3.202  0.00  0.00    +0.042 C 
ATOM     28  C   UNL     1      -2.941   6.271  -2.039  0.00  0.00    +0.032 C 
ATOM     29  C   UNL     1      -1.650   6.402  -1.296  0.00  0.00    -0.023 A 
ATOM     30  C   UNL     1      -1.055   6.754  -0.094  0.00  0.00    +0.035 A 
BRANCH  24  31
ATOM     31  O   UNL     1       2.148   5.176  -0.449  0.00  0.00    -0.468 OA
ATOM     32  C   UNL     1       3.353   5.137  -1.210  0.00  0.00    +0.253 C 
ENDBRANCH  24  31
BRANCH  23  34
ATOM     33  C   UNL     1       1.182   7.899   1.419  0.00  0.00    +0.253 C 
ATOM     34  O   UNL     1       0.976   7.163   1.192  0.00  0.00    -0.468 OA
ENDBRANCH  23  34
ENDBRANCH  22  27
ENDBRANCH  20  22
ENDBRANCH  19  20
ENDBRANCH   1  19
TORSDOF 10
ENDMDL
MODEL 2
REMARK VINA RESULT:      -8.0      3.622      7.735
REMARK  Name = 
REMARK  10 active torsions:
REMARK  status: ('A' for Active; 'I' for Inactive)
REMARK    1  A    between atoms: O_2  and  C_3
REMARK    2  A    between atoms: C_8  and  O_9
REMARK    3  A    between atoms: C_11  and  C_12
REMARK    4  A    between atoms: C_12  and  N_13
REMARK    5  A    between atoms: N_13  and  C_15
REMARK    6  A    between atoms: C_15  and  C_16
REMARK    7  A    between atoms: C_16  and  C_17
REMARK    8  A    between atoms: C_17  and  N_18
REMARK    9  A    between atoms: C_23  and  O_24
REMARK   10  A    between atoms: C_26  and  O_27
REMARK                            x       y       z     vdW  Elec       q    Type
REMARK                         _______ _______ _______ _____ _____    ______ ____
ROOT
ATOM      1  C   UNL     1       3.806   6.156  -5.784  0.00  0.00    +0.039 C 
ENDROOT
BRANCH   1   2
ATOM      2  C   UNL     1       3.956   5.059  -4.744  0.00  0.00    +0.095 C 
BRANCH   2   3
ATOM      3  N   UNL     1       4.560   5.594  -3.528  0.00  0.00    -0.279 N 
ATOM      4  C   UNL     1       4.093   5.073  -2.277  0.00  0.00    +0.230 C 
ATOM      5  O   UNL     1       3.078   4.316  -2.356  0.00  0.00    -0.275 OA
ATOM      6  C   UNL     1       4.491   5.586  -0.943  0.00  0.00    +0.111 C 
ATOM      7  C   UNL     1       4.220   7.029  -0.815  0.00  0.00    -0.014 A 
ATOM      8  C   UNL     1       4.165   7.933  -1.845  0.00  0.00    -0.021 A 
ATOM      9  C   UNL     1       3.624   9.175  -1.522  0.00  0.00    +0.036 A 
ATOM     10  C   UNL     1       3.287   9.515  -0.224  0.00  0.00    +0.172 A 
ATOM     11  C   UNL     1       3.352   8.561   0.778  0.00  0.00    +0.172 A 
ATOM     12  C   UNL     1       4.644   7.986  -3.222  0.00  0.00    +0.048 C 
ATOM     13  C   UNL     1       3.526   7.251   0.369  0.00  0.00    +0.036 A 
ATOM     14  C   UNL     1       5.376   6.789  -3.717  0.00  0.00    +0.098 C 
BRANCH  11  15
ATOM     15  O   UNL     1       3.325   8.934   2.125  0.00  0.00    -0.468 OA
ATOM     16  C   UNL     1       2.566   8.108   3.005  0.00  0.00    +0.253 C 
ENDBRANCH  11  15
BRANCH  10  17
ATOM     17  O   UNL     1       3.179  10.842   0.198  0.00  0.00    -0.468 OA
ATOM     18  C   UNL     1       3.617  11.838  -0.698  0.00  0.00    +0.253 C 
ENDBRANCH  10  17
ENDBRANCH   2   3
ENDBRANCH   1   2
BRANCH   1  19
ATOM     19  C   UNL     1       3.754   5.498  -7.132  0.00  0.00    +0.074 C 
BRANCH  19  20
ATOM     20  N   UNL     1       2.546   5.763  -7.860  0.00  0.00    -0.271 NA
ATOM     21  C   UNL     1       2.232   7.150  -8.012  0.00  0.00    +0.090 C 
BRANCH  20  22
ATOM     22  C   UNL     1       1.428   4.938  -7.447  0.00  0.00    +0.077 C 
BRANCH  22  27
ATOM     23  C   UNL     1      -1.964   5.856  -3.773  0.00  0.00    +0.172 A 
ATOM     24  C   UNL     1      -0.669   5.606  -3.340  0.00  0.00    +0.172 A 
ATOM     25  C   UNL     1       0.356   5.644  -4.276  0.00  0.00    +0.036 A 
ATOM     26  C   UNL     1       0.072   5.496  -5.585  0.00  0.00    -0.022 A 
ATOM     27  C   UNL     1       0.365   6.160  -7.038  0.00  0.00    +0.042 C 
ATOM     28  C   UNL     1      -0.952   5.275  -7.506  0.00  0.00    +0.032 C 
ATOM     29  C   UNL     1      -1.232   5.559  -6.065  0.00  0.00    -0.023 A 
ATOM     30  C   UNL     1      -2.211   5.860  -5.129  0.00  0.00    +0.035 A 
BRANCH  24  31
ATOM     31  O   UNL     1      -0.511   5.002  -2.088  0.00  0.00    -0.468 OA
ATOM     32  C   UNL     1       0.147   5.668  -1.013  0.00  0.00    +0.253 C 
ENDBRANCH  24  31
BRANCH  23  34
ATOM     33  C   UNL     1      -3.563   6.500  -2.624  0.00  0.00    +0.253 C 
ATOM     34  O   UNL     1      -2.798   6.488  -2.848  0.00  0.00    -0.468 OA
ENDBRANCH  23  34
ENDBRANCH  22  27
ENDBRANCH  20  22
ENDBRANCH  19  20
ENDBRANCH   1  19
TORSDOF 10
ENDMDL
MODEL 3
REMARK VINA RESULT:      -7.9      1.560      2.379
REMARK  Name = 
REMARK  10 active torsions:
REMARK  status: ('A' for Active; 'I' for Inactive)
REMARK    1  A    between atoms: O_2  and  C_3
REMARK    2  A    between atoms: C_8  and  O_9
REMARK    3  A    between atoms: C_11  and  C_12
REMARK    4  A    between atoms: C_12  and  N_13
REMARK    5  A    between atoms: N_13  and  C_15
REMARK    6  A    between atoms: C_15  and  C_16
REMARK    7  A    between atoms: C_16  and  C_17
REMARK    8  A    between atoms: C_17  and  N_18
REMARK    9  A    between atoms: C_23  and  O_24
REMARK   10  A    between atoms: C_26  and  O_27
REMARK                            x       y       z     vdW  Elec       q    Type
REMARK                         _______ _______ _______ _____ _____    ______ ____
ROOT
ATOM      1  C   UNL     1      -0.589   5.860  -6.254  0.00  0.00    +0.039 C 
ENDROOT
BRANCH   1   2
ATOM      2  C   UNL     1      -0.092   5.125  -7.486  0.00  0.00    +0.095 C 
BRANCH   2   3
ATOM      3  N   UNL     1       0.634   6.040  -8.362  0.00  0.00    -0.279 N 
ATOM      4  C   UNL     1       0.572   5.789  -9.772  0.00  0.00    +0.230 C 
ATOM      5  O   UNL     1       0.026   4.692 -10.099  0.00  0.00    -0.275 OA
ATOM      6  C   UNL     1       1.347   6.527 -10.799  0.00  0.00    +0.111 C 
ATOM      7  C   UNL     1       2.793   6.480 -10.525  0.00  0.00    -0.014 A 
ATOM      8  C   UNL     1       3.375   6.322  -9.293  0.00  0.00    -0.021 A 
ATOM      9  C   UNL     1       4.736   6.029  -9.306  0.00  0.00    +0.036 A 
ATOM     10  C   UNL     1       5.475   6.025 -10.476  0.00  0.00    +0.172 A 
ATOM     11  C   UNL     1       4.837   6.180 -11.696  0.00  0.00    +0.172 A 
ATOM     12  C   UNL     1       2.958   6.497  -7.905  0.00  0.00    +0.048 C 
ATOM     13  C   UNL     1       3.457   6.091 -11.683  0.00  0.00    +0.036 A 
ATOM     14  C   UNL     1       1.556   6.944  -7.684  0.00  0.00    +0.098 C 
BRANCH  11  15
ATOM     15  O   UNL     1       5.564   6.492 -12.849  0.00  0.00    -0.468 OA
ATOM     16  C   UNL     1       5.655   5.474 -13.844  0.00  0.00    +0.253 C 
ENDBRANCH  11  15
BRANCH  10  17
ATOM     17  O   UNL     1       6.863   6.183 -10.484  0.00  0.00    -0.468 OA
ATOM     18  C   UNL     1       7.588   5.554  -9.451  0.00  0.00    +0.253 C 
ENDBRANCH  10  17
ENDBRANCH   2   3
ENDBRANCH   1   2
BRANCH   1  19
ATOM     19  C   UNL     1      -1.975   5.363  -5.959  0.00  0.00    +0.074 C 
BRANCH  19  20
ATOM     20  N   UNL     1      -2.699   6.183  -5.030  0.00  0.00    -0.271 NA
ATOM     21  C   UNL     1      -2.463   7.587  -5.162  0.00  0.00    +0.090 C 
BRANCH  20  22
ATOM     22  C   UNL     1      -2.651   5.692  -3.666  0.00  0.00    +0.077 C 
BRANCH  22  27
ATOM     23  C   UNL     1       0.756   6.542   0.009  0.00  0.00    +0.172 A 
ATOM     24  C   UNL     1       1.184   5.715  -1.019  0.00  0.00    +0.172 A 
ATOM     25  C   UNL     1       0.434   5.677  -2.187  0.00  0.00    +0.036 A 
ATOM     26  C   UNL     1      -0.855   6.073  -2.167  0.00  0.00    -0.022 A 
ATOM     27  C   UNL     1      -1.913   7.015  -2.962  0.00  0.00    +0.042 C 
ATOM     28  C   UNL     1      -2.804   6.870  -1.575  0.00  0.00    +0.032 C 
ATOM     29  C   UNL     1      -1.396   6.756  -1.084  0.00  0.00    -0.023 A 
ATOM     30  C   UNL     1      -0.514   7.072  -0.062  0.00  0.00    +0.035 A 
BRANCH  24  31
ATOM     31  O   UNL     1       2.123   4.726  -0.706  0.00  0.00    -0.468 OA
ATOM     32  C   UNL     1       3.436   4.738  -1.261  0.00  0.00    +0.253 C 
ENDBRANCH  24  31
BRANCH  23  34
ATOM     33  C   UNL     1       2.150   7.792   0.898  0.00  0.00    +0.253 C 
ATOM     34  O   UNL     1       1.768   7.100   0.795  0.00  0.00    -0.468 OA
ENDBRANCH  23  34
ENDBRANCH  22  27
ENDBRANCH  20  22
ENDBRANCH  19  20
ENDBRANCH   1  19
TORSDOF 10
ENDMDL
MODEL 4
REMARK VINA RESULT:      -7.8      1.683     10.694
REMARK  Name = 
REMARK  10 active torsions:
REMARK  status: ('A' for Active; 'I' for Inactive)
REMARK    1  A    between atoms: O_2  and  C_3
REMARK    2  A    between atoms: C_8  and  O_9
REMARK    3  A    between atoms: C_11  and  C_12
REMARK    4  A    between atoms: C_12  and  N_13
REMARK    5  A    between atoms: N_13  and  C_15
REMARK    6  A    between atoms: C_15  and  C_16
REMARK    7  A    between atoms: C_16  and  C_17
REMARK    8  A    between atoms: C_17  and  N_18
REMARK    9  A    between atoms: C_23  and  O_24
REMARK   10  A    between atoms: C_26  and  O_27
REMARK                            x       y       z     vdW  Elec       q    Type
REMARK                         _______ _______ _______ _____ _____    ______ ____
ROOT
ATOM      1  C   UNL     1      -0.323   5.347  -6.323  0.00  0.00    +0.039 C 
ENDROOT
BRANCH   1   2
ATOM      2  C   UNL     1      -0.287   6.542  -5.387  0.00  0.00    +0.095 C 
BRANCH   2   3
ATOM      3  N   UNL     1      -0.909   6.203  -4.110  0.00  0.00    -0.279 N 
ATOM      4  C   UNL     1      -1.876   7.121  -3.585  0.00  0.00    +0.230 C 
ATOM      5  O   UNL     1      -1.967   8.221  -4.209  0.00  0.00    -0.275 OA
ATOM      6  C   UNL     1      -2.510   7.012  -2.248  0.00  0.00    +0.111 C 
ATOM      7  C   UNL     1      -1.503   6.952  -1.174  0.00  0.00    -0.014 A 
ATOM      8  C   UNL     1      -0.218   6.490  -1.300  0.00  0.00    -0.021 A 
ATOM      9  C   UNL     1       0.630   6.784  -0.236  0.00  0.00    +0.036 A 
ATOM     10  C   UNL     1       0.174   7.388   0.923  0.00  0.00    +0.172 A 
ATOM     11  C   UNL     1      -1.132   7.845   0.994  0.00  0.00    +0.172 A 
ATOM     12  C   UNL     1       0.504   5.636  -2.238  0.00  0.00    +0.048 C 
ATOM     13  C   UNL     1      -1.836   7.882  -0.196  0.00  0.00    +0.036 A 
ATOM     14  C   UNL     1      -0.277   5.104  -3.387  0.00  0.00    +0.098 C 
BRANCH  11  15
ATOM     15  O   UNL     1      -1.711   8.167   2.225  0.00  0.00    -0.468 OA
ATOM     16  C   UNL     1      -2.260   9.477   2.352  0.00  0.00    +0.253 C 
ENDBRANCH  11  15
BRANCH  10  17
ATOM     17  O   UNL     1       0.857   7.289   2.137  0.00  0.00    -0.468 OA
ATOM     18  C   UNL     1       1.984   8.119   2.310  0.00  0.00    +0.253 C 
ENDBRANCH  10  17
ENDBRANCH   2   3
ENDBRANCH   1   2
BRANCH   1  19
ATOM     19  C   UNL     1       0.358   5.751  -7.599  0.00  0.00    +0.074 C 
BRANCH  19  20
ATOM     20  N   UNL     1       1.718   6.171  -7.422  0.00  0.00    -0.271 NA
ATOM     21  C   UNL     1       1.970   7.538  -7.758  0.00  0.00    +0.090 C 
BRANCH  20  22
ATOM     22  C   UNL     1       2.687   5.235  -7.957  0.00  0.00    +0.077 C 
BRANCH  22  27
ATOM     23  C   UNL     1       6.678   5.619 -11.083  0.00  0.00    +0.172 A 
ATOM     24  C   UNL     1       5.443   5.508 -11.705  0.00  0.00    +0.172 A 
ATOM     25  C   UNL     1       4.301   5.699 -10.938  0.00  0.00    +0.036 A 
ATOM     26  C   UNL     1       4.365   5.564  -9.598  0.00  0.00    -0.022 A 
ATOM     27  C   UNL     1       3.940   6.309  -8.218  0.00  0.00    +0.042 C 
ATOM     28  C   UNL     1       5.055   5.291  -7.540  0.00  0.00    +0.032 C 
ATOM     29  C   UNL     1       5.580   5.490  -8.926  0.00  0.00    -0.023 A 
ATOM     30  C   UNL     1       6.717   5.641  -9.706  0.00  0.00    +0.035 A 
BRANCH  24  31
ATOM     31  O   UNL     1       5.402   4.885 -12.956  0.00  0.00    -0.468 OA
ATOM     32  C   UNL     1       4.340   5.123 -13.878  0.00  0.00    +0.253 C 
ENDBRANCH  24  31
BRANCH  23  34
ATOM     33  C   UNL     1       8.479   5.973 -12.045  0.00  0.00    +0.253 C 
ATOM     34  O   UNL     1       7.712   6.116 -11.880  0.00  0.00    -0.468 OA
ENDBRANCH  23  34
ENDBRANCH  22  27
ENDBRANCH  20  22
ENDBRANCH  19  20
ENDBRANCH   1  19
TORSDOF 10
ENDMDL
MODEL 5
REMARK VINA RESULT:      -7.6      2.978      5.437
REMARK  Name = 
REMARK  10 active torsions:
REMARK  status: ('A' for Active; 'I' for Inactive)
REMARK    1  A    between atoms: O_2  and  C_3
REMARK    2  A    between atoms: C_8  and  O_9
REMARK    3  A    between atoms: C_11  and  C_12
REMARK    4  A    between atoms: C_12  and  N_13
REMARK    5  A    between atoms: N_13  and  C_15
REMARK    6  A    between atoms: C_15  and  C_16
REMARK    7  A    between atoms: C_16  and  C_17
REMARK    8  A    between atoms: C_17  and  N_18
REMARK    9  A    between atoms: C_23  and  O_24
REMARK   10  A    between atoms: C_26  and  O_27
REMARK                            x       y       z     vdW  Elec       q    Type
REMARK                         _______ _______ _______ _____ _____    ______ ____
ROOT
ATOM      1  C   UNL     1       4.988   5.457  -9.084  0.00  0.00    +0.039 C 
ENDROOT
BRANCH   1   2
ATOM      2  C   UNL     1       5.137   6.499 -10.179  0.00  0.00    +0.095 C 
BRANCH   2   3
ATOM      3  N   UNL     1       5.638   5.879 -11.402  0.00  0.00    -0.279 N 
ATOM      4  C   UNL     1       6.887   6.357 -11.918  0.00  0.00    +0.230 C 
ATOM      5  O   UNL     1       7.346   7.390 -11.343  0.00  0.00    -0.275 OA
ATOM      6  C   UNL     1       7.483   5.943 -13.211  0.00  0.00    +0.111 C 
ATOM      7  C   UNL     1       6.559   6.177 -14.334  0.00  0.00    -0.014 A 
ATOM      8  C   UNL     1       5.190   6.212 -14.256  0.00  0.00    -0.021 A 
ATOM      9  C   UNL     1       4.540   6.721 -15.377  0.00  0.00    +0.036 A 
ATOM     10  C   UNL     1       5.221   7.047 -16.537  0.00  0.00    +0.172 A 
ATOM     11  C   UNL     1       6.605   7.003 -16.560  0.00  0.00    +0.172 A 
ATOM     12  C   UNL     1       4.179   5.735 -13.318  0.00  0.00    +0.048 C 
ATOM     13  C   UNL     1       7.236   6.862 -15.337  0.00  0.00    +0.036 A 
ATOM     14  C   UNL     1       4.678   5.034 -12.104  0.00  0.00    +0.098 C 
BRANCH  11  15
ATOM     15  O   UNL     1       7.302   7.017 -17.772  0.00  0.00    -0.468 OA
ATOM     16  C   UNL     1       7.960   8.234 -18.119  0.00  0.00    +0.253 C 
ENDBRANCH  11  15
BRANCH  10  17
ATOM     17  O   UNL     1       4.589   7.120 -17.781  0.00  0.00    -0.468 OA
ATOM     18  C   UNL     1       3.875   8.301 -18.069  0.00  0.00    +0.253 C 
ENDBRANCH  10  17
ENDBRANCH   2   3
ENDBRANCH   1   2
BRANCH   1  19
ATOM     19  C   UNL     1       3.527   5.133  -8.963  0.00  0.00    +0.074 C 
BRANCH  19  20
ATOM     20  N   UNL     1       2.947   5.532  -7.713  0.00  0.00    -0.271 NA
ATOM     21  C   UNL     1       3.881   5.686  -6.642  0.00  0.00    +0.090 C 
BRANCH  20  22
ATOM     22  C   UNL     1       1.755   4.783  -7.364  0.00  0.00    +0.077 C 
BRANCH  22  27
ATOM     23  C   UNL     1      -1.594   5.812  -3.681  0.00  0.00    +0.172 A 
ATOM     24  C   UNL     1      -0.328   5.442  -3.248  0.00  0.00    +0.172 A 
ATOM     25  C   UNL     1       0.707   5.438  -4.174  0.00  0.00    +0.036 A 
ATOM     26  C   UNL     1       0.426   5.368  -5.491  0.00  0.00    -0.022 A 
ATOM     27  C   UNL     1       0.788   6.067  -6.912  0.00  0.00    +0.042 C 
ATOM     28  C   UNL     1      -0.590   5.310  -7.427  0.00  0.00    +0.032 C 
ATOM     29  C   UNL     1      -0.863   5.555  -5.977  0.00  0.00    -0.023 A 
ATOM     30  C   UNL     1      -1.825   5.893  -5.037  0.00  0.00    +0.035 A 
BRANCH  24  31
ATOM     31  O   UNL     1      -0.232   4.776  -2.022  0.00  0.00    -0.468 OA
ATOM     32  C   UNL     1       0.842   5.021  -1.118  0.00  0.00    +0.253 C 
ENDBRANCH  24  31
BRANCH  23  34
ATOM     33  C   UNL     1      -3.153   6.630  -2.587  0.00  0.00    +0.253 C 
ATOM     34  O   UNL     1      -2.386   6.469  -2.735  0.00  0.00    -0.468 OA
ENDBRANCH  23  34
ENDBRANCH  22  27
ENDBRANCH  20  22
ENDBRANCH  19  20
ENDBRANCH   1  19
TORSDOF 10
ENDMDL
MODEL 6
REMARK VINA RESULT:      -7.4      3.552      8.612
REMARK  Name = 
REMARK  10 active torsions:
REMARK  status: ('A' for Active; 'I' for Inactive)
REMARK    1  A    between atoms: O_2  and  C_3
REMARK    2  A    between atoms: C_8  and  O_9
REMARK    3  A    between atoms: C_11  and  C_12
REMARK    4  A    between atoms: C_12  and  N_13
REMARK    5  A    between atoms: N_13  and  C_15
REMARK    6  A    between atoms: C_15  and  C_16
REMARK    7  A    between atoms: C_16  and  C_17
REMARK    8  A    between atoms: C_17  and  N_18
REMARK    9  A    between atoms: C_23  and  O_24
REMARK   10  A    between atoms: C_26  and  O_27
REMARK                            x       y       z     vdW  Elec       q    Type
REMARK                         _______ _______ _______ _____ _____    ______ ____
ROOT
ATOM      1  C   UNL     1      -0.530   5.769  -6.786  0.00  0.00    +0.039 C 
ENDROOT
BRANCH   1   2
ATOM      2  C   UNL     1      -0.330   6.775  -5.666  0.00  0.00    +0.095 C 
BRANCH   2   3
ATOM      3  N   UNL     1      -0.957   6.295  -4.438  0.00  0.00    -0.279 N 
ATOM      4  C   UNL     1      -1.990   7.107  -3.865  0.00  0.00    +0.230 C 
ATOM      5  O   UNL     1      -2.135   8.248  -4.400  0.00  0.00    -0.275 OA
ATOM      6  C   UNL     1      -2.645   6.850  -2.559  0.00  0.00    +0.111 C 
ATOM      7  C   UNL     1      -1.660   6.761  -1.467  0.00  0.00    -0.014 A 
ATOM      8  C   UNL     1      -0.346   6.388  -1.596  0.00  0.00    -0.021 A 
ATOM      9  C   UNL     1       0.459   6.643  -0.490  0.00  0.00    +0.036 A 
ATOM     10  C   UNL     1      -0.058   7.121   0.702  0.00  0.00    +0.172 A 
ATOM     11  C   UNL     1      -1.390   7.492   0.776  0.00  0.00    +0.172 A 
ATOM     12  C   UNL     1       0.447   5.660  -2.582  0.00  0.00    +0.048 C 
ATOM     13  C   UNL     1      -2.070   7.585  -0.425  0.00  0.00    +0.036 A 
ATOM     14  C   UNL     1      -0.275   5.180  -3.790  0.00  0.00    +0.098 C 
BRANCH  11  15
ATOM     15  O   UNL     1      -2.015   7.676   2.013  0.00  0.00    -0.468 OA
ATOM     16  C   UNL     1      -2.172   9.022   2.458  0.00  0.00    +0.253 C 
ENDBRANCH  11  15
BRANCH  10  17
ATOM     17  O   UNL     1       0.604   6.963   1.922  0.00  0.00    -0.468 OA
ATOM     18  C   UNL     1       1.574   7.929   2.256  0.00  0.00    +0.253 C 
ENDBRANCH  10  17
ENDBRANCH   2   3
ENDBRANCH   1   2
BRANCH   1  19
ATOM     19  C   UNL     1       0.827   5.422  -7.329  0.00  0.00    +0.074 C 
BRANCH  19  20
ATOM     20  N   UNL     1       1.561   6.553  -7.820  0.00  0.00    -0.271 NA
ATOM     21  C   UNL     1       1.424   6.790  -9.223  0.00  0.00    +0.090 C 
BRANCH  20  22
ATOM     22  C   UNL     1       2.925   6.612  -7.333  0.00  0.00    +0.077 C 
BRANCH  22  27
ATOM     23  C   UNL     1       4.487   6.352  -2.503  0.00  0.00    +0.172 A 
ATOM     24  C   UNL     1       3.754   7.483  -2.831  0.00  0.00    +0.172 A 
ATOM     25  C   UNL     1       3.049   7.484  -4.028  0.00  0.00    +0.036 A 
ATOM     26  C   UNL     1       3.399   6.632  -5.011  0.00  0.00    -0.022 A 
ATOM     27  C   UNL     1       2.769   5.554  -6.050  0.00  0.00    +0.042 C 
ATOM     28  C   UNL     1       4.336   5.040  -6.184  0.00  0.00    +0.032 C 
ATOM     29  C   UNL     1       4.275   5.575  -4.788  0.00  0.00    -0.023 A 
ATOM     30  C   UNL     1       4.704   5.405  -3.480  0.00  0.00    +0.035 A 
BRANCH  24  31
ATOM     31  O   UNL     1       4.034   8.662  -2.132  0.00  0.00    -0.468 OA
ATOM     32  C   UNL     1       3.289   9.043  -0.977  0.00  0.00    +0.253 C 
ENDBRANCH  24  31
BRANCH  23  34
ATOM     33  C   UNL     1       4.267   5.573  -0.595  0.00  0.00    +0.253 C 
ATOM     34  O   UNL     1       4.578   6.068  -1.138  0.00  0.00    -0.468 OA
ENDBRANCH  23  34
ENDBRANCH  22  27
ENDBRANCH  20  22
ENDBRANCH  19  20
ENDBRANCH   1  19
TORSDOF 10
ENDMDL
MODEL 7
REMARK VINA RESULT:      -7.4      1.729      2.780
REMARK  Name = 
REMARK  10 active torsions:
REMARK  status: ('A' for Active; 'I' for Inactive)
REMARK    1  A    between atoms: O_2  and  C_3
REMARK    2  A    between atoms: C_8  and  O_9
REMARK    3  A    between atoms: C_11  and  C_12
REMARK    4  A    between atoms: C_12  and  N_13
REMARK    5  A    between atoms: N_13  and  C_15
REMARK    6  A    between atoms: C_15  and  C_16
REMARK    7  A    between atoms: C_16  and  C_17
REMARK    8  A    between atoms: C_17  and  N_18
REMARK    9  A    between atoms: C_23  and  O_24
REMARK   10  A    between atoms: C_26  and  O_27
REMARK                            x       y       z     vdW  Elec       q    Type
REMARK                         _______ _______ _______ _____ _____    ______ ____
ROOT
ATOM      1  C   UNL     1       1.500   6.164  -5.006  0.00  0.00    +0.039 C 
ENDROOT
BRANCH   1   2
ATOM      2  C   UNL     1       1.571   5.304  -6.256  0.00  0.00    +0.095 C 
BRANCH   2   3
ATOM      3  N   UNL     1       1.886   6.129  -7.419  0.00  0.00    -0.279 N 
ATOM      4  C   UNL     1       0.967   6.094  -8.518  0.00  0.00    +0.230 C 
ATOM      5  O   UNL     1       0.057   5.215  -8.430  0.00  0.00    -0.275 OA
ATOM      6  C   UNL     1       1.185   6.758  -9.827  0.00  0.00    +0.111 C 
ATOM      7  C   UNL     1       2.449   6.328 -10.448  0.00  0.00    -0.014 A 
ATOM      8  C   UNL     1       3.558   5.869  -9.784  0.00  0.00    -0.021 A 
ATOM      9  C   UNL     1       4.525   5.263 -10.582  0.00  0.00    +0.036 A 
ATOM     10  C   UNL     1       4.431   5.241 -11.962  0.00  0.00    +0.172 A 
ATOM     11  C   UNL     1       3.285   5.709 -12.583  0.00  0.00    +0.172 A 
ATOM     12  C   UNL     1       4.073   5.949  -8.421  0.00  0.00    +0.048 C 
ATOM     13  C   UNL     1       2.198   5.953 -11.763  0.00  0.00    +0.036 A 
ATOM     14  C   UNL     1       3.234   6.685  -7.437  0.00  0.00    +0.098 C 
BRANCH  11  15
ATOM     15  O   UNL     1       3.276   5.991 -13.952  0.00  0.00    -0.468 OA
ATOM     16  C   UNL     1       2.034   6.409 -14.514  0.00  0.00    +0.253 C 
ENDBRANCH  11  15
BRANCH  10  17
ATOM     17  O   UNL     1       5.546   5.062 -12.785  0.00  0.00    -0.468 OA
ATOM     18  C   UNL     1       6.810   5.321 -12.219  0.00  0.00    +0.253 C 
ENDBRANCH  10  17
ENDBRANCH   2   3
ENDBRANCH   1   2
BRANCH   1  19
ATOM     19  C   UNL     1       0.129   6.776  -4.956  0.00  0.00    +0.074 C 
BRANCH  19  20
ATOM     20  N   UNL     1      -0.934   5.813  -4.901  0.00  0.00    -0.271 NA
ATOM     21  C   UNL     1      -2.053   6.109  -5.739  0.00  0.00    +0.090 C 
BRANCH  20  22
ATOM     22  C   UNL     1      -1.285   5.417  -3.551  0.00  0.00    +0.077 C 
BRANCH  22  27
ATOM     23  C   UNL     1      -1.157   7.892   0.888  0.00  0.00    +0.172 A 
ATOM     24  C   UNL     1       0.070   7.439   0.423  0.00  0.00    +0.172 A 
ATOM     25  C   UNL     1       0.159   7.027  -0.900  0.00  0.00    +0.036 A 
ATOM     26  C   UNL     1      -0.957   6.672  -1.567  0.00  0.00    -0.022 A 
ATOM     27  C   UNL     1      -1.738   6.917  -2.971  0.00  0.00    +0.042 C 
ATOM     28  C   UNL     1      -3.032   6.293  -2.149  0.00  0.00    +0.032 C 
ATOM     29  C   UNL     1      -2.227   6.940  -1.068  0.00  0.00    -0.023 A 
ATOM     30  C   UNL     1      -2.275   7.662   0.116  0.00  0.00    +0.035 A 
BRANCH  24  31
ATOM     31  O   UNL     1       1.038   7.100   1.374  0.00  0.00    -0.468 OA
ATOM     32  C   UNL     1       2.214   7.885   1.558  0.00  0.00    +0.253 C 
ENDBRANCH  24  31
BRANCH  23  34
ATOM     33  C   UNL     1      -1.491   9.548   2.087  0.00  0.00    +0.253 C 
ATOM     34  O   UNL     1      -1.101   8.890   1.864  0.00  0.00    -0.468 OA
ENDBRANCH  23  34
ENDBRANCH  22  27
ENDBRANCH  20  22
ENDBRANCH  19  20
ENDBRANCH   1  19
TORSDOF 10
ENDMDL
MODEL 8
REMARK VINA RESULT:      -7.2      1.729      2.542
REMARK  Name = 
REMARK  10 active torsions:
REMARK  status: ('A' for Active; 'I' for Inactive)
REMARK    1  A    between atoms: O_2  and  C_3
REMARK    2  A    between atoms: C_8  and  O_9
REMARK    3  A    between atoms: C_11  and  C_12
REMARK    4  A    between atoms: C_12  and  N_13
REMARK    5  A    between atoms: N_13  and  C_15
REMARK    6  A    between atoms: C_15  and  C_16
REMARK    7  A    between atoms: C_16  and  C_17
REMARK    8  A    between atoms: C_17  and  N_18
REMARK    9  A    between atoms: C_23  and  O_24
REMARK   10  A    between atoms: C_26  and  O_27
REMARK                            x       y       z     vdW  Elec       q    Type
REMARK                         _______ _______ _______ _____ _____    ______ ____
ROOT
ATOM      1  C   UNL     1      -2.151   5.987  -4.912  0.00  0.00    +0.039 C 
ENDROOT
BRANCH   1   2
ATOM      2  C   UNL     1      -0.722   6.430  -5.171  0.00  0.00    +0.095 C 
BRANCH   2   3
ATOM      3  N   UNL     1      -0.064   5.503  -6.088  0.00  0.00    -0.279 N 
ATOM      4  C   UNL     1       1.355   5.350  -5.963  0.00  0.00    +0.230 C 
ATOM      5  O   UNL     1       1.917   6.168  -5.173  0.00  0.00    -0.275 OA
ATOM      6  C   UNL     1       2.207   4.561  -6.886  0.00  0.00    +0.111 C 
ATOM      7  C   UNL     1       2.051   5.005  -8.282  0.00  0.00    -0.014 A 
ATOM      8  C   UNL     1       0.942   5.612  -8.814  0.00  0.00    -0.021 A 
ATOM      9  C   UNL     1       1.121   6.191 -10.068  0.00  0.00    +0.036 A 
ATOM     10  C   UNL     1       2.299   6.051 -10.781  0.00  0.00    +0.172 A 
ATOM     11  C   UNL     1       3.393   5.437 -10.192  0.00  0.00    +0.172 A 
ATOM     12  C   UNL     1      -0.468   5.722  -8.456  0.00  0.00    +0.048 C 
ATOM     13  C   UNL     1       3.312   5.212  -8.830  0.00  0.00    +0.036 A 
ATOM     14  C   UNL     1      -0.889   5.045  -7.200  0.00  0.00    +0.098 C 
BRANCH  11  15
ATOM     15  O   UNL     1       4.473   5.003 -10.967  0.00  0.00    -0.468 OA
ATOM     16  C   UNL     1       5.614   5.857 -11.012  0.00  0.00    +0.253 C 
ENDBRANCH  11  15
BRANCH  10  17
ATOM     17  O   UNL     1       2.358   6.215 -12.167  0.00  0.00    -0.468 OA
ATOM     18  C   UNL     1       1.543   5.372 -12.949  0.00  0.00    +0.253 C 
ENDBRANCH  10  17
ENDBRANCH   2   3
ENDBRANCH   1   2
BRANCH   1  19
ATOM     19  C   UNL     1      -2.132   5.071  -3.723  0.00  0.00    +0.074 C 
BRANCH  19  20
ATOM     20  N   UNL     1      -2.853   5.576  -2.589  0.00  0.00    -0.271 NA
ATOM     21  C   UNL     1      -3.394   6.888  -2.761  0.00  0.00    +0.090 C 
BRANCH  20  22
ATOM     22  C   UNL     1      -2.165   5.373  -1.329  0.00  0.00    +0.077 C 
BRANCH  22  27
ATOM     23  C   UNL     1       2.445   7.326  -0.452  0.00  0.00    +0.172 A 
ATOM     24  C   UNL     1       2.354   6.486  -1.553  0.00  0.00    +0.172 A 
ATOM     25  C   UNL     1       1.091   6.159  -2.026  0.00  0.00    +0.036 A 
ATOM     26  C   UNL     1       0.020   6.285  -1.217  0.00  0.00    -0.022 A 
ATOM     27  C   UNL     1      -1.486   6.892  -1.178  0.00  0.00    +0.042 C 
ATOM     28  C   UNL     1      -1.311   6.734   0.460  0.00  0.00    +0.032 C 
ATOM     29  C   UNL     1       0.090   6.967  -0.008  0.00  0.00    -0.023 A 
ATOM     30  C   UNL     1       1.304   7.575   0.278  0.00  0.00    +0.035 A 
BRANCH  24  31
ATOM     31  O   UNL     1       3.492   5.753  -1.904  0.00  0.00    -0.468 OA
ATOM     32  C   UNL     1       3.933   4.637  -1.133  0.00  0.00    +0.253 C 
ENDBRANCH  24  31
BRANCH  23  34
ATOM     33  C   UNL     1       4.012   8.567   0.097  0.00  0.00    +0.253 C 
ATOM     34  O   UNL     1       3.562   8.166  -0.425  0.00  0.00    -0.468 OA
ENDBRANCH  23  34
ENDBRANCH  22  27
ENDBRANCH  20  22
ENDBRANCH  19  20
ENDBRANCH   1  19
TORSDOF 10
ENDMDL
MODEL 9
REMARK VINA RESULT:      -7.2      2.109     10.545
REMARK  Name = 
REMARK  10 active torsions:
REMARK  status: ('A' for Active; 'I' for Inactive)
REMARK    1  A    between atoms: O_2  and  C_3
REMARK    2  A    between atoms: C_8  and  O_9
REMARK    3  A    between atoms: C_11  and  C_12
REMARK    4  A    between atoms: C_12  and  N_13
REMARK    5  A    between atoms: N_13  and  C_15
REMARK    6  A    between atoms: C_15  and  C_16
REMARK    7  A    between atoms: C_16  and  C_17
REMARK    8  A    between atoms: C_17  and  N_18
REMARK    9  A    between atoms: C_23  and  O_24
REMARK   10  A    between atoms: C_26  and  O_27
REMARK                            x       y       z     vdW  Elec       q    Type
REMARK                         _______ _______ _______ _____ _____    ______ ____
ROOT
ATOM      1  C   UNL     1       1.022   5.919  -5.302  0.00  0.00    +0.039 C 
ENDROOT
BRANCH   1   2
ATOM      2  C   UNL     1      -0.235   6.737  -5.065  0.00  0.00    +0.095 C 
BRANCH   2   3
ATOM      3  N   UNL     1      -0.899   6.301  -3.840  0.00  0.00    -0.279 N 
ATOM      4  C   UNL     1      -1.917   7.156  -3.304  0.00  0.00    +0.230 C 
ATOM      5  O   UNL     1      -2.018   8.289  -3.864  0.00  0.00    -0.275 OA
ATOM      6  C   UNL     1      -2.603   6.945  -2.006  0.00  0.00    +0.111 C 
ATOM      7  C   UNL     1      -1.642   6.850  -0.894  0.00  0.00    -0.014 A 
ATOM      8  C   UNL     1      -0.338   6.436  -0.990  0.00  0.00    -0.021 A 
ATOM      9  C   UNL     1       0.455   6.690   0.126  0.00  0.00    +0.036 A 
ATOM     10  C   UNL     1      -0.070   7.207   1.298  0.00  0.00    +0.172 A 
ATOM     11  C   UNL     1      -1.392   7.619   1.339  0.00  0.00    +0.172 A 
ATOM     12  C   UNL     1       0.451   5.664  -1.945  0.00  0.00    +0.048 C 
ATOM     13  C   UNL     1      -2.046   7.708   0.123  0.00  0.00    +0.036 A 
ATOM     14  C   UNL     1      -0.262   5.181  -3.157  0.00  0.00    +0.098 C 
BRANCH  11  15
ATOM     15  O   UNL     1      -2.033   7.847   2.560  0.00  0.00    -0.468 OA
ATOM     16  C   UNL     1      -3.439   8.080   2.512  0.00  0.00    +0.253 C 
ENDBRANCH  11  15
BRANCH  10  17
ATOM     17  O   UNL     1       0.564   7.055   2.533  0.00  0.00    -0.468 OA
ATOM     18  C   UNL     1       1.430   8.089   2.943  0.00  0.00    +0.253 C 
ENDBRANCH  10  17
ENDBRANCH   2   3
ENDBRANCH   1   2
BRANCH   1  19
ATOM     19  C   UNL     1       2.186   6.868  -5.305  0.00  0.00    +0.074 C 
BRANCH  19  20
ATOM     20  N   UNL     1       3.459   6.225  -5.148  0.00  0.00    -0.271 NA
ATOM     21  C   UNL     1       4.559   7.116  -4.948  0.00  0.00    +0.090 C 
BRANCH  20  22
ATOM     22  C   UNL     1       3.704   5.181  -6.124  0.00  0.00    +0.077 C 
BRANCH  22  27
ATOM     23  C   UNL     1       3.216   5.563 -11.170  0.00  0.00    +0.172 A 
ATOM     24  C   UNL     1       2.037   5.679 -10.447  0.00  0.00    +0.172 A 
ATOM     25  C   UNL     1       2.124   5.883  -9.076  0.00  0.00    +0.036 A 
ATOM     26  C   UNL     1       3.256   5.553  -8.421  0.00  0.00    -0.022 A 
ATOM     27  C   UNL     1       4.324   6.136  -7.346  0.00  0.00    +0.042 C 
ATOM     28  C   UNL     1       5.286   4.916  -7.916  0.00  0.00    +0.032 C 
ATOM     29  C   UNL     1       4.433   5.251  -9.097  0.00  0.00    -0.023 A 
ATOM     30  C   UNL     1       4.394   5.385 -10.477  0.00  0.00    +0.035 A 
BRANCH  24  31
ATOM     31  O   UNL     1       0.857   5.247 -11.061  0.00  0.00    -0.468 OA
ATOM     32  C   UNL     1      -0.205   6.150 -11.361  0.00  0.00    +0.253 C 
ENDBRANCH  24  31
BRANCH  23  34
ATOM     33  C   UNL     1       3.416   5.856 -13.211  0.00  0.00    +0.253 C 
ATOM     34  O   UNL     1       3.172   6.051 -12.478  0.00  0.00    -0.468 OA
ENDBRANCH  23  34
ENDBRANCH  22  27
ENDBRANCH  20  22
ENDBRANCH  19  20
ENDBRANCH   1  19
TORSDOF 10
ENDMDL
