MODEL 1
REMARK VINA RESULT:      -8.0      0.000      0.000
REMARK  Name = 
REMARK  5 active torsions:
REMARK  status: ('A' for Active; 'I' for Inactive)
REMARK    1  A    between atoms: O_2  and  C_3
REMARK    2  A    between atoms: C_8  and  S_9
REMARK    3  A    between atoms: S_9  and  C_11
REMARK    4  A    between atoms: C_11  and  C_12
REMARK    5  A    between atoms: C_17  and  O_18
REMARK                            x       y       z     vdW  Elec       q    Type
REMARK                         _______ _______ _______ _____ _____    ______ ____
ROOT
ATOM      1  S   UNL     1       1.692   6.596  -7.963  0.00  0.00    +0.107 S 
ATOM      2  O   UNL     1       2.418   7.622  -7.036  0.00  0.00    -0.248 OA
ENDROOT
BRANCH   1   8
ATOM      3  C   UNL     1       6.547   5.424 -11.696  0.00  0.00    +0.140 A 
ATOM      4  C   UNL     1       5.159   5.428 -11.626  0.00  0.00    +0.058 A 
ATOM      5  C   UNL     1       4.493   5.657 -10.429  0.00  0.00    +0.104 A 
ATOM      6  C   UNL     1       5.238   5.487  -9.269  0.00  0.00    +0.101 A 
ATOM      7  N   UNL     1       4.339   5.601  -8.268  0.00  0.00    -0.218 NA
ATOM      8  C   UNL     1       3.105   5.747  -8.721  0.00  0.00    +0.221 A 
ATOM      9  C   UNL     1       6.584   5.751  -9.306  0.00  0.00    +0.024 A 
ATOM     10  N   UNL     1       3.187   5.665 -10.070  0.00  0.00    -0.218 NA
ATOM     11  C   UNL     1       7.236   5.728 -10.528  0.00  0.00    +0.039 A 
BRANCH   3  13
ATOM     12  C   UNL     1       7.319   5.376 -13.874  0.00  0.00    +0.252 C 
ATOM     13  O   UNL     1       7.211   4.768 -12.737  0.00  0.00    -0.471 OA
ENDBRANCH   3  13
ENDBRANCH   1   8
BRANCH   1  14
ATOM     14  C   UNL     1       1.201   5.286  -6.764  0.00  0.00    +0.145 C 
BRANCH  14  15
ATOM     15  C   UNL     1       0.249   5.777  -5.770  0.00  0.00    +0.072 A 
ATOM     16  C   UNL     1       0.453   5.647  -4.403  0.00  0.00    +0.026 A 
ATOM     17  C   UNL     1       1.869   5.559  -3.928  0.00  0.00    +0.035 C 
ATOM     18  C   UNL     1      -0.622   5.478  -3.545  0.00  0.00    +0.133 A 
ATOM     19  C   UNL     1      -1.888   5.677  -4.060  0.00  0.00    +0.031 A 
ATOM     20  C   UNL     1      -3.051   5.066  -3.377  0.00  0.00    +0.036 C 
ATOM     21  C   UNL     1      -1.997   6.348  -5.272  0.00  0.00    +0.097 A 
ATOM     22  N   UNL     1      -0.959   6.268  -6.140  0.00  0.00    -0.248 NA
BRANCH  18  23
ATOM     23  O   UNL     1      -0.402   5.001  -2.251  0.00  0.00    -0.472 OA
ATOM     24  C   UNL     1      -0.376   5.830  -1.114  0.00  0.00    +0.252 C 
ENDBRANCH  18  23
ENDBRANCH  14  15
ENDBRANCH   1  14
TORSDOF 5
ENDMDL
MODEL 2
REMARK VINA RESULT:      -7.9      1.754      9.141
REMARK  Name = 
REMARK  5 active torsions:
REMARK  status: ('A' for Active; 'I' for Inactive)
REMARK    1  A    between atoms: O_2  and  C_3
REMARK    2  A    between atoms: C_8  and  S_9
REMARK    3  A    between atoms: S_9  and  C_11
REMARK    4  A    between atoms: C_11  and  C_12
REMARK    5  A    between atoms: C_17  and  O_18
REMARK                            x       y       z     vdW  Elec       q    Type
REMARK                         _______ _______ _______ _____ _____    ______ ____
ROOT
ATOM      1  S   UNL     1       3.798   5.391  -6.605  0.00  0.00    +0.107 S 
ATOM      2  O   UNL     1       3.622   6.913  -6.907  0.00  0.00    -0.248 OA
ENDROOT
BRANCH   1   8
ATOM      3  C   UNL     1      -2.099   5.744  -4.610  0.00  0.00    +0.140 A 
ATOM      4  C   UNL     1      -0.779   5.613  -4.196  0.00  0.00    +0.058 A 
ATOM      5  C   UNL     1       0.253   5.433  -5.107  0.00  0.00    +0.104 A 
ATOM      6  C   UNL     1      -0.114   5.000  -6.375  0.00  0.00    +0.101 A 
ATOM      7  N   UNL     1       1.055   4.747  -7.000  0.00  0.00    -0.218 NA
ATOM      8  C   UNL     1       2.095   4.914  -6.199  0.00  0.00    +0.221 A 
ATOM      9  C   UNL     1      -1.338   5.374  -6.870  0.00  0.00    +0.024 A 
ATOM     10  N   UNL     1       1.587   5.230  -4.985  0.00  0.00    -0.218 NA
ATOM     11  C   UNL     1      -2.330   5.756  -5.981  0.00  0.00    +0.039 A 
BRANCH   3  13
ATOM     12  C   UNL     1      -3.219   6.133  -2.627  0.00  0.00    +0.252 C 
ATOM     13  O   UNL     1      -3.156   5.472  -3.737  0.00  0.00    -0.471 OA
ENDBRANCH   3  13
ENDBRANCH   1   8
BRANCH   1  14
ATOM     14  C   UNL     1       3.881   4.678  -8.302  0.00  0.00    +0.145 C 
BRANCH  14  15
ATOM     15  C   UNL     1       4.839   5.382  -9.150  0.00  0.00    +0.072 A 
ATOM     16  C   UNL     1       4.517   5.865 -10.411  0.00  0.00    +0.026 A 
ATOM     17  C   UNL     1       3.082   6.204 -10.667  0.00  0.00    +0.035 C 
ATOM     18  C   UNL     1       5.472   5.902 -11.414  0.00  0.00    +0.133 A 
ATOM     19  C   UNL     1       6.785   5.670 -11.056  0.00  0.00    +0.031 A 
ATOM     20  C   UNL     1       7.749   5.225 -12.088  0.00  0.00    +0.036 C 
ATOM     21  C   UNL     1       7.113   5.751  -9.708  0.00  0.00    +0.097 A 
ATOM     22  N   UNL     1       6.145   5.481  -8.799  0.00  0.00    -0.248 NA
BRANCH  18  23
ATOM     23  O   UNL     1       5.068   6.047 -12.743  0.00  0.00    -0.472 OA
ATOM     24  C   UNL     1       4.511   5.000 -13.502  0.00  0.00    +0.252 C 
ENDBRANCH  18  23
ENDBRANCH  14  15
ENDBRANCH   1  14
TORSDOF 5
ENDMDL
MODEL 3
REMARK VINA RESULT:      -7.9      3.301      8.906
REMARK  Name = 
REMARK  5 active torsions:
REMARK  status: ('A' for Active; 'I' for Inactive)
REMARK    1  A    between atoms: O_2  and  C_3
REMARK    2  A    between atoms: C_8  and  S_9
REMARK    3  A    between atoms: S_9  and  C_11
REMARK    4  A    between atoms: C_11  and  C_12
REMARK    5  A    between atoms: C_17  and  O_18
REMARK                            x       y       z     vdW  Elec       q    Type
REMARK                         _______ _______ _______ _____ _____    ______ ____
ROOT
ATOM      1  S   UNL     1       2.676   6.162  -9.612  0.00  0.00    +0.107 S 
ATOM      2  O   UNL     1       1.524   5.137  -9.859  0.00  0.00    -0.248 OA
ENDROOT
BRANCH   1   8
ATOM      3  C   UNL     1       4.355   5.292  -3.670  0.00  0.00    +0.140 A 
ATOM      4  C   UNL     1       3.710   4.707  -4.752  0.00  0.00    +0.058 A 
ATOM      5  C   UNL     1       3.453   5.418  -5.917  0.00  0.00    +0.104 A 
ATOM      6  C   UNL     1       3.502   6.803  -5.815  0.00  0.00    +0.101 A 
ATOM      7  N   UNL     1       3.062   7.248  -7.010  0.00  0.00    -0.218 NA
ATOM      8  C   UNL     1       2.677   6.258  -7.800  0.00  0.00    +0.221 A 
ATOM      9  C   UNL     1       4.360   7.366  -4.904  0.00  0.00    +0.024 A 
ATOM     10  N   UNL     1       2.813   5.124  -7.074  0.00  0.00    -0.218 NA
ATOM     11  C   UNL     1       4.794   6.601  -3.833  0.00  0.00    +0.039 A 
BRANCH   3  13
ATOM     12  C   UNL     1       4.086   5.595  -1.395  0.00  0.00    +0.252 C 
ATOM     13  O   UNL     1       4.217   4.768  -2.382  0.00  0.00    -0.471 OA
ENDBRANCH   3  13
ENDBRANCH   1   8
BRANCH   1  14
ATOM     14  C   UNL     1       4.171   5.107  -9.828  0.00  0.00    +0.145 C 
BRANCH  14  15
ATOM     15  C   UNL     1       5.222   5.787 -10.581  0.00  0.00    +0.072 A 
ATOM     16  C   UNL     1       5.382   5.639 -11.952  0.00  0.00    +0.026 A 
ATOM     17  C   UNL     1       4.166   5.284 -12.748  0.00  0.00    +0.035 C 
ATOM     18  C   UNL     1       6.644   5.694 -12.522  0.00  0.00    +0.133 A 
ATOM     19  C   UNL     1       7.686   6.128 -11.727  0.00  0.00    +0.031 A 
ATOM     20  C   UNL     1       9.074   5.764 -12.091  0.00  0.00    +0.036 C 
ATOM     21  C   UNL     1       7.369   6.790 -10.547  0.00  0.00    +0.097 A 
ATOM     22  N   UNL     1       6.187   6.499  -9.950  0.00  0.00    -0.248 NA
BRANCH  18  23
ATOM     23  O   UNL     1       6.838   5.201 -13.814  0.00  0.00    -0.472 OA
ATOM     24  C   UNL     1       6.902   6.023 -14.955  0.00  0.00    +0.252 C 
ENDBRANCH  18  23
ENDBRANCH  14  15
ENDBRANCH   1  14
TORSDOF 5
ENDMDL
MODEL 4
REMARK VINA RESULT:      -7.8      2.608      3.522
REMARK  Name = 
REMARK  5 active torsions:
REMARK  status: ('A' for Active; 'I' for Inactive)
REMARK    1  A    between atoms: O_2  and  C_3
REMARK    2  A    between atoms: C_8  and  S_9
REMARK    3  A    between atoms: S_9  and  C_11
REMARK    4  A    between atoms: C_11  and  C_12
REMARK    5  A    between atoms: C_17  and  O_18
REMARK                            x       y       z     vdW  Elec       q    Type
REMARK                         _______ _______ _______ _____ _____    ______ ____
ROOT
ATOM      1  S   UNL     1       3.654   6.875  -3.901  0.00  0.00    +0.107 S 
ATOM      2  O   UNL     1       5.122   6.492  -3.533  0.00  0.00    -0.248 OA
ENDROOT
BRANCH   1   8
ATOM      3  C   UNL     1       3.658   5.315  -9.938  0.00  0.00    +0.140 A 
ATOM      4  C   UNL     1       4.415   5.300  -8.773  0.00  0.00    +0.058 A 
ATOM      5  C   UNL     1       3.988   5.944  -7.620  0.00  0.00    +0.104 A 
ATOM      6  C   UNL     1       3.002   6.910  -7.785  0.00  0.00    +0.101 A 
ATOM      7  N   UNL     1       2.887   7.489  -6.571  0.00  0.00    -0.218 NA
ATOM      8  C   UNL     1       3.769   7.014  -5.706  0.00  0.00    +0.221 A 
ATOM      9  C   UNL     1       2.091   6.755  -8.798  0.00  0.00    +0.024 A 
ATOM     10  N   UNL     1       4.532   6.132  -6.393  0.00  0.00    -0.218 NA
ATOM     11  C   UNL     1       2.421   5.945  -9.874  0.00  0.00    +0.039 A 
BRANCH   3  13
ATOM     12  C   UNL     1       3.904   5.840 -12.174  0.00  0.00    +0.252 C 
ATOM     13  O   UNL     1       4.249   5.085 -11.183  0.00  0.00    -0.471 OA
ENDBRANCH   3  13
ENDBRANCH   1   8
BRANCH   1  14
ATOM     14  C   UNL     1       2.804   5.243  -3.808  0.00  0.00    +0.145 C 
BRANCH  14  15
ATOM     15  C   UNL     1       1.352   5.381  -3.727  0.00  0.00    +0.072 A 
ATOM     16  C   UNL     1       0.521   5.248  -4.831  0.00  0.00    +0.026 A 
ATOM     17  C   UNL     1       1.010   4.393  -5.957  0.00  0.00    +0.035 C 
ATOM     18  C   UNL     1      -0.649   5.986  -4.921  0.00  0.00    +0.133 A 
ATOM     19  C   UNL     1      -1.066   6.664  -3.793  0.00  0.00    +0.031 A 
ATOM     20  C   UNL     1      -1.988   7.814  -3.940  0.00  0.00    +0.036 C 
ATOM     21  C   UNL     1      -0.501   6.306  -2.575  0.00  0.00    +0.097 A 
ATOM     22  N   UNL     1       0.750   5.785  -2.582  0.00  0.00    -0.248 NA
BRANCH  18  23
ATOM     23  O   UNL     1      -1.285   6.118  -6.158  0.00  0.00    -0.472 OA
ATOM     24  C   UNL     1      -2.456   5.419  -6.505  0.00  0.00    +0.252 C 
ENDBRANCH  18  23
ENDBRANCH  14  15
ENDBRANCH   1  14
TORSDOF 5
ENDMDL
MODEL 5
REMARK VINA RESULT:      -7.6      1.915      9.260
REMARK  Name = 
REMARK  5 active torsions:
REMARK  status: ('A' for Active; 'I' for Inactive)
REMARK    1  A    between atoms: O_2  and  C_3
REMARK    2  A    between atoms: C_8  and  S_9
REMARK    3  A    between atoms: S_9  and  C_11
REMARK    4  A    between atoms: C_11  and  C_12
REMARK    5  A    between atoms: C_17  and  O_18
REMARK                            x       y       z     vdW  Elec       q    Type
REMARK                         _______ _______ _______ _____ _____    ______ ____
ROOT
ATOM      1  S   UNL     1       2.013   4.856  -9.549  0.00  0.00    +0.107 S 
ATOM      2  O   UNL     1       2.631   3.646  -8.779  0.00  0.00    -0.248 OA
ENDROOT
BRANCH   1   8
ATOM      3  C   UNL     1      -1.872   5.784  -4.761  0.00  0.00    +0.140 A 
ATOM      4  C   UNL     1      -1.805   5.637  -6.141  0.00  0.00    +0.058 A 
ATOM      5  C   UNL     1      -0.588   5.583  -6.807  0.00  0.00    +0.104 A 
ATOM      6  C   UNL     1       0.514   6.071  -6.116  0.00  0.00    +0.101 A 
ATOM      7  N   UNL     1       1.515   6.063  -7.021  0.00  0.00    -0.218 NA
ATOM      8  C   UNL     1       1.099   5.688  -8.220  0.00  0.00    +0.221 A 
ATOM      9  C   UNL     1       0.535   5.960  -4.748  0.00  0.00    +0.024 A 
ATOM     10  N   UNL     1      -0.237   5.500  -8.113  0.00  0.00    -0.218 NA
ATOM     11  C   UNL     1      -0.665   5.807  -4.072  0.00  0.00    +0.039 A 
BRANCH   3  13
ATOM     12  C   UNL     1      -2.969   6.576  -2.887  0.00  0.00    +0.252 C 
ATOM     13  O   UNL     1      -3.023   6.284  -4.147  0.00  0.00    -0.471 OA
ENDBRANCH   3  13
ENDBRANCH   1   8
BRANCH   1  14
ATOM     14  C   UNL     1       3.448   6.008  -9.652  0.00  0.00    +0.145 C 
BRANCH  14  15
ATOM     15  C   UNL     1       4.320   5.702 -10.783  0.00  0.00    +0.072 A 
ATOM     16  C   UNL     1       5.704   5.792 -10.711  0.00  0.00    +0.026 A 
ATOM     17  C   UNL     1       6.332   5.615  -9.365  0.00  0.00    +0.035 C 
ATOM     18  C   UNL     1       6.443   6.157 -11.826  0.00  0.00    +0.133 A 
ATOM     19  C   UNL     1       5.789   6.196 -13.041  0.00  0.00    +0.031 A 
ATOM     20  C   UNL     1       6.354   7.012 -14.140  0.00  0.00    +0.036 C 
ATOM     21  C   UNL     1       4.558   5.558 -13.137  0.00  0.00    +0.097 A 
ATOM     22  N   UNL     1       3.811   5.444 -12.012  0.00  0.00    -0.248 NA
BRANCH  18  23
ATOM     23  O   UNL     1       7.763   6.584 -11.667  0.00  0.00    -0.472 OA
ATOM     24  C   UNL     1       8.879   5.787 -11.987  0.00  0.00    +0.252 C 
ENDBRANCH  18  23
ENDBRANCH  14  15
ENDBRANCH   1  14
TORSDOF 5
ENDMDL
MODEL 6
REMARK VINA RESULT:      -7.6      1.708      2.411
REMARK  Name = 
REMARK  5 active torsions:
REMARK  status: ('A' for Active; 'I' for Inactive)
REMARK    1  A    between atoms: O_2  and  C_3
REMARK    2  A    between atoms: C_8  and  S_9
REMARK    3  A    between atoms: S_9  and  C_11
REMARK    4  A    between atoms: C_11  and  C_12
REMARK    5  A    between atoms: C_17  and  O_18
REMARK                            x       y       z     vdW  Elec       q    Type
REMARK                         _______ _______ _______ _____ _____    ______ ____
ROOT
ATOM      1  S   UNL     1       0.560   5.174  -9.276  0.00  0.00    +0.107 S 
ATOM      2  O   UNL     1       0.078   6.137 -10.407  0.00  0.00    -0.248 OA
ENDROOT
BRANCH   1   8
ATOM      3  C   UNL     1       6.534   6.425 -10.550  0.00  0.00    +0.140 A 
ATOM      4  C   UNL     1       5.245   6.462 -11.065  0.00  0.00    +0.058 A 
ATOM      5  C   UNL     1       4.174   5.898 -10.384  0.00  0.00    +0.104 A 
ATOM      6  C   UNL     1       4.492   4.975  -9.396  0.00  0.00    +0.101 A 
ATOM      7  N   UNL     1       3.303   4.464  -9.012  0.00  0.00    -0.218 NA
ATOM      8  C   UNL     1       2.300   4.939  -9.734  0.00  0.00    +0.221 A 
ATOM      9  C   UNL     1       5.671   5.123  -8.711  0.00  0.00    +0.024 A 
ATOM     10  N   UNL     1       2.858   5.746 -10.666  0.00  0.00    -0.218 NA
ATOM     11  C   UNL     1       6.692   5.860  -9.291  0.00  0.00    +0.039 A 
BRANCH   3  13
ATOM     12  C   UNL     1       8.256   5.491 -11.777  0.00  0.00    +0.252 C 
ATOM     13  O   UNL     1       7.646   6.563 -11.386  0.00  0.00    -0.471 OA
ENDBRANCH   3  13
ENDBRANCH   1   8
BRANCH   1  14
ATOM     14  C   UNL     1       0.805   6.339  -7.870  0.00  0.00    +0.145 C 
BRANCH  14  15
ATOM     15  C   UNL     1       0.636   5.684  -6.575  0.00  0.00    +0.072 A 
ATOM     16  C   UNL     1      -0.560   5.709  -5.870  0.00  0.00    +0.026 A 
ATOM     17  C   UNL     1      -1.818   5.872  -6.663  0.00  0.00    +0.035 C 
ATOM     18  C   UNL     1      -0.558   5.710  -4.484  0.00  0.00    +0.133 A 
ATOM     19  C   UNL     1       0.639   5.453  -3.846  0.00  0.00    +0.031 A 
ATOM     20  C   UNL     1       0.825   5.902  -2.447  0.00  0.00    +0.036 C 
ATOM     21  C   UNL     1       1.664   4.886  -4.594  0.00  0.00    +0.097 A 
ATOM     22  N   UNL     1       1.688   5.128  -5.927  0.00  0.00    -0.248 NA
BRANCH  18  23
ATOM     23  O   UNL     1      -1.713   6.087  -3.795  0.00  0.00    -0.472 OA
ATOM     24  C   UNL     1      -2.603   5.165  -3.212  0.00  0.00    +0.252 C 
ENDBRANCH  18  23
ENDBRANCH  14  15
ENDBRANCH   1  14
TORSDOF 5
ENDMDL
MODEL 7
REMARK VINA RESULT:      -7.5      2.066      3.010
REMARK  Name = 
REMARK  5 active torsions:
REMARK  status: ('A' for Active; 'I' for Inactive)
REMARK    1  A    between atoms: O_2  and  C_3
REMARK    2  A    between atoms: C_8  and  S_9
REMARK    3  A    between atoms: S_9  and  C_11
REMARK    4  A    between atoms: C_11  and  C_12
REMARK    5  A    between atoms: C_17  and  O_18
REMARK                            x       y       z     vdW  Elec       q    Type
REMARK                         _______ _______ _______ _____ _____    ______ ____
ROOT
ATOM      1  S   UNL     1       2.091   6.555  -7.629  0.00  0.00    +0.107 S 
ATOM      2  O   UNL     1       1.695   7.922  -8.272  0.00  0.00    -0.248 OA
ENDROOT
BRANCH   1   8
ATOM      3  C   UNL     1       7.142   6.776 -11.279  0.00  0.00    +0.140 A 
ATOM      4  C   UNL     1       5.775   7.025 -11.236  0.00  0.00    +0.058 A 
ATOM      5  C   UNL     1       5.004   6.654 -10.142  0.00  0.00    +0.104 A 
ATOM      6  C   UNL     1       5.554   5.698  -9.298  0.00  0.00    +0.101 A 
ATOM      7  N   UNL     1       4.563   5.397  -8.433  0.00  0.00    -0.218 NA
ATOM      8  C   UNL     1       3.437   6.028  -8.727  0.00  0.00    +0.221 A 
ATOM      9  C   UNL     1       6.918   5.651  -9.156  0.00  0.00    +0.024 A 
ATOM     10  N   UNL     1       3.680   6.723  -9.862  0.00  0.00    -0.218 NA
ATOM     11  C   UNL     1       7.712   6.202 -10.150  0.00  0.00    +0.039 A 
BRANCH   3  13
ATOM     12  C   UNL     1       8.727   5.807 -12.653  0.00  0.00    +0.252 C 
ATOM     13  O   UNL     1       7.823   6.719 -12.499  0.00  0.00    -0.471 OA
ENDBRANCH   3  13
ENDBRANCH   1   8
BRANCH   1  14
ATOM     14  C   UNL     1       3.110   7.096  -6.192  0.00  0.00    +0.145 C 
BRANCH  14  15
ATOM     15  C   UNL     1       3.068   6.134  -5.094  0.00  0.00    +0.072 A 
ATOM     16  C   UNL     1       2.063   6.128  -4.136  0.00  0.00    +0.026 A 
ATOM     17  C   UNL     1       0.732   6.682  -4.538  0.00  0.00    +0.035 C 
ATOM     18  C   UNL     1       2.335   5.740  -2.834  0.00  0.00    +0.133 A 
ATOM     19  C   UNL     1       3.558   5.148  -2.586  0.00  0.00    +0.031 A 
ATOM     20  C   UNL     1       4.098   5.155  -1.207  0.00  0.00    +0.036 C 
ATOM     21  C   UNL     1       4.283   4.676  -3.673  0.00  0.00    +0.097 A 
ATOM     22  N   UNL     1       4.095   5.277  -4.873  0.00  0.00    -0.248 NA
BRANCH  18  23
ATOM     23  O   UNL     1       1.436   6.066  -1.817  0.00  0.00    -0.472 OA
ATOM     24  C   UNL     1       0.507   5.153  -1.281  0.00  0.00    +0.252 C 
ENDBRANCH  18  23
ENDBRANCH  14  15
ENDBRANCH   1  14
TORSDOF 5
ENDMDL
MODEL 8
REMARK VINA RESULT:      -7.5      1.832      2.428
REMARK  Name = 
REMARK  5 active torsions:
REMARK  status: ('A' for Active; 'I' for Inactive)
REMARK    1  A    between atoms: O_2  and  C_3
REMARK    2  A    between atoms: C_8  and  S_9
REMARK    3  A    between atoms: S_9  and  C_11
REMARK    4  A    between atoms: C_11  and  C_12
REMARK    5  A    between atoms: C_17  and  O_18
REMARK                            x       y       z     vdW  Elec       q    Type
REMARK                         _______ _______ _______ _____ _____    ______ ____
ROOT
ATOM      1  S   UNL     1       1.653   5.016  -8.064  0.00  0.00    +0.107 S 
ATOM      2  O   UNL     1       1.695   6.507  -7.605  0.00  0.00    -0.248 OA
ENDROOT
BRANCH   1   8
ATOM      3  C   UNL     1       6.715   6.667 -11.309  0.00  0.00    +0.140 A 
ATOM      4  C   UNL     1       5.343   6.466 -11.393  0.00  0.00    +0.058 A 
ATOM      5  C   UNL     1       4.622   5.921 -10.339  0.00  0.00    +0.104 A 
ATOM      6  C   UNL     1       5.358   5.235  -9.381  0.00  0.00    +0.101 A 
ATOM      7  N   UNL     1       4.431   4.674  -8.577  0.00  0.00    -0.218 NA
ATOM      8  C   UNL     1       3.199   4.895  -9.007  0.00  0.00    +0.221 A 
ATOM      9  C   UNL     1       6.646   5.634  -9.129  0.00  0.00    +0.024 A 
ATOM     10  N   UNL     1       3.323   5.576 -10.170  0.00  0.00    -0.218 NA
ATOM     11  C   UNL     1       7.321   6.362 -10.096  0.00  0.00    +0.039 A 
BRANCH   3  13
ATOM     12  C   UNL     1       7.784   5.689 -13.109  0.00  0.00    +0.252 C 
ATOM     13  O   UNL     1       7.498   6.772 -12.462  0.00  0.00    -0.471 OA
ENDBRANCH   3  13
ENDBRANCH   1   8
BRANCH   1  14
ATOM     14  C   UNL     1       2.198   4.137  -6.539  0.00  0.00    +0.145 C 
BRANCH  14  15
ATOM     15  C   UNL     1       1.936   4.915  -5.331  0.00  0.00    +0.072 A 
ATOM     16  C   UNL     1       2.949   5.424  -4.529  0.00  0.00    +0.026 A 
ATOM     17  C   UNL     1       4.265   5.701  -5.184  0.00  0.00    +0.035 C 
ATOM     18  C   UNL     1       2.769   5.542  -3.160  0.00  0.00    +0.133 A 
ATOM     19  C   UNL     1       1.492   5.361  -2.665  0.00  0.00    +0.031 A 
ATOM     20  C   UNL     1       1.313   4.998  -1.241  0.00  0.00    +0.036 C 
ATOM     21  C   UNL     1       0.435   5.412  -3.565  0.00  0.00    +0.097 A 
ATOM     22  N   UNL     1       0.677   5.065  -4.853  0.00  0.00    -0.248 NA
BRANCH  18  23
ATOM     23  O   UNL     1       3.880   5.711  -2.332  0.00  0.00    -0.472 OA
ATOM     24  C   UNL     1       4.280   6.959  -1.818  0.00  0.00    +0.252 C 
ENDBRANCH  18  23
ENDBRANCH  14  15
ENDBRANCH   1  14
TORSDOF 5
ENDMDL
MODEL 9
REMARK VINA RESULT:      -7.4      1.679      8.965
REMARK  Name = 
REMARK  5 active torsions:
REMARK  status: ('A' for Active; 'I' for Inactive)
REMARK    1  A    between atoms: O_2  and  C_3
REMARK    2  A    between atoms: C_8  and  S_9
REMARK    3  A    between atoms: S_9  and  C_11
REMARK    4  A    between atoms: C_11  and  C_12
REMARK    5  A    between atoms: C_17  and  O_18
REMARK                            x       y       z     vdW  Elec       q    Type
REMARK                         _______ _______ _______ _____ _____    ______ ____
ROOT
ATOM      1  S   UNL     1       2.604   6.852  -7.689  0.00  0.00    +0.107 S 
ATOM      2  O   UNL     1       1.912   8.244  -7.836  0.00  0.00    -0.248 OA
ENDROOT
BRANCH   1   8
ATOM      3  C   UNL     1      -1.828   5.605  -3.483  0.00  0.00    +0.140 A 
ATOM      4  C   UNL     1      -0.460   5.776  -3.657  0.00  0.00    +0.058 A 
ATOM      5  C   UNL     1       0.101   5.918  -4.919  0.00  0.00    +0.104 A 
ATOM      6  C   UNL     1      -0.679   5.495  -5.988  0.00  0.00    +0.101 A 
ATOM      7  N   UNL     1       0.138   5.580  -7.060  0.00  0.00    -0.218 NA
ATOM      8  C   UNL     1       1.365   5.944  -6.723  0.00  0.00    +0.221 A 
ATOM      9  C   UNL     1      -2.044   5.588  -5.887  0.00  0.00    +0.024 A 
ATOM     10  N   UNL     1       1.371   6.042  -5.373  0.00  0.00    -0.218 NA
ATOM     11  C   UNL     1      -2.617   5.653  -4.627  0.00  0.00    +0.039 A 
BRANCH   3  13
ATOM     12  C   UNL     1      -2.142   5.630  -1.194  0.00  0.00    +0.252 C 
ATOM     13  O   UNL     1      -2.337   5.023  -2.320  0.00  0.00    -0.471 OA
ENDBRANCH   3  13
ENDBRANCH   1   8
BRANCH   1  14
ATOM     14  C   UNL     1       2.275   6.092  -9.334  0.00  0.00    +0.145 C 
BRANCH  14  15
ATOM     15  C   UNL     1       3.489   5.965 -10.137  0.00  0.00    +0.072 A 
ATOM     16  C   UNL     1       4.717   5.615  -9.593  0.00  0.00    +0.026 A 
ATOM     17  C   UNL     1       4.703   4.796  -8.340  0.00  0.00    +0.035 C 
ATOM     18  C   UNL     1       5.892   6.119 -10.129  0.00  0.00    +0.133 A 
ATOM     19  C   UNL     1       5.812   6.776 -11.340  0.00  0.00    +0.031 A 
ATOM     20  C   UNL     1       6.882   7.726 -11.720  0.00  0.00    +0.036 C 
ATOM     21  C   UNL     1       4.659   6.603 -12.097  0.00  0.00    +0.097 A 
ATOM     22  N   UNL     1       3.505   6.321 -11.444  0.00  0.00    -0.248 NA
BRANCH  18  23
ATOM     23  O   UNL     1       7.071   6.055  -9.383  0.00  0.00    -0.472 OA
ATOM     24  C   UNL     1       8.112   5.147  -9.655  0.00  0.00    +0.252 C 
ENDBRANCH  18  23
ENDBRANCH  14  15
ENDBRANCH   1  14
TORSDOF 5
ENDMDL
