MODEL 1
REMARK VINA RESULT:      -8.8      0.000      0.000
REMARK  Name = 
REMARK  12 active torsions:
REMARK  status: ('A' for Active; 'I' for Inactive)
REMARK    1  A    between atoms: C_2  and  N_4
REMARK    2  A    between atoms: N_4  and  C_5
REMARK    3  A    between atoms: N_4  and  C_18
REMARK    4  A    between atoms: C_5  and  C_6
REMARK    5  A    between atoms: C_6  and  C_7
REMARK    6  A    between atoms: C_7  and  C_8
REMARK    7  A    between atoms: C_8  and  O_9
REMARK    8  A    between atoms: O_9  and  C_10
REMARK    9  A    between atoms: C_10  and  C_11
REMARK   10  A    between atoms: N_13  and  S_14
REMARK   11  A    between atoms: C_21  and  C_22
REMARK   12  A    between atoms: C_28  and  C_29
REMARK                            x       y       z     vdW  Elec       q    Type
REMARK                         _______ _______ _______ _____ _____    ______ ____
ROOT
ATOM      1  C   UNL     1       2.856   7.058  -6.442  0.00  0.00    +0.151 A 
ATOM      2  N   UNL     1       3.897   6.873  -7.291  0.00  0.00    -0.228 NA
ATOM      3  C   UNL     1       3.695   6.625  -8.607  0.00  0.00    +0.100 A 
ATOM      4  C   UNL     1       2.424   6.732  -9.159  0.00  0.00    +0.099 A 
ATOM      5  N   UNL     1       1.525   7.402  -8.396  0.00  0.00    -0.239 NA
ATOM      6  C   UNL     1       1.673   7.460  -7.051  0.00  0.00    +0.133 A 
ENDROOT
BRANCH   4   7
ATOM      7  C   UNL     1       2.003   5.824 -10.233  0.00  0.00    +0.019 A 
ATOM      8  C   UNL     1       1.616   6.434 -11.421  0.00  0.00    +0.002 A 
ATOM      9  C   UNL     1       0.752   5.805 -12.309  0.00  0.00    +0.000 A 
ATOM     10  C   UNL     1      -0.139   4.877 -11.807  0.00  0.00    +0.000 A 
ATOM     11  C   UNL     1       0.255   4.197 -10.665  0.00  0.00    +0.000 A 
ATOM     12  C   UNL     1       1.342   4.638  -9.940  0.00  0.00    +0.002 A 
ENDBRANCH   4   7
BRANCH   3  13
ATOM     13  C   UNL     1       4.774   6.204  -9.482  0.00  0.00    +0.019 A 
ATOM     14  C   UNL     1       5.112   6.947 -10.606  0.00  0.00    +0.002 A 
ATOM     15  C   UNL     1       6.411   7.061 -11.054  0.00  0.00    +0.000 A 
ATOM     16  C   UNL     1       7.341   6.189 -10.550  0.00  0.00    +0.000 A 
ATOM     17  C   UNL     1       7.104   5.531  -9.375  0.00  0.00    +0.000 A 
ATOM     18  C   UNL     1       5.796   5.424  -8.957  0.00  0.00    +0.002 A 
ENDBRANCH   3  13
BRANCH   1  19
ATOM     19  N   UNL     1       2.833   6.441  -5.150  0.00  0.00    -0.294 N 
BRANCH  19  21
ATOM     20  C   UNL     1       4.764   7.594  -4.266  0.00  0.00    +0.021 C 
ATOM     21  C   UNL     1       3.336   7.164  -3.990  0.00  0.00    +0.074 C 
ATOM     22  C   UNL     1       3.405   6.190  -2.820  0.00  0.00    +0.021 C 
ENDBRANCH  19  21
BRANCH  19  23
ATOM     23  C   UNL     1       2.667   5.004  -5.068  0.00  0.00    +0.092 C 
BRANCH  23  24
ATOM     24  C   UNL     1       1.246   4.642  -5.424  0.00  0.00    +0.024 C 
BRANCH  24  25
ATOM     25  C   UNL     1       0.235   5.254  -4.495  0.00  0.00    +0.034 C 
BRANCH  25  26
ATOM     26  C   UNL     1      -1.089   5.530  -5.149  0.00  0.00    +0.143 C 
BRANCH  26  27
ATOM     27  O   UNL     1      -1.849   6.479  -4.491  0.00  0.00    -0.344 OA
BRANCH  27  28
ATOM     28  C   UNL     1      -2.917   5.949  -3.788  0.00  0.00    +0.230 C 
BRANCH  28  29
ATOM     29  C   UNL     1      -2.704   6.032  -2.309  0.00  0.00    +0.292 C 
ATOM     30  N   UNL     1      -2.154   7.269  -1.838  0.00  0.00    -0.061 NA
ATOM     31  O   UNL     1      -2.219   4.988  -1.776  0.00  0.00    -0.269 OA
BRANCH  30  32
ATOM     32  S   UNL     1      -1.341   7.305  -0.309  0.00  0.00    +0.078 S 
ATOM     33  O   UNL     1      -2.107   6.514   0.722  0.00  0.00    -0.153 OA
ATOM     34  O   UNL     1      -1.310   8.746   0.132  0.00  0.00    -0.153 OA
ATOM     35  C   UNL     1       0.290   6.624  -0.435  0.00  0.00    +0.202 C 
ENDBRANCH  30  32
ENDBRANCH  28  29
ENDBRANCH  27  28
ENDBRANCH  26  27
ENDBRANCH  25  26
ENDBRANCH  24  25
ENDBRANCH  23  24
ENDBRANCH  19  23
ENDBRANCH   1  19
TORSDOF 12
ENDMDL
MODEL 2
REMARK VINA RESULT:      -8.4      1.960      4.306
REMARK  Name = 
REMARK  12 active torsions:
REMARK  status: ('A' for Active; 'I' for Inactive)
REMARK    1  A    between atoms: C_2  and  N_4
REMARK    2  A    between atoms: N_4  and  C_5
REMARK    3  A    between atoms: N_4  and  C_18
REMARK    4  A    between atoms: C_5  and  C_6
REMARK    5  A    between atoms: C_6  and  C_7
REMARK    6  A    between atoms: C_7  and  C_8
REMARK    7  A    between atoms: C_8  and  O_9
REMARK    8  A    between atoms: O_9  and  C_10
REMARK    9  A    between atoms: C_10  and  C_11
REMARK   10  A    between atoms: N_13  and  S_14
REMARK   11  A    between atoms: C_21  and  C_22
REMARK   12  A    between atoms: C_28  and  C_29
REMARK                            x       y       z     vdW  Elec       q    Type
REMARK                         _______ _______ _______ _____ _____    ______ ____
ROOT
ATOM      1  C   UNL     1       2.086   5.017  -8.675  0.00  0.00    +0.151 A 
ATOM      2  N   UNL     1       1.649   5.327  -9.921  0.00  0.00    -0.228 NA
ATOM      3  C   UNL     1       2.517   5.535 -10.939  0.00  0.00    +0.100 A 
ATOM      4  C   UNL     1       3.870   5.259 -10.779  0.00  0.00    +0.099 A 
ATOM      5  N   UNL     1       4.174   4.485  -9.708  0.00  0.00    -0.239 NA
ATOM      6  C   UNL     1       3.358   4.459  -8.627  0.00  0.00    +0.133 A 
ENDROOT
BRANCH   4   7
ATOM      7  C   UNL     1       4.881   6.095 -11.441  0.00  0.00    +0.019 A 
ATOM      8  C   UNL     1       5.782   5.420 -12.255  0.00  0.00    +0.002 A 
ATOM      9  C   UNL     1       7.040   5.943 -12.530  0.00  0.00    +0.000 A 
ATOM     10  C   UNL     1       7.608   6.799 -11.606  0.00  0.00    +0.000 A 
ATOM     11  C   UNL     1       6.730   7.543 -10.833  0.00  0.00    +0.000 A 
ATOM     12  C   UNL     1       5.390   7.224 -10.810  0.00  0.00    +0.002 A 
ENDBRANCH   4   7
BRANCH   3  13
ATOM     13  C   UNL     1       2.089   6.083 -12.212  0.00  0.00    +0.019 A 
ATOM     14  C   UNL     1       2.032   5.287 -13.349  0.00  0.00    +0.002 A 
ATOM     15  C   UNL     1       1.071   5.457 -14.323  0.00  0.00    +0.000 A 
ATOM     16  C   UNL     1       0.341   6.616 -14.308  0.00  0.00    +0.000 A 
ATOM     17  C   UNL     1       0.264   7.368 -13.167  0.00  0.00    +0.000 A 
ATOM     18  C   UNL     1       1.243   7.184 -12.216  0.00  0.00    +0.002 A 
ENDBRANCH   3  13
BRANCH   1  19
ATOM     19  N   UNL     1       1.521   5.637  -7.514  0.00  0.00    -0.294 N 
BRANCH  19  21
ATOM     20  C   UNL     1       1.530   7.033  -5.541  0.00  0.00    +0.021 C 
ATOM     21  C   UNL     1       2.237   6.715  -6.844  0.00  0.00    +0.074 C 
ATOM     22  C   UNL     1       2.120   7.966  -7.706  0.00  0.00    +0.021 C 
ENDBRANCH  19  21
BRANCH  19  23
ATOM     23  C   UNL     1       0.454   4.955  -6.810  0.00  0.00    +0.092 C 
BRANCH  23  24
ATOM     24  C   UNL     1      -0.871   5.323  -7.429  0.00  0.00    +0.024 C 
BRANCH  24  25
ATOM     25  C   UNL     1      -2.013   5.252  -6.454  0.00  0.00    +0.034 C 
BRANCH  25  26
ATOM     26  C   UNL     1      -2.558   6.598  -6.069  0.00  0.00    +0.143 C 
BRANCH  26  27
ATOM     27  O   UNL     1      -2.523   6.846  -4.709  0.00  0.00    -0.344 OA
BRANCH  27  28
ATOM     28  C   UNL     1      -2.721   5.718  -3.932  0.00  0.00    +0.230 C 
BRANCH  28  29
ATOM     29  C   UNL     1      -1.976   5.799  -2.637  0.00  0.00    +0.292 C 
ATOM     30  N   UNL     1      -0.600   6.187  -2.745  0.00  0.00    -0.061 NA
ATOM     31  O   UNL     1      -2.208   4.855  -1.823  0.00  0.00    -0.269 OA
BRANCH  30  32
ATOM     32  S   UNL     1       0.497   5.777  -1.468  0.00  0.00    +0.078 S 
ATOM     33  O   UNL     1       0.612   4.280  -1.324  0.00  0.00    -0.153 OA
ATOM     34  O   UNL     1      -0.093   6.328  -0.196  0.00  0.00    -0.153 OA
ATOM     35  C   UNL     1       2.113   6.434  -1.777  0.00  0.00    +0.202 C 
ENDBRANCH  30  32
ENDBRANCH  28  29
ENDBRANCH  27  28
ENDBRANCH  26  27
ENDBRANCH  25  26
ENDBRANCH  24  25
ENDBRANCH  23  24
ENDBRANCH  19  23
ENDBRANCH   1  19
TORSDOF 12
ENDMDL
MODEL 3
REMARK VINA RESULT:      -8.4      5.349      9.283
REMARK  Name = 
REMARK  12 active torsions:
REMARK  status: ('A' for Active; 'I' for Inactive)
REMARK    1  A    between atoms: C_2  and  N_4
REMARK    2  A    between atoms: N_4  and  C_5
REMARK    3  A    between atoms: N_4  and  C_18
REMARK    4  A    between atoms: C_5  and  C_6
REMARK    5  A    between atoms: C_6  and  C_7
REMARK    6  A    between atoms: C_7  and  C_8
REMARK    7  A    between atoms: C_8  and  O_9
REMARK    8  A    between atoms: O_9  and  C_10
REMARK    9  A    between atoms: C_10  and  C_11
REMARK   10  A    between atoms: N_13  and  S_14
REMARK   11  A    between atoms: C_21  and  C_22
REMARK   12  A    between atoms: C_28  and  C_29
REMARK                            x       y       z     vdW  Elec       q    Type
REMARK                         _______ _______ _______ _____ _____    ______ ____
ROOT
ATOM      1  C   UNL     1       2.688   4.949  -6.860  0.00  0.00    +0.151 A 
ATOM      2  N   UNL     1       3.156   5.380  -5.662  0.00  0.00    -0.228 NA
ATOM      3  C   UNL     1       2.317   5.639  -4.631  0.00  0.00    +0.100 A 
ATOM      4  C   UNL     1       0.972   5.298  -4.713  0.00  0.00    +0.099 A 
ATOM      5  N   UNL     1       0.662   4.426  -5.705  0.00  0.00    -0.239 NA
ATOM      6  C   UNL     1       1.439   4.341  -6.811  0.00  0.00    +0.133 A 
ENDROOT
BRANCH   4   7
ATOM      7  C   UNL     1      -0.048   6.148  -4.084  0.00  0.00    +0.019 A 
ATOM      8  C   UNL     1      -0.890   5.509  -3.181  0.00  0.00    +0.002 A 
ATOM      9  C   UNL     1      -2.158   6.004  -2.901  0.00  0.00    +0.000 A 
ATOM     10  C   UNL     1      -2.794   6.757  -3.869  0.00  0.00    +0.000 A 
ATOM     11  C   UNL     1      -1.977   7.467  -4.735  0.00  0.00    +0.000 A 
ATOM     12  C   UNL     1      -0.626   7.199  -4.784  0.00  0.00    +0.002 A 
ENDBRANCH   4   7
BRANCH   3  13
ATOM     13  C   UNL     1       2.768   6.308  -3.426  0.00  0.00    +0.019 A 
ATOM     14  C   UNL     1       2.977   5.598  -2.250  0.00  0.00    +0.002 A 
ATOM     15  C   UNL     1       3.975   5.923  -1.357  0.00  0.00    +0.000 A 
ATOM     16  C   UNL     1       4.583   7.143  -1.492  0.00  0.00    +0.000 A 
ATOM     17  C   UNL     1       4.512   7.823  -2.677  0.00  0.00    +0.000 A 
ATOM     18  C   UNL     1       3.498   7.483  -3.546  0.00  0.00    +0.002 A 
ENDBRANCH   3  13
BRANCH   1  19
ATOM     19  N   UNL     1       3.183   5.491  -8.089  0.00  0.00    -0.294 N 
BRANCH  19  21
ATOM     20  C   UNL     1       2.054   7.531  -7.454  0.00  0.00    +0.021 C 
ATOM     21  C   UNL     1       2.636   6.737  -8.608  0.00  0.00    +0.074 C 
ATOM     22  C   UNL     1       1.464   6.395  -9.519  0.00  0.00    +0.021 C 
ENDBRANCH  19  21
BRANCH  19  23
ATOM     23  C   UNL     1       3.935   4.627  -8.977  0.00  0.00    +0.092 C 
BRANCH  23  24
ATOM     24  C   UNL     1       5.044   5.417  -9.626  0.00  0.00    +0.024 C 
BRANCH  24  25
ATOM     25  C   UNL     1       6.314   5.416  -8.821  0.00  0.00    +0.034 C 
BRANCH  25  26
ATOM     26  C   UNL     1       7.478   6.042  -9.536  0.00  0.00    +0.143 C 
BRANCH  26  27
ATOM     27  O   UNL     1       7.872   5.355 -10.669  0.00  0.00    -0.344 OA
BRANCH  27  28
ATOM     28  C   UNL     1       8.219   6.176 -11.726  0.00  0.00    +0.230 C 
BRANCH  28  29
ATOM     29  C   UNL     1       7.272   6.032 -12.876  0.00  0.00    +0.292 C 
ATOM     30  N   UNL     1       5.933   6.481 -12.627  0.00  0.00    -0.061 NA
ATOM     31  O   UNL     1       7.365   4.941 -13.515  0.00  0.00    -0.269 OA
BRANCH  30  32
ATOM     32  S   UNL     1       4.641   5.870 -13.605  0.00  0.00    +0.078 S 
ATOM     33  O   UNL     1       3.304   6.254 -13.022  0.00  0.00    -0.153 OA
ATOM     34  O   UNL     1       4.751   4.368 -13.581  0.00  0.00    -0.153 OA
ATOM     35  C   UNL     1       4.733   6.506 -15.256  0.00  0.00    +0.202 C 
ENDBRANCH  30  32
ENDBRANCH  28  29
ENDBRANCH  27  28
ENDBRANCH  26  27
ENDBRANCH  25  26
ENDBRANCH  24  25
ENDBRANCH  23  24
ENDBRANCH  19  23
ENDBRANCH   1  19
TORSDOF 12
ENDMDL
MODEL 4
REMARK VINA RESULT:      -8.4      4.748      8.677
REMARK  Name = 
REMARK  12 active torsions:
REMARK  status: ('A' for Active; 'I' for Inactive)
REMARK    1  A    between atoms: C_2  and  N_4
REMARK    2  A    between atoms: N_4  and  C_5
REMARK    3  A    between atoms: N_4  and  C_18
REMARK    4  A    between atoms: C_5  and  C_6
REMARK    5  A    between atoms: C_6  and  C_7
REMARK    6  A    between atoms: C_7  and  C_8
REMARK    7  A    between atoms: C_8  and  O_9
REMARK    8  A    between atoms: O_9  and  C_10
REMARK    9  A    between atoms: C_10  and  C_11
REMARK   10  A    between atoms: N_13  and  S_14
REMARK   11  A    between atoms: C_21  and  C_22
REMARK   12  A    between atoms: C_28  and  C_29
REMARK                            x       y       z     vdW  Elec       q    Type
REMARK                         _______ _______ _______ _____ _____    ______ ____
ROOT
ATOM      1  C   UNL     1       2.982   4.825  -7.060  0.00  0.00    +0.151 A 
ATOM      2  N   UNL     1       3.396   5.286  -5.854  0.00  0.00    -0.228 NA
ATOM      3  C   UNL     1       2.522   5.474  -4.835  0.00  0.00    +0.100 A 
ATOM      4  C   UNL     1       1.210   5.028  -4.941  0.00  0.00    +0.099 A 
ATOM      5  N   UNL     1       0.986   4.139  -5.940  0.00  0.00    -0.239 NA
ATOM      6  C   UNL     1       1.785   4.120  -7.034  0.00  0.00    +0.133 A 
ENDROOT
BRANCH   4   7
ATOM      7  C   UNL     1       0.116   5.792  -4.326  0.00  0.00    +0.019 A 
ATOM      8  C   UNL     1      -0.508   5.184  -3.243  0.00  0.00    +0.002 A 
ATOM      9  C   UNL     1      -1.814   5.503  -2.888  0.00  0.00    +0.000 A 
ATOM     10  C   UNL     1      -2.663   5.968  -3.873  0.00  0.00    +0.000 A 
ATOM     11  C   UNL     1      -2.074   6.648  -4.928  0.00  0.00    +0.000 A 
ATOM     12  C   UNL     1      -0.707   6.601  -5.100  0.00  0.00    +0.002 A 
ENDBRANCH   4   7
BRANCH   3  13
ATOM     13  C   UNL     1       2.899   6.171  -3.621  0.00  0.00    +0.019 A 
ATOM     14  C   UNL     1       3.285   5.471  -2.485  0.00  0.00    +0.002 A 
ATOM     15  C   UNL     1       4.248   5.941  -1.618  0.00  0.00    +0.000 A 
ATOM     16  C   UNL     1       4.619   7.255  -1.724  0.00  0.00    +0.000 A 
ATOM     17  C   UNL     1       4.373   7.951  -2.876  0.00  0.00    +0.000 A 
ATOM     18  C   UNL     1       3.399   7.464  -3.719  0.00  0.00    +0.002 A 
ENDBRANCH   3  13
BRANCH   1  19
ATOM     19  N   UNL     1       3.453   5.410  -8.280  0.00  0.00    -0.294 N 
BRANCH  19  21
ATOM     20  C   UNL     1       5.844   5.258  -8.602  0.00  0.00    +0.021 C 
ATOM     21  C   UNL     1       4.491   4.741  -9.053  0.00  0.00    +0.074 C 
ATOM     22  C   UNL     1       4.340   5.164 -10.509  0.00  0.00    +0.021 C 
ENDBRANCH  19  21
BRANCH  19  23
ATOM     23  C   UNL     1       3.175   6.809  -8.533  0.00  0.00    +0.092 C 
BRANCH  23  24
ATOM     24  C   UNL     1       1.684   7.017  -8.618  0.00  0.00    +0.024 C 
BRANCH  24  25
ATOM     25  C   UNL     1       1.155   6.906 -10.021  0.00  0.00    +0.034 C 
BRANCH  25  26
ATOM     26  C   UNL     1       0.169   5.787 -10.205  0.00  0.00    +0.143 C 
BRANCH  26  27
ATOM     27  O   UNL     1      -0.227   5.602 -11.516  0.00  0.00    -0.344 OA
BRANCH  27  28
ATOM     28  C   UNL     1       0.622   4.789 -12.245  0.00  0.00    +0.230 C 
BRANCH  28  29
ATOM     29  C   UNL     1       1.205   5.508 -13.421  0.00  0.00    +0.292 C 
ATOM     30  N   UNL     1       0.762   6.860 -13.593  0.00  0.00    -0.061 NA
ATOM     31  O   UNL     1       1.279   4.824 -14.486  0.00  0.00    -0.269 OA
BRANCH  30  32
ATOM     32  S   UNL     1       0.882   7.597 -15.157  0.00  0.00    +0.078 S 
ATOM     33  O   UNL     1       2.192   7.242 -15.814  0.00  0.00    -0.153 OA
ATOM     34  O   UNL     1       0.854   9.087 -14.937  0.00  0.00    -0.153 OA
ATOM     35  C   UNL     1      -0.436   7.067 -16.216  0.00  0.00    +0.202 C 
ENDBRANCH  30  32
ENDBRANCH  28  29
ENDBRANCH  27  28
ENDBRANCH  26  27
ENDBRANCH  25  26
ENDBRANCH  24  25
ENDBRANCH  23  24
ENDBRANCH  19  23
ENDBRANCH   1  19
TORSDOF 12
ENDMDL
MODEL 5
REMARK VINA RESULT:      -8.4      1.432      2.796
REMARK  Name = 
REMARK  12 active torsions:
REMARK  status: ('A' for Active; 'I' for Inactive)
REMARK    1  A    between atoms: C_2  and  N_4
REMARK    2  A    between atoms: N_4  and  C_5
REMARK    3  A    between atoms: N_4  and  C_18
REMARK    4  A    between atoms: C_5  and  C_6
REMARK    5  A    between atoms: C_6  and  C_7
REMARK    6  A    between atoms: C_7  and  C_8
REMARK    7  A    between atoms: C_8  and  O_9
REMARK    8  A    between atoms: O_9  and  C_10
REMARK    9  A    between atoms: C_10  and  C_11
REMARK   10  A    between atoms: N_13  and  S_14
REMARK   11  A    between atoms: C_21  and  C_22
REMARK   12  A    between atoms: C_28  and  C_29
REMARK                            x       y       z     vdW  Elec       q    Type
REMARK                         _______ _______ _______ _____ _____    ______ ____
ROOT
ATOM      1  C   UNL     1       2.825   6.993  -6.309  0.00  0.00    +0.151 A 
ATOM      2  N   UNL     1       3.861   6.838  -7.170  0.00  0.00    -0.228 NA
ATOM      3  C   UNL     1       3.652   6.596  -8.486  0.00  0.00    +0.100 A 
ATOM      4  C   UNL     1       2.373   6.679  -9.024  0.00  0.00    +0.099 A 
ATOM      5  N   UNL     1       1.467   7.323  -8.247  0.00  0.00    -0.239 NA
ATOM      6  C   UNL     1       1.628   7.374  -6.903  0.00  0.00    +0.133 A 
ENDROOT
BRANCH   4   7
ATOM      7  C   UNL     1       1.961   5.769 -10.102  0.00  0.00    +0.019 A 
ATOM      8  C   UNL     1       1.602   6.378 -11.299  0.00  0.00    +0.002 A 
ATOM      9  C   UNL     1       0.747   5.753 -12.199  0.00  0.00    +0.000 A 
ATOM     10  C   UNL     1      -0.162   4.837 -11.708  0.00  0.00    +0.000 A 
ATOM     11  C   UNL     1       0.205   4.158 -10.556  0.00  0.00    +0.000 A 
ATOM     12  C   UNL     1       1.283   4.592  -9.815  0.00  0.00    +0.002 A 
ENDBRANCH   4   7
BRANCH   3  13
ATOM     13  C   UNL     1       4.731   6.206  -9.374  0.00  0.00    +0.019 A 
ATOM     14  C   UNL     1       5.078   6.994 -10.464  0.00  0.00    +0.002 A 
ATOM     15  C   UNL     1       6.379   7.118 -10.902  0.00  0.00    +0.000 A 
ATOM     16  C   UNL     1       7.301   6.219 -10.434  0.00  0.00    +0.000 A 
ATOM     17  C   UNL     1       7.055   5.511  -9.289  0.00  0.00    +0.000 A 
ATOM     18  C   UNL     1       5.745   5.396  -8.881  0.00  0.00    +0.002 A 
ENDBRANCH   3  13
BRANCH   1  19
ATOM     19  N   UNL     1       2.828   6.366  -5.022  0.00  0.00    -0.294 N 
BRANCH  19  21
ATOM     20  C   UNL     1       4.089   4.307  -4.924  0.00  0.00    +0.021 C 
ATOM     21  C   UNL     1       2.701   4.919  -4.917  0.00  0.00    +0.074 C 
ATOM     22  C   UNL     1       2.009   4.414  -6.177  0.00  0.00    +0.021 C 
ENDBRANCH  19  21
BRANCH  19  23
ATOM     23  C   UNL     1       2.583   7.183  -3.850  0.00  0.00    +0.092 C 
BRANCH  23  24
ATOM     24  C   UNL     1       3.891   7.472  -3.157  0.00  0.00    +0.024 C 
BRANCH  24  25
ATOM     25  C   UNL     1       3.978   6.857  -1.788  0.00  0.00    +0.034 C 
BRANCH  25  26
ATOM     26  C   UNL     1       2.819   7.206  -0.899  0.00  0.00    +0.143 C 
BRANCH  26  27
ATOM     27  O   UNL     1       2.163   6.106  -0.380  0.00  0.00    -0.344 OA
BRANCH  27  28
ATOM     28  C   UNL     1       0.785   6.234  -0.367  0.00  0.00    +0.230 C 
BRANCH  28  29
ATOM     29  C   UNL     1       0.184   5.897  -1.695  0.00  0.00    +0.292 C 
ATOM     30  N   UNL     1      -1.015   6.611  -2.025  0.00  0.00    -0.061 NA
ATOM     31  O   UNL     1       0.173   4.662  -1.983  0.00  0.00    -0.269 OA
BRANCH  30  32
ATOM     32  S   UNL     1      -2.099   5.946  -3.200  0.00  0.00    +0.078 S 
ATOM     33  O   UNL     1      -3.252   6.885  -3.454  0.00  0.00    -0.153 OA
ATOM     34  O   UNL     1      -2.651   4.674  -2.610  0.00  0.00    -0.153 OA
ATOM     35  C   UNL     1      -1.272   5.649  -4.738  0.00  0.00    +0.202 C 
ENDBRANCH  30  32
ENDBRANCH  28  29
ENDBRANCH  27  28
ENDBRANCH  26  27
ENDBRANCH  25  26
ENDBRANCH  24  25
ENDBRANCH  23  24
ENDBRANCH  19  23
ENDBRANCH   1  19
TORSDOF 12
ENDMDL
MODEL 6
REMARK VINA RESULT:      -8.3      5.773     10.214
REMARK  Name = 
REMARK  12 active torsions:
REMARK  status: ('A' for Active; 'I' for Inactive)
REMARK    1  A    between atoms: C_2  and  N_4
REMARK    2  A    between atoms: N_4  and  C_5
REMARK    3  A    between atoms: N_4  and  C_18
REMARK    4  A    between atoms: C_5  and  C_6
REMARK    5  A    between atoms: C_6  and  C_7
REMARK    6  A    between atoms: C_7  and  C_8
REMARK    7  A    between atoms: C_8  and  O_9
REMARK    8  A    between atoms: O_9  and  C_10
REMARK    9  A    between atoms: C_10  and  C_11
REMARK   10  A    between atoms: N_13  and  S_14
REMARK   11  A    between atoms: C_21  and  C_22
REMARK   12  A    between atoms: C_28  and  C_29
REMARK                            x       y       z     vdW  Elec       q    Type
REMARK                         _______ _______ _______ _____ _____    ______ ____
ROOT
ATOM      1  C   UNL     1       1.640   6.971  -8.872  0.00  0.00    +0.151 A 
ATOM      2  N   UNL     1       0.628   6.908  -7.971  0.00  0.00    -0.228 NA
ATOM      3  C   UNL     1       0.874   6.827  -6.642  0.00  0.00    +0.100 A 
ATOM      4  C   UNL     1       2.165   6.988  -6.153  0.00  0.00    +0.099 A 
ATOM      5  N   UNL     1       3.042   7.545  -7.025  0.00  0.00    -0.239 NA
ATOM      6  C   UNL     1       2.846   7.433  -8.360  0.00  0.00    +0.133 A 
ENDROOT
BRANCH   4   7
ATOM      7  C   UNL     1       2.618   6.219  -4.986  0.00  0.00    +0.019 A 
ATOM      8  C   UNL     1       3.296   6.943  -4.013  0.00  0.00    +0.002 A 
ATOM      9  C   UNL     1       4.191   6.328  -3.145  0.00  0.00    +0.000 A 
ATOM     10  C   UNL     1       4.823   5.175  -3.569  0.00  0.00    +0.000 A 
ATOM     11  C   UNL     1       4.133   4.392  -4.482  0.00  0.00    +0.000 A 
ATOM     12  C   UNL     1       3.021   4.897  -5.122  0.00  0.00    +0.002 A 
ENDBRANCH   4   7
BRANCH   3  13
ATOM     13  C   UNL     1      -0.175   6.535  -5.684  0.00  0.00    +0.019 A 
ATOM     14  C   UNL     1      -0.619   7.504  -4.793  0.00  0.00    +0.002 A 
ATOM     15  C   UNL     1      -1.934   7.588  -4.387  0.00  0.00    +0.000 A 
ATOM     16  C   UNL     1      -2.753   6.520  -4.641  0.00  0.00    +0.000 A 
ATOM     17  C   UNL     1      -2.417   5.606  -5.603  0.00  0.00    +0.000 A 
ATOM     18  C   UNL     1      -1.095   5.538  -5.983  0.00  0.00    +0.002 A 
ENDBRANCH   3  13
BRANCH   1  19
ATOM     19  N   UNL     1       1.612   6.195 -10.075  0.00  0.00    -0.294 N 
BRANCH  19  21
ATOM     20  C   UNL     1       0.359   4.661 -11.460  0.00  0.00    +0.021 C 
ATOM     21  C   UNL     1       0.362   6.029 -10.805  0.00  0.00    +0.074 C 
ATOM     22  C   UNL     1       0.341   7.043 -11.942  0.00  0.00    +0.021 C 
ENDBRANCH  19  21
BRANCH  19  23
ATOM     23  C   UNL     1       2.712   5.292 -10.346  0.00  0.00    +0.092 C 
BRANCH  23  24
ATOM     24  C   UNL     1       3.630   5.911 -11.370  0.00  0.00    +0.024 C 
BRANCH  24  25
ATOM     25  C   UNL     1       5.076   5.872 -10.962  0.00  0.00    +0.034 C 
BRANCH  25  26
ATOM     26  C   UNL     1       5.691   7.233 -10.802  0.00  0.00    +0.143 C 
BRANCH  26  27
ATOM     27  O   UNL     1       6.490   7.613 -11.865  0.00  0.00    -0.344 OA
BRANCH  27  28
ATOM     28  C   UNL     1       7.194   6.567 -12.434  0.00  0.00    +0.230 C 
BRANCH  28  29
ATOM     29  C   UNL     1       6.954   6.474 -13.909  0.00  0.00    +0.292 C 
ATOM     30  N   UNL     1       6.424   7.659 -14.519  0.00  0.00    -0.061 NA
ATOM     31  O   UNL     1       6.435   5.386 -14.301  0.00  0.00    -0.269 OA
BRANCH  30  32
ATOM     32  S   UNL     1       5.582   7.528 -16.027  0.00  0.00    +0.078 S 
ATOM     33  O   UNL     1       5.213   8.894 -16.551  0.00  0.00    -0.153 OA
ATOM     34  O   UNL     1       4.309   6.772 -15.748  0.00  0.00    -0.153 OA
ATOM     35  C   UNL     1       6.574   6.711 -17.246  0.00  0.00    +0.202 C 
ENDBRANCH  30  32
ENDBRANCH  28  29
ENDBRANCH  27  28
ENDBRANCH  26  27
ENDBRANCH  25  26
ENDBRANCH  24  25
ENDBRANCH  23  24
ENDBRANCH  19  23
ENDBRANCH   1  19
TORSDOF 12
ENDMDL
MODEL 7
REMARK VINA RESULT:      -8.2      5.263      9.113
REMARK  Name = 
REMARK  12 active torsions:
REMARK  status: ('A' for Active; 'I' for Inactive)
REMARK    1  A    between atoms: C_2  and  N_4
REMARK    2  A    between atoms: N_4  and  C_5
REMARK    3  A    between atoms: N_4  and  C_18
REMARK    4  A    between atoms: C_5  and  C_6
REMARK    5  A    between atoms: C_6  and  C_7
REMARK    6  A    between atoms: C_7  and  C_8
REMARK    7  A    between atoms: C_8  and  O_9
REMARK    8  A    between atoms: O_9  and  C_10
REMARK    9  A    between atoms: C_10  and  C_11
REMARK   10  A    between atoms: N_13  and  S_14
REMARK   11  A    between atoms: C_21  and  C_22
REMARK   12  A    between atoms: C_28  and  C_29
REMARK                            x       y       z     vdW  Elec       q    Type
REMARK                         _______ _______ _______ _____ _____    ______ ____
ROOT
ATOM      1  C   UNL     1       2.626   4.872  -7.054  0.00  0.00    +0.151 A 
ATOM      2  N   UNL     1       3.155   5.380  -5.913  0.00  0.00    -0.228 NA
ATOM      3  C   UNL     1       2.383   5.626  -4.828  0.00  0.00    +0.100 A 
ATOM      4  C   UNL     1       1.062   5.196  -4.791  0.00  0.00    +0.099 A 
ATOM      5  N   UNL     1       0.736   4.266  -5.722  0.00  0.00    -0.239 NA
ATOM      6  C   UNL     1       1.429   4.186  -6.884  0.00  0.00    +0.133 A 
ENDROOT
BRANCH   4   7
ATOM      7  C   UNL     1       0.039   6.003  -4.112  0.00  0.00    +0.019 A 
ATOM      8  C   UNL     1      -0.736   5.329  -3.175  0.00  0.00    +0.002 A 
ATOM      9  C   UNL     1      -2.009   5.773  -2.836  0.00  0.00    +0.000 A 
ATOM     10  C   UNL     1      -2.717   6.502  -3.771  0.00  0.00    +0.000 A 
ATOM     11  C   UNL     1      -1.969   7.246  -4.670  0.00  0.00    +0.000 A 
ATOM     12  C   UNL     1      -0.612   7.032  -4.782  0.00  0.00    +0.002 A 
ENDBRANCH   4   7
BRANCH   3  13
ATOM     13  C   UNL     1       2.880   6.372  -3.687  0.00  0.00    +0.019 A 
ATOM     14  C   UNL     1       3.084   5.751  -2.462  0.00  0.00    +0.002 A 
ATOM     15  C   UNL     1       4.109   6.108  -1.613  0.00  0.00    +0.000 A 
ATOM     16  C   UNL     1       4.758   7.290  -1.855  0.00  0.00    +0.000 A 
ATOM     17  C   UNL     1       4.690   7.875  -3.090  0.00  0.00    +0.000 A 
ATOM     18  C   UNL     1       3.650   7.506  -3.913  0.00  0.00    +0.002 A 
ENDBRANCH   3  13
BRANCH   1  19
ATOM     19  N   UNL     1       2.987   5.394  -8.337  0.00  0.00    -0.294 N 
BRANCH  19  21
ATOM     20  C   UNL     1       5.358   5.040  -8.033  0.00  0.00    +0.021 C 
ATOM     21  C   UNL     1       4.195   4.923  -9.000  0.00  0.00    +0.074 C 
ATOM     22  C   UNL     1       4.503   5.873 -10.151  0.00  0.00    +0.021 C 
ENDBRANCH  19  21
BRANCH  19  23
ATOM     23  C   UNL     1       2.371   6.626  -8.784  0.00  0.00    +0.092 C 
BRANCH  23  24
ATOM     24  C   UNL     1       1.039   6.320  -9.422  0.00  0.00    +0.024 C 
BRANCH  24  25
ATOM     25  C   UNL     1       0.969   6.737 -10.865  0.00  0.00    +0.034 C 
BRANCH  25  26
ATOM     26  C   UNL     1       1.304   5.632 -11.825  0.00  0.00    +0.143 C 
BRANCH  26  27
ATOM     27  O   UNL     1       2.028   6.049 -12.926  0.00  0.00    -0.344 OA
BRANCH  27  28
ATOM     28  C   UNL     1       2.534   5.010 -13.687  0.00  0.00    +0.230 C 
BRANCH  28  29
ATOM     29  C   UNL     1       3.892   5.329 -14.229  0.00  0.00    +0.292 C 
ATOM     30  N   UNL     1       4.993   4.858 -13.440  0.00  0.00    -0.061 NA
ATOM     31  O   UNL     1       4.024   6.502 -14.693  0.00  0.00    -0.269 OA
BRANCH  30  32
ATOM     32  S   UNL     1       6.542   5.616 -13.612  0.00  0.00    +0.078 S 
ATOM     33  O   UNL     1       6.865   5.845 -15.067  0.00  0.00    -0.153 OA
ATOM     34  O   UNL     1       7.558   4.656 -13.049  0.00  0.00    -0.153 OA
ATOM     35  C   UNL     1       6.585   7.178 -12.778  0.00  0.00    +0.202 C 
ENDBRANCH  30  32
ENDBRANCH  28  29
ENDBRANCH  27  28
ENDBRANCH  26  27
ENDBRANCH  25  26
ENDBRANCH  24  25
ENDBRANCH  23  24
ENDBRANCH  19  23
ENDBRANCH   1  19
TORSDOF 12
ENDMDL
MODEL 8
REMARK VINA RESULT:      -8.2      5.172      8.984
REMARK  Name = 
REMARK  12 active torsions:
REMARK  status: ('A' for Active; 'I' for Inactive)
REMARK    1  A    between atoms: C_2  and  N_4
REMARK    2  A    between atoms: N_4  and  C_5
REMARK    3  A    between atoms: N_4  and  C_18
REMARK    4  A    between atoms: C_5  and  C_6
REMARK    5  A    between atoms: C_6  and  C_7
REMARK    6  A    between atoms: C_7  and  C_8
REMARK    7  A    between atoms: C_8  and  O_9
REMARK    8  A    between atoms: O_9  and  C_10
REMARK    9  A    between atoms: C_10  and  C_11
REMARK   10  A    between atoms: N_13  and  S_14
REMARK   11  A    between atoms: C_21  and  C_22
REMARK   12  A    between atoms: C_28  and  C_29
REMARK                            x       y       z     vdW  Elec       q    Type
REMARK                         _______ _______ _______ _____ _____    ______ ____
ROOT
ATOM      1  C   UNL     1       2.973   5.154  -6.884  0.00  0.00    +0.151 A 
ATOM      2  N   UNL     1       3.374   5.492  -5.633  0.00  0.00    -0.228 NA
ATOM      3  C   UNL     1       2.479   5.658  -4.629  0.00  0.00    +0.100 A 
ATOM      4  C   UNL     1       1.146   5.310  -4.808  0.00  0.00    +0.099 A 
ATOM      5  N   UNL     1       0.900   4.517  -5.881  0.00  0.00    -0.239 NA
ATOM      6  C   UNL     1       1.734   4.530  -6.949  0.00  0.00    +0.133 A 
ENDROOT
BRANCH   4   7
ATOM      7  C   UNL     1       0.082   6.095  -4.167  0.00  0.00    +0.019 A 
ATOM      8  C   UNL     1      -0.733   5.396  -3.284  0.00  0.00    +0.002 A 
ATOM      9  C   UNL     1      -2.025   5.822  -3.001  0.00  0.00    +0.000 A 
ATOM     10  C   UNL     1      -2.692   6.565  -3.957  0.00  0.00    +0.000 A 
ATOM     11  C   UNL     1      -1.906   7.334  -4.801  0.00  0.00    +0.000 A 
ATOM     12  C   UNL     1      -0.543   7.132  -4.848  0.00  0.00    +0.002 A 
ENDBRANCH   4   7
BRANCH   3  13
ATOM     13  C   UNL     1       2.858   6.233  -3.352  0.00  0.00    +0.019 A 
ATOM     14  C   UNL     1       3.149   5.423  -2.262  0.00  0.00    +0.002 A 
ATOM     15  C   UNL     1       4.109   5.753  -1.330  0.00  0.00    +0.000 A 
ATOM     16  C   UNL     1       4.576   7.041  -1.321  0.00  0.00    +0.000 A 
ATOM     17  C   UNL     1       4.425   7.838  -2.424  0.00  0.00    +0.000 A 
ATOM     18  C   UNL     1       3.452   7.488  -3.333  0.00  0.00    +0.002 A 
ENDBRANCH   3  13
BRANCH   1  19
ATOM     19  N   UNL     1       3.523   5.799  -8.038  0.00  0.00    -0.294 N 
BRANCH  19  21
ATOM     20  C   UNL     1       2.182   7.783  -7.711  0.00  0.00    +0.021 C 
ATOM     21  C   UNL     1       2.754   6.821  -8.735  0.00  0.00    +0.074 C 
ATOM     22  C   UNL     1       1.558   6.145  -9.395  0.00  0.00    +0.021 C 
ENDBRANCH  19  21
BRANCH  19  23
ATOM     23  C   UNL     1       4.647   5.180  -8.711  0.00  0.00    +0.092 C 
BRANCH  23  24
ATOM     24  C   UNL     1       5.201   6.132  -9.742  0.00  0.00    +0.024 C 
BRANCH  24  25
ATOM     25  C   UNL     1       6.500   5.662 -10.336  0.00  0.00    +0.034 C 
BRANCH  25  26
ATOM     26  C   UNL     1       6.630   5.959 -11.803  0.00  0.00    +0.143 C 
BRANCH  26  27
ATOM     27  O   UNL     1       5.493   6.507 -12.365  0.00  0.00    -0.344 OA
BRANCH  27  28
ATOM     28  C   UNL     1       5.142   5.939 -13.578  0.00  0.00    +0.230 C 
BRANCH  28  29
ATOM     29  C   UNL     1       3.709   5.509 -13.594  0.00  0.00    +0.292 C 
ATOM     30  N   UNL     1       2.913   6.068 -14.648  0.00  0.00    -0.061 NA
ATOM     31  O   UNL     1       3.147   5.465 -12.459  0.00  0.00    -0.269 OA
BRANCH  30  32
ATOM     32  S   UNL     1       1.191   6.130 -14.466  0.00  0.00    +0.078 S 
ATOM     33  O   UNL     1       0.661   4.811 -13.964  0.00  0.00    -0.153 OA
ATOM     34  O   UNL     1       0.619   6.376 -15.838  0.00  0.00    -0.153 OA
ATOM     35  C   UNL     1       0.714   7.396 -13.322  0.00  0.00    +0.202 C 
ENDBRANCH  30  32
ENDBRANCH  28  29
ENDBRANCH  27  28
ENDBRANCH  26  27
ENDBRANCH  25  26
ENDBRANCH  24  25
ENDBRANCH  23  24
ENDBRANCH  19  23
ENDBRANCH   1  19
TORSDOF 12
ENDMDL
MODEL 9
REMARK VINA RESULT:      -8.1      5.501      9.369
REMARK  Name = 
REMARK  12 active torsions:
REMARK  status: ('A' for Active; 'I' for Inactive)
REMARK    1  A    between atoms: C_2  and  N_4
REMARK    2  A    between atoms: N_4  and  C_5
REMARK    3  A    between atoms: N_4  and  C_18
REMARK    4  A    between atoms: C_5  and  C_6
REMARK    5  A    between atoms: C_6  and  C_7
REMARK    6  A    between atoms: C_7  and  C_8
REMARK    7  A    between atoms: C_8  and  O_9
REMARK    8  A    between atoms: O_9  and  C_10
REMARK    9  A    between atoms: C_10  and  C_11
REMARK   10  A    between atoms: N_13  and  S_14
REMARK   11  A    between atoms: C_21  and  C_22
REMARK   12  A    between atoms: C_28  and  C_29
REMARK                            x       y       z     vdW  Elec       q    Type
REMARK                         _______ _______ _______ _____ _____    ______ ____
ROOT
ATOM      1  C   UNL     1       2.096   6.615  -8.576  0.00  0.00    +0.151 A 
ATOM      2  N   UNL     1       0.953   6.618  -7.846  0.00  0.00    -0.228 NA
ATOM      3  C   UNL     1       0.982   6.684  -6.494  0.00  0.00    +0.100 A 
ATOM      4  C   UNL     1       2.175   6.933  -5.826  0.00  0.00    +0.099 A 
ATOM      5  N   UNL     1       3.175   7.420  -6.602  0.00  0.00    -0.239 NA
ATOM      6  C   UNL     1       3.198   7.163  -7.932  0.00  0.00    +0.133 A 
ENDROOT
BRANCH   4   7
ATOM      7  C   UNL     1       2.442   6.304  -4.525  0.00  0.00    +0.019 A 
ATOM      8  C   UNL     1       2.741   7.176  -3.485  0.00  0.00    +0.002 A 
ATOM      9  C   UNL     1       3.480   6.761  -2.383  0.00  0.00    +0.000 A 
ATOM     10  C   UNL     1       4.368   5.715  -2.549  0.00  0.00    +0.000 A 
ATOM     11  C   UNL     1       4.053   4.787  -3.530  0.00  0.00    +0.000 A 
ATOM     12  C   UNL     1       3.066   5.066  -4.452  0.00  0.00    +0.002 A 
ENDBRANCH   4   7
BRANCH   3  13
ATOM     13  C   UNL     1      -0.205   6.464  -5.690  0.00  0.00    +0.019 A 
ATOM     14  C   UNL     1      -0.725   7.474  -4.891  0.00  0.00    +0.002 A 
ATOM     15  C   UNL     1      -2.078   7.627  -4.678  0.00  0.00    +0.000 A 
ATOM     16  C   UNL     1      -2.902   6.589  -5.025  0.00  0.00    +0.000 A 
ATOM     17  C   UNL     1      -2.477   5.637  -5.911  0.00  0.00    +0.000 A 
ATOM     18  C   UNL     1      -1.119   5.500  -6.097  0.00  0.00    +0.002 A 
ENDBRANCH   3  13
BRANCH   1  19
ATOM     19  N   UNL     1       2.272   5.716  -9.677  0.00  0.00    -0.294 N 
BRANCH  19  21
ATOM     20  C   UNL     1       2.455   3.772  -8.253  0.00  0.00    +0.021 C 
ATOM     21  C   UNL     1       2.998   4.467  -9.487  0.00  0.00    +0.074 C 
ATOM     22  C   UNL     1       4.450   4.807  -9.177  0.00  0.00    +0.021 C 
ENDBRANCH  19  21
BRANCH  19  23
ATOM     23  C   UNL     1       2.065   6.214 -11.021  0.00  0.00    +0.092 C 
BRANCH  23  24
ATOM     24  C   UNL     1       0.972   5.417 -11.689  0.00  0.00    +0.024 C 
BRANCH  24  25
ATOM     25  C   UNL     1       1.258   5.127 -13.136  0.00  0.00    +0.034 C 
BRANCH  25  26
ATOM     26  C   UNL     1       1.948   6.255 -13.849  0.00  0.00    +0.143 C 
BRANCH  26  27
ATOM     27  O   UNL     1       3.056   5.861 -14.576  0.00  0.00    -0.344 OA
BRANCH  27  28
ATOM     28  C   UNL     1       3.832   4.910 -13.937  0.00  0.00    +0.230 C 
BRANCH  28  29
ATOM     29  C   UNL     1       5.229   5.396 -13.709  0.00  0.00    +0.292 C 
ATOM     30  N   UNL     1       5.709   5.273 -12.363  0.00  0.00    -0.061 NA
ATOM     31  O   UNL     1       5.521   6.485 -14.288  0.00  0.00    -0.269 OA
BRANCH  30  32
ATOM     32  S   UNL     1       7.019   6.277 -11.837  0.00  0.00    +0.078 S 
ATOM     33  O   UNL     1       8.086   6.361 -12.900  0.00  0.00    -0.153 OA
ATOM     34  O   UNL     1       7.614   5.612 -10.623  0.00  0.00    -0.153 OA
ATOM     35  C   UNL     1       6.460   7.920 -11.476  0.00  0.00    +0.202 C 
ENDBRANCH  30  32
ENDBRANCH  28  29
ENDBRANCH  27  28
ENDBRANCH  26  27
ENDBRANCH  25  26
ENDBRANCH  24  25
ENDBRANCH  23  24
ENDBRANCH  19  23
ENDBRANCH   1  19
TORSDOF 12
ENDMDL
