MODEL 1
REMARK VINA RESULT:     -10.1      0.000      0.000
REMARK  Name = 
REMARK  5 active torsions:
REMARK  status: ('A' for Active; 'I' for Inactive)
REMARK    1  A    between atoms: C_5  and  C_6
REMARK    2  A    between atoms: C_8  and  C_9
REMARK    3  A    between atoms: C_18  and  C_19
REMARK    4  A    between atoms: C_19  and  C_20
REMARK    5  A    between atoms: C_23  and  C_24
REMARK                            x       y       z     vdW  Elec       q    Type
REMARK                         _______ _______ _______ _____ _____    ______ ____
ROOT
ATOM      1  C   UNL     1      -2.620   5.799  -6.480  0.00  0.00    +0.031 C 
ATOM      2  C   UNL     1      -2.232   6.125  -5.809  0.00  0.00    -0.025 A 
ATOM      3  C   UNL     1      -0.861   6.025  -6.018  0.00  0.00    -0.021 A 
ATOM      4  C   UNL     1       0.011   6.585  -5.085  0.00  0.00    -0.006 A 
ATOM      5  C   UNL     1      -0.403   6.390  -3.760  0.00  0.00    +0.007 A 
ATOM      6  C   UNL     1      -1.663   6.875  -3.555  0.00  0.00    -0.002 A 
ATOM      7  C   UNL     1      -2.589   6.643  -4.568  0.00  0.00    -0.005 A 
ENDROOT
BRANCH   5   8
ATOM      8  C   UNL     1       0.736   6.717  -2.674  0.00  0.00    +0.170 C 
ATOM      9  C   UNL     1       0.728   5.098  -2.109  0.00  0.00    +0.216 C 
ATOM     10  O   UNL     1      -0.290   5.441  -1.066  0.00  0.00    -0.217 OA
ATOM     11  C   UNL     1       1.999   5.398  -1.008  0.00  0.00    +0.218 C 
ATOM     12  O   UNL     1       2.062   3.941  -0.656  0.00  0.00    -0.217 OA
ATOM     13  C   UNL     1       3.192   5.184  -2.214  0.00  0.00    +0.214 C 
ATOM     14  O   UNL     1       4.277   5.598  -1.266  0.00  0.00    -0.218 OA
ATOM     15  C   UNL     1       2.989   6.820  -2.698  0.00  0.00    +0.181 C 
ATOM     16  O   UNL     1       1.878   6.388  -3.619  0.00  0.00    -0.346 OA
BRANCH  15  17
ATOM     17  C   UNL     1       4.110   6.641  -3.887  0.00  0.00    +0.214 C 
ATOM     18  O   UNL     1       3.511   7.334  -4.939  0.00  0.00    -0.218 OA
ENDBRANCH  15  17
ENDBRANCH   5   8
BRANCH   3  19
ATOM     19  C   UNL     1      -0.401   4.961  -7.005  0.00  0.00    +0.059 C 
BRANCH  19  20
ATOM     20  C   UNL     1       0.890   5.518  -7.514  0.00  0.00    +0.012 A 
ATOM     21  S   UNL     1       2.229   4.472  -7.709  0.00  0.00    -0.091 S 
ATOM     22  C   UNL     1       2.972   5.239  -9.053  0.00  0.00    +0.029 A 
ATOM     23  C   UNL     1       2.273   6.408  -9.113  0.00  0.00    +0.007 A 
ATOM     24  C   UNL     1       1.018   6.330  -8.599  0.00  0.00    +0.003 A 
BRANCH  22  25
ATOM     25  C   UNL     1       4.336   5.067  -9.572  0.00  0.00    +0.006 A 
ATOM     26  C   UNL     1       5.388   5.202  -8.689  0.00  0.00    +0.003 A 
ATOM     27  C   UNL     1       6.642   5.629  -9.077  0.00  0.00    +0.030 A 
ATOM     28  C   UNL     1       6.715   6.302 -10.290  0.00  0.00    +0.140 A 
ATOM     29  F   UNL     1       7.898   6.798 -10.679  0.00  0.00    -0.204 F 
ATOM     30  C   UNL     1       5.703   6.201 -11.223  0.00  0.00    +0.030 A 
ATOM     31  C   UNL     1       4.569   5.483 -10.873  0.00  0.00    +0.003 A 
ENDBRANCH  22  25
ENDBRANCH  19  20
ENDBRANCH   3  19
TORSDOF 5
ENDMDL
MODEL 2
REMARK VINA RESULT:      -9.6      4.736      9.306
REMARK  Name = 
REMARK  5 active torsions:
REMARK  status: ('A' for Active; 'I' for Inactive)
REMARK    1  A    between atoms: C_5  and  C_6
REMARK    2  A    between atoms: C_8  and  C_9
REMARK    3  A    between atoms: C_18  and  C_19
REMARK    4  A    between atoms: C_19  and  C_20
REMARK    5  A    between atoms: C_23  and  C_24
REMARK                            x       y       z     vdW  Elec       q    Type
REMARK                         _______ _______ _______ _____ _____    ______ ____
ROOT
ATOM      1  C   UNL     1       7.534   5.709  -9.009  0.00  0.00    +0.031 C 
ATOM      2  C   UNL     1       7.103   6.036  -9.653  0.00  0.00    -0.025 A 
ATOM      3  C   UNL     1       5.748   5.942  -9.351  0.00  0.00    -0.021 A 
ATOM      4  C   UNL     1       4.818   6.505 -10.224  0.00  0.00    -0.006 A 
ATOM      5  C   UNL     1       5.140   6.308 -11.574  0.00  0.00    +0.007 A 
ATOM      6  C   UNL     1       6.385   6.787 -11.864  0.00  0.00    -0.002 A 
ATOM      7  C   UNL     1       7.377   6.552 -10.916  0.00  0.00    -0.005 A 
ENDROOT
BRANCH   5   8
ATOM      8  C   UNL     1       3.931   6.639 -12.579  0.00  0.00    +0.170 C 
ATOM      9  C   UNL     1       3.941   5.036 -13.192  0.00  0.00    +0.216 C 
ATOM     10  O   UNL     1       4.886   5.433 -14.282  0.00  0.00    -0.217 OA
ATOM     11  C   UNL     1       2.599   5.338 -14.206  0.00  0.00    +0.218 C 
ATOM     12  O   UNL     1       2.547   3.891 -14.597  0.00  0.00    -0.217 OA
ATOM     13  C   UNL     1       1.486   5.063 -12.938  0.00  0.00    +0.214 C 
ATOM     14  O   UNL     1       0.337   5.478 -13.808  0.00  0.00    -0.218 OA
ATOM     15  C   UNL     1       1.683   6.688 -12.419  0.00  0.00    +0.181 C 
ATOM     16  O   UNL     1       2.855   6.257 -11.579  0.00  0.00    -0.346 OA
BRANCH  15  17
ATOM     17  C   UNL     1       0.638   6.450 -11.172  0.00  0.00    +0.214 C 
ATOM     18  O   UNL     1      -0.118   7.622 -11.217  0.00  0.00    -0.218 OA
ENDBRANCH  15  17
ENDBRANCH   5   8
BRANCH   3  19
ATOM     19  C   UNL     1       5.353   4.880  -8.334  0.00  0.00    +0.059 C 
BRANCH  19  20
ATOM     20  C   UNL     1       4.100   5.441  -7.741  0.00  0.00    +0.012 A 
ATOM     21  S   UNL     1       2.671   4.502  -7.771  0.00  0.00    -0.091 S 
ATOM     22  C   UNL     1       1.957   5.057  -6.312  0.00  0.00    +0.029 A 
ATOM     23  C   UNL     1       2.752   6.125  -6.015  0.00  0.00    +0.007 A 
ATOM     24  C   UNL     1       4.010   6.036  -6.520  0.00  0.00    +0.003 A 
BRANCH  22  25
ATOM     25  C   UNL     1       0.568   4.911  -5.854  0.00  0.00    +0.006 A 
ATOM     26  C   UNL     1      -0.443   5.163  -6.758  0.00  0.00    +0.003 A 
ATOM     27  C   UNL     1      -1.690   5.618  -6.379  0.00  0.00    +0.030 A 
ATOM     28  C   UNL     1      -1.777   6.199  -5.121  0.00  0.00    +0.140 A 
ATOM     29  F   UNL     1      -2.950   6.720  -4.733  0.00  0.00    -0.204 F 
ATOM     30  C   UNL     1      -0.806   5.980  -4.165  0.00  0.00    +0.030 A 
ATOM     31  C   UNL     1       0.307   5.237  -4.532  0.00  0.00    +0.003 A 
ENDBRANCH  22  25
ENDBRANCH  19  20
ENDBRANCH   3  19
TORSDOF 5
ENDMDL
MODEL 3
REMARK VINA RESULT:      -8.8      2.755      4.938
REMARK  Name = 
REMARK  5 active torsions:
REMARK  status: ('A' for Active; 'I' for Inactive)
REMARK    1  A    between atoms: C_5  and  C_6
REMARK    2  A    between atoms: C_8  and  C_9
REMARK    3  A    between atoms: C_18  and  C_19
REMARK    4  A    between atoms: C_19  and  C_20
REMARK    5  A    between atoms: C_23  and  C_24
REMARK                            x       y       z     vdW  Elec       q    Type
REMARK                         _______ _______ _______ _____ _____    ______ ____
ROOT
ATOM      1  C   UNL     1       5.074   5.998  -3.669  0.00  0.00    +0.031 C 
ATOM      2  C   UNL     1       4.405   5.704  -3.252  0.00  0.00    -0.025 A 
ATOM      3  C   UNL     1       3.284   5.903  -4.051  0.00  0.00    -0.021 A 
ATOM      4  C   UNL     1       2.050   5.413  -3.623  0.00  0.00    -0.006 A 
ATOM      5  C   UNL     1       1.838   5.583  -2.248  0.00  0.00    +0.007 A 
ATOM      6  C   UNL     1       2.835   5.007  -1.515  0.00  0.00    -0.002 A 
ATOM      7  C   UNL     1       4.131   5.167  -1.999  0.00  0.00    -0.005 A 
ENDROOT
BRANCH   5   8
ATOM      8  C   UNL     1       0.313   5.345  -1.798  0.00  0.00    +0.170 C 
ATOM      9  C   UNL     1       0.206   6.932  -1.156  0.00  0.00    +0.216 C 
ATOM     10  O   UNL     1       0.625   6.441   0.193  0.00  0.00    -0.217 OA
ATOM     11  C   UNL     1      -1.441   6.736  -0.749  0.00  0.00    +0.218 C 
ATOM     12  O   UNL     1      -1.531   8.177  -0.342  0.00  0.00    -0.217 OA
ATOM     13  C   UNL     1      -1.955   7.123  -2.332  0.00  0.00    +0.214 C 
ATOM     14  O   UNL     1      -3.379   6.798  -1.988  0.00  0.00    -0.218 OA
ATOM     15  C   UNL     1      -1.697   5.493  -2.810  0.00  0.00    +0.181 C 
ATOM     16  O   UNL     1      -0.262   5.832  -3.116  0.00  0.00    -0.346 OA
BRANCH  15  17
ATOM     17  C   UNL     1      -2.159   5.838  -4.350  0.00  0.00    +0.214 C 
ATOM     18  O   UNL     1      -1.078   5.342  -5.080  0.00  0.00    -0.218 OA
ENDBRANCH  15  17
ENDBRANCH   5   8
BRANCH   3  19
ATOM     19  C   UNL     1       3.390   6.994  -5.108  0.00  0.00    +0.059 C 
BRANCH  19  20
ATOM     20  C   UNL     1       2.968   6.287  -6.355  0.00  0.00    +0.012 A 
ATOM     21  S   UNL     1       1.620   6.874  -7.230  0.00  0.00    -0.091 S 
ATOM     22  C   UNL     1       2.122   6.441  -8.814  0.00  0.00    +0.029 A 
ATOM     23  C   UNL     1       3.192   5.640  -8.545  0.00  0.00    +0.007 A 
ATOM     24  C   UNL     1       3.803   5.910  -7.362  0.00  0.00    +0.003 A 
BRANCH  22  25
ATOM     25  C   UNL     1       1.320   6.360 -10.043  0.00  0.00    +0.006 A 
ATOM     26  C   UNL     1       0.244   5.496 -10.060  0.00  0.00    +0.003 A 
ATOM     27  C   UNL     1      -0.218   4.898 -11.215  0.00  0.00    +0.030 A 
ATOM     28  C   UNL     1       0.665   4.866 -12.287  0.00  0.00    +0.140 A 
ATOM     29  F   UNL     1       0.289   4.235 -13.409  0.00  0.00    -0.204 F 
ATOM     30  C   UNL     1       1.755   5.711 -12.339  0.00  0.00    +0.030 A 
ATOM     31  C   UNL     1       1.994   6.527 -11.242  0.00  0.00    +0.003 A 
ENDBRANCH  22  25
ENDBRANCH  19  20
ENDBRANCH   3  19
TORSDOF 5
ENDMDL
MODEL 4
REMARK VINA RESULT:      -8.6      4.502      8.244
REMARK  Name = 
REMARK  5 active torsions:
REMARK  status: ('A' for Active; 'I' for Inactive)
REMARK    1  A    between atoms: C_5  and  C_6
REMARK    2  A    between atoms: C_8  and  C_9
REMARK    3  A    between atoms: C_18  and  C_19
REMARK    4  A    between atoms: C_19  and  C_20
REMARK    5  A    between atoms: C_23  and  C_24
REMARK                            x       y       z     vdW  Elec       q    Type
REMARK                         _______ _______ _______ _____ _____    ______ ____
ROOT
ATOM      1  C   UNL     1      -2.605   5.826  -6.563  0.00  0.00    +0.031 C 
ATOM      2  C   UNL     1      -1.820   5.564  -6.416  0.00  0.00    -0.025 A 
ATOM      3  C   UNL     1      -1.586   5.663  -5.049  0.00  0.00    -0.021 A 
ATOM      4  C   UNL     1      -0.378   5.198  -4.531  0.00  0.00    -0.006 A 
ATOM      5  C   UNL     1       0.722   5.502  -5.345  0.00  0.00    +0.007 A 
ATOM      6  C   UNL     1       0.554   5.021  -6.611  0.00  0.00    -0.002 A 
ATOM      7  C   UNL     1      -0.719   5.152  -7.160  0.00  0.00    -0.005 A 
ENDROOT
BRANCH   5   8
ATOM      8  C   UNL     1       2.140   5.285  -4.618  0.00  0.00    +0.170 C 
ATOM      9  C   UNL     1       2.671   6.848  -5.087  0.00  0.00    +0.216 C 
ATOM     10  O   UNL     1       3.285   6.293  -6.333  0.00  0.00    -0.217 OA
ATOM     11  C   UNL     1       4.149   6.678  -4.248  0.00  0.00    +0.218 C 
ATOM     12  O   UNL     1       4.506   8.103  -4.550  0.00  0.00    -0.217 OA
ATOM     13  C   UNL     1       3.444   7.140  -2.761  0.00  0.00    +0.214 C 
ATOM     14  O   UNL     1       4.714   6.838  -2.023  0.00  0.00    -0.218 OA
ATOM     15  C   UNL     1       2.914   5.525  -2.514  0.00  0.00    +0.181 C 
ATOM     16  O   UNL     1       1.661   5.839  -3.289  0.00  0.00    -0.346 OA
BRANCH  15  17
ATOM     17  C   UNL     1       2.200   5.942  -1.093  0.00  0.00    +0.214 C 
ATOM     18  O   UNL     1       1.634   4.729  -0.702  0.00  0.00    -0.218 OA
ENDBRANCH  15  17
ENDBRANCH   5   8
BRANCH   3  19
ATOM     19  C   UNL     1      -2.462   6.644  -4.281  0.00  0.00    +0.059 C 
BRANCH  19  20
ATOM     20  C   UNL     1      -1.937   6.532  -2.885  0.00  0.00    +0.012 A 
ATOM     21  S   UNL     1      -1.752   7.952  -1.949  0.00  0.00    -0.091 S 
ATOM     22  C   UNL     1      -2.072   7.292  -0.398  0.00  0.00    +0.029 A 
ATOM     23  C   UNL     1      -2.056   5.955  -0.668  0.00  0.00    +0.007 A 
ATOM     24  C   UNL     1      -2.378   5.646  -1.951  0.00  0.00    +0.003 A 
BRANCH  22  25
ATOM     25  C   UNL     1      -1.787   7.868   0.924  0.00  0.00    +0.006 A 
ATOM     26  C   UNL     1      -2.857   8.206   1.728  0.00  0.00    +0.003 A 
ATOM     27  C   UNL     1      -2.799   9.217   2.666  0.00  0.00    +0.030 A 
ATOM     28  C   UNL     1      -1.781  10.148   2.504  0.00  0.00    +0.140 A 
ATOM     29  F   UNL     1      -1.724  11.189   3.348  0.00  0.00    -0.204 F 
ATOM     30  C   UNL     1      -0.678   9.871   1.723  0.00  0.00    +0.030 A 
ATOM     31  C   UNL     1      -0.662   8.670   1.029  0.00  0.00    +0.003 A 
ENDBRANCH  22  25
ENDBRANCH  19  20
ENDBRANCH   3  19
TORSDOF 5
ENDMDL
MODEL 5
REMARK VINA RESULT:      -8.5      4.863      9.372
REMARK  Name = 
REMARK  5 active torsions:
REMARK  status: ('A' for Active; 'I' for Inactive)
REMARK    1  A    between atoms: C_5  and  C_6
REMARK    2  A    between atoms: C_8  and  C_9
REMARK    3  A    between atoms: C_18  and  C_19
REMARK    4  A    between atoms: C_19  and  C_20
REMARK    5  A    between atoms: C_23  and  C_24
REMARK                            x       y       z     vdW  Elec       q    Type
REMARK                         _______ _______ _______ _____ _____    ______ ____
ROOT
ATOM      1  C   UNL     1       5.413   5.047  -7.548  0.00  0.00    +0.031 C 
ATOM      2  C   UNL     1       5.305   5.415  -8.296  0.00  0.00    -0.025 A 
ATOM      3  C   UNL     1       3.938   5.487  -8.543  0.00  0.00    -0.021 A 
ATOM      4  C   UNL     1       3.488   6.145  -9.687  0.00  0.00    -0.006 A 
ATOM      5  C   UNL     1       4.282   5.893 -10.814  0.00  0.00    +0.007 A 
ATOM      6  C   UNL     1       5.588   6.218 -10.586  0.00  0.00    -0.002 A 
ATOM      7  C   UNL     1       6.102   5.878  -9.338  0.00  0.00    -0.005 A 
ENDROOT
BRANCH   5   8
ATOM      8  C   UNL     1       3.602   6.353 -12.196  0.00  0.00    +0.170 C 
ATOM      9  C   UNL     1       3.553   4.734 -12.764  0.00  0.00    +0.216 C 
ATOM     10  O   UNL     1       4.885   4.900 -13.425  0.00  0.00    -0.217 OA
ATOM     11  C   UNL     1       2.750   5.186 -14.202  0.00  0.00    +0.218 C 
ATOM     12  O   UNL     1       2.591   3.744 -14.587  0.00  0.00    -0.217 OA
ATOM     13  C   UNL     1       1.221   5.178 -13.438  0.00  0.00    +0.214 C 
ATOM     14  O   UNL     1       0.561   5.719 -14.671  0.00  0.00    -0.218 OA
ATOM     15  C   UNL     1       1.496   6.779 -12.880  0.00  0.00    +0.181 C 
ATOM     16  O   UNL     1       2.186   6.217 -11.666  0.00  0.00    -0.346 OA
BRANCH  15  17
ATOM     17  C   UNL     1       0.044   6.795 -12.110  0.00  0.00    +0.214 C 
ATOM     18  O   UNL     1       0.391   7.352 -10.878  0.00  0.00    -0.218 OA
ENDBRANCH  15  17
ENDBRANCH   5   8
BRANCH   3  19
ATOM     19  C   UNL     1       3.061   4.492  -7.793  0.00  0.00    +0.059 C 
BRANCH  19  20
ATOM     20  C   UNL     1       1.999   5.366  -7.206  0.00  0.00    +0.012 A 
ATOM     21  S   UNL     1       0.672   4.641  -6.408  0.00  0.00    -0.091 S 
ATOM     22  C   UNL     1       0.371   5.856  -5.233  0.00  0.00    +0.029 A 
ATOM     23  C   UNL     1       1.159   6.870  -5.691  0.00  0.00    +0.007 A 
ATOM     24  C   UNL     1       2.227   6.455  -6.422  0.00  0.00    +0.003 A 
BRANCH  22  25
ATOM     25  C   UNL     1      -0.822   6.053  -4.398  0.00  0.00    +0.006 A 
ATOM     26  C   UNL     1      -1.398   7.307  -4.374  0.00  0.00    +0.003 A 
ATOM     27  C   UNL     1      -2.098   7.789  -3.286  0.00  0.00    +0.030 A 
ATOM     28  C   UNL     1      -1.867   7.151  -2.074  0.00  0.00    +0.140 A 
ATOM     29  F   UNL     1      -2.470   7.625  -0.975  0.00  0.00    -0.204 F 
ATOM     30  C   UNL     1      -1.305   5.891  -2.027  0.00  0.00    +0.030 A 
ATOM     31  C   UNL     1      -0.891   5.322  -3.222  0.00  0.00    +0.003 A 
ENDBRANCH  22  25
ENDBRANCH  19  20
ENDBRANCH   3  19
TORSDOF 5
ENDMDL
MODEL 6
REMARK VINA RESULT:      -8.4      1.325      2.288
REMARK  Name = 
REMARK  5 active torsions:
REMARK  status: ('A' for Active; 'I' for Inactive)
REMARK    1  A    between atoms: C_5  and  C_6
REMARK    2  A    between atoms: C_8  and  C_9
REMARK    3  A    between atoms: C_18  and  C_19
REMARK    4  A    between atoms: C_19  and  C_20
REMARK    5  A    between atoms: C_23  and  C_24
REMARK                            x       y       z     vdW  Elec       q    Type
REMARK                         _______ _______ _______ _____ _____    ______ ____
ROOT
ATOM      1  C   UNL     1      -2.269   5.985  -5.976  0.00  0.00    +0.031 C 
ATOM      2  C   UNL     1      -1.734   5.979  -5.327  0.00  0.00    -0.025 A 
ATOM      3  C   UNL     1      -0.446   6.104  -5.836  0.00  0.00    -0.021 A 
ATOM      4  C   UNL     1       0.626   6.214  -4.951  0.00  0.00    -0.006 A 
ATOM      5  C   UNL     1       0.507   5.373  -3.836  0.00  0.00    +0.007 A 
ATOM      6  C   UNL     1      -0.662   5.594  -3.166  0.00  0.00    -0.002 A 
ATOM      7  C   UNL     1      -1.794   5.804  -3.948  0.00  0.00    -0.005 A 
ENDROOT
BRANCH   5   8
ATOM      8  C   UNL     1       1.866   5.229  -2.990  0.00  0.00    +0.170 C 
ATOM      9  C   UNL     1       2.763   6.042  -4.206  0.00  0.00    +0.216 C 
ATOM     10  O   UNL     1       3.097   4.741  -4.864  0.00  0.00    -0.217 OA
ATOM     11  C   UNL     1       4.203   5.981  -3.288  0.00  0.00    +0.218 C 
ATOM     12  O   UNL     1       4.909   6.828  -4.305  0.00  0.00    -0.217 OA
ATOM     13  C   UNL     1       3.775   7.370  -2.388  0.00  0.00    +0.214 C 
ATOM     14  O   UNL     1       4.971   7.207  -1.498  0.00  0.00    -0.218 OA
ATOM     15  C   UNL     1       2.847   6.392  -1.325  0.00  0.00    +0.181 C 
ATOM     16  O   UNL     1       1.668   6.540  -2.250  0.00  0.00    -0.346 OA
BRANCH  15  17
ATOM     17  C   UNL     1       2.393   7.710  -0.455  0.00  0.00    +0.214 C 
ATOM     18  O   UNL     1       2.542   7.244   0.852  0.00  0.00    -0.218 OA
ENDBRANCH  15  17
ENDBRANCH   5   8
BRANCH   3  19
ATOM     19  C   UNL     1      -0.246   5.687  -7.287  0.00  0.00    +0.059 C 
BRANCH  19  20
ATOM     20  C   UNL     1       1.185   6.040  -7.538  0.00  0.00    +0.012 A 
ATOM     21  S   UNL     1       2.141   5.004  -8.506  0.00  0.00    -0.091 S 
ATOM     22  C   UNL     1       3.174   6.178  -9.213  0.00  0.00    +0.029 A 
ATOM     23  C   UNL     1       2.881   7.279  -8.463  0.00  0.00    +0.007 A 
ATOM     24  C   UNL     1       1.633   7.266  -7.926  0.00  0.00    +0.003 A 
BRANCH  22  25
ATOM     25  C   UNL     1       4.448   5.978  -9.917  0.00  0.00    +0.006 A 
ATOM     26  C   UNL     1       5.516   5.480  -9.199  0.00  0.00    +0.003 A 
ATOM     27  C   UNL     1       6.830   5.765  -9.514  0.00  0.00    +0.030 A 
ATOM     28  C   UNL     1       7.042   6.879 -10.316  0.00  0.00    +0.140 A 
ATOM     29  F   UNL     1       8.304   7.238 -10.594  0.00  0.00    -0.204 F 
ATOM     30  C   UNL     1       6.021   7.420 -11.070  0.00  0.00    +0.030 A 
ATOM     31  C   UNL     1       4.753   6.875 -10.929  0.00  0.00    +0.003 A 
ENDBRANCH  22  25
ENDBRANCH  19  20
ENDBRANCH   3  19
TORSDOF 5
ENDMDL
MODEL 7
REMARK VINA RESULT:      -8.0      2.029      3.182
REMARK  Name = 
REMARK  5 active torsions:
REMARK  status: ('A' for Active; 'I' for Inactive)
REMARK    1  A    between atoms: C_5  and  C_6
REMARK    2  A    between atoms: C_8  and  C_9
REMARK    3  A    between atoms: C_18  and  C_19
REMARK    4  A    between atoms: C_19  and  C_20
REMARK    5  A    between atoms: C_23  and  C_24
REMARK                            x       y       z     vdW  Elec       q    Type
REMARK                         _______ _______ _______ _____ _____    ______ ____
ROOT
ATOM      1  C   UNL     1      -2.805   6.469  -5.464  0.00  0.00    +0.031 C 
ATOM      2  C   UNL     1      -2.687   6.282  -4.653  0.00  0.00    -0.025 A 
ATOM      3  C   UNL     1      -1.762   7.183  -4.136  0.00  0.00    -0.021 A 
ATOM      4  C   UNL     1      -1.463   7.144  -2.775  0.00  0.00    -0.006 A 
ATOM      5  C   UNL     1      -1.367   5.839  -2.271  0.00  0.00    +0.007 A 
ATOM      6  C   UNL     1      -2.507   5.128  -2.507  0.00  0.00    -0.002 A 
ATOM      7  C   UNL     1      -3.099   5.302  -3.755  0.00  0.00    -0.005 A 
ENDROOT
BRANCH   5   8
ATOM      8  C   UNL     1      -0.696   5.761  -0.812  0.00  0.00    +0.170 C 
ATOM      9  C   UNL     1       0.880   5.708  -1.488  0.00  0.00    +0.216 C 
ATOM     10  O   UNL     1       0.852   4.212  -1.498  0.00  0.00    -0.217 OA
ATOM     11  C   UNL     1       1.621   5.714   0.051  0.00  0.00    +0.218 C 
ATOM     12  O   UNL     1       2.976   5.824  -0.582  0.00  0.00    -0.217 OA
ATOM     13  C   UNL     1       1.512   7.415   0.178  0.00  0.00    +0.214 C 
ATOM     14  O   UNL     1       2.025   7.379   1.587  0.00  0.00    -0.218 OA
ATOM     15  C   UNL     1      -0.098   7.265   0.758  0.00  0.00    +0.181 C 
ATOM     16  O   UNL     1      -0.589   7.268  -0.665  0.00  0.00    -0.346 OA
BRANCH  15  17
ATOM     17  C   UNL     1      -0.246   8.898   0.866  0.00  0.00    +0.214 C 
ATOM     18  O   UNL     1      -1.577   9.080   0.490  0.00  0.00    -0.218 OA
ENDBRANCH  15  17
ENDBRANCH   5   8
BRANCH   3  19
ATOM     19  C   UNL     1      -0.834   7.852  -5.141  0.00  0.00    +0.059 C 
BRANCH  19  20
ATOM     20  C   UNL     1       0.245   6.834  -5.323  0.00  0.00    +0.012 A 
ATOM     21  S   UNL     1       0.646   6.318  -6.903  0.00  0.00    -0.091 S 
ATOM     22  C   UNL     1       2.320   6.017  -6.669  0.00  0.00    +0.029 A 
ATOM     23  C   UNL     1       2.417   6.094  -5.311  0.00  0.00    +0.007 A 
ATOM     24  C   UNL     1       1.471   6.878  -4.732  0.00  0.00    +0.003 A 
BRANCH  22  25
ATOM     25  C   UNL     1       3.246   5.255  -7.519  0.00  0.00    +0.006 A 
ATOM     26  C   UNL     1       4.599   5.479  -7.368  0.00  0.00    +0.003 A 
ATOM     27  C   UNL     1       5.505   5.313  -8.396  0.00  0.00    +0.030 A 
ATOM     28  C   UNL     1       4.982   5.309  -9.682  0.00  0.00    +0.140 A 
ATOM     29  F   UNL     1       5.828   5.222 -10.719  0.00  0.00    -0.204 F 
ATOM     30  C   UNL     1       3.640   5.080  -9.905  0.00  0.00    +0.030 A 
ATOM     31  C   UNL     1       2.813   4.949  -8.799  0.00  0.00    +0.003 A 
ENDBRANCH  22  25
ENDBRANCH  19  20
ENDBRANCH   3  19
TORSDOF 5
ENDMDL
MODEL 8
REMARK VINA RESULT:      -7.7      1.867      2.830
REMARK  Name = 
REMARK  5 active torsions:
REMARK  status: ('A' for Active; 'I' for Inactive)
REMARK    1  A    between atoms: C_5  and  C_6
REMARK    2  A    between atoms: C_8  and  C_9
REMARK    3  A    between atoms: C_18  and  C_19
REMARK    4  A    between atoms: C_19  and  C_20
REMARK    5  A    between atoms: C_23  and  C_24
REMARK                            x       y       z     vdW  Elec       q    Type
REMARK                         _______ _______ _______ _____ _____    ______ ____
ROOT
ATOM      1  C   UNL     1      -2.370   5.709  -6.515  0.00  0.00    +0.031 C 
ATOM      2  C   UNL     1      -1.738   5.774  -5.964  0.00  0.00    -0.025 A 
ATOM      3  C   UNL     1      -0.544   5.689  -6.672  0.00  0.00    -0.021 A 
ATOM      4  C   UNL     1       0.662   5.864  -5.994  0.00  0.00    -0.006 A 
ATOM      5  C   UNL     1       0.676   5.254  -4.732  0.00  0.00    +0.007 A 
ATOM      6  C   UNL     1      -0.354   5.697  -3.952  0.00  0.00    -0.002 A 
ATOM      7  C   UNL     1      -1.583   5.860  -4.584  0.00  0.00    -0.005 A 
ENDROOT
BRANCH   5   8
ATOM      8  C   UNL     1       2.143   5.147  -4.085  0.00  0.00    +0.170 C 
ATOM      9  C   UNL     1       2.884   5.301  -5.625  0.00  0.00    +0.216 C 
ATOM     10  O   UNL     1       2.906   3.814  -5.791  0.00  0.00    -0.217 OA
ATOM     11  C   UNL     1       4.454   5.279  -4.954  0.00  0.00    +0.218 C 
ATOM     12  O   UNL     1       5.053   5.570  -6.298  0.00  0.00    -0.217 OA
ATOM     13  C   UNL     1       4.401   6.948  -4.587  0.00  0.00    +0.214 C 
ATOM     14  O   UNL     1       5.716   6.870  -3.870  0.00  0.00    -0.218 OA
ATOM     15  C   UNL     1       3.578   6.595  -3.121  0.00  0.00    +0.181 C 
ATOM     16  O   UNL     1       2.271   6.644  -3.867  0.00  0.00    -0.346 OA
BRANCH  15  17
ATOM     17  C   UNL     1       3.484   8.194  -2.751  0.00  0.00    +0.214 C 
ATOM     18  O   UNL     1       3.765   8.179  -1.385  0.00  0.00    -0.218 OA
ENDBRANCH  15  17
ENDBRANCH   5   8
BRANCH   3  19
ATOM     19  C   UNL     1      -0.608   4.998  -8.028  0.00  0.00    +0.059 C 
BRANCH  19  20
ATOM     20  C   UNL     1       0.264   5.863  -8.880  0.00  0.00    +0.012 A 
ATOM     21  S   UNL     1       1.917   5.461  -9.059  0.00  0.00    -0.091 S 
ATOM     22  C   UNL     1       2.159   6.034 -10.659  0.00  0.00    +0.029 A 
ATOM     23  C   UNL     1       1.007   6.732 -10.870  0.00  0.00    +0.007 A 
ATOM     24  C   UNL     1      -0.048   6.296 -10.133  0.00  0.00    +0.003 A 
BRANCH  22  25
ATOM     25  C   UNL     1       3.423   6.299 -11.360  0.00  0.00    +0.006 A 
ATOM     26  C   UNL     1       3.644   5.662 -12.564  0.00  0.00    +0.003 A 
ATOM     27  C   UNL     1       4.907   5.352 -13.027  0.00  0.00    +0.030 A 
ATOM     28  C   UNL     1       5.921   5.330 -12.078  0.00  0.00    +0.140 A 
ATOM     29  F   UNL     1       7.153   4.967 -12.464  0.00  0.00    -0.204 F 
ATOM     30  C   UNL     1       5.771   5.957 -10.858  0.00  0.00    +0.030 A 
ATOM     31  C   UNL     1       4.540   6.529 -10.572  0.00  0.00    +0.003 A 
ENDBRANCH  22  25
ENDBRANCH  19  20
ENDBRANCH   3  19
TORSDOF 5
ENDMDL
MODEL 9
REMARK VINA RESULT:      -7.7      4.031      7.658
REMARK  Name = 
REMARK  5 active torsions:
REMARK  status: ('A' for Active; 'I' for Inactive)
REMARK    1  A    between atoms: C_5  and  C_6
REMARK    2  A    between atoms: C_8  and  C_9
REMARK    3  A    between atoms: C_18  and  C_19
REMARK    4  A    between atoms: C_19  and  C_20
REMARK    5  A    between atoms: C_23  and  C_24
REMARK                            x       y       z     vdW  Elec       q    Type
REMARK                         _______ _______ _______ _____ _____    ______ ____
ROOT
ATOM      1  C   UNL     1       4.383   5.818  -6.249  0.00  0.00    +0.031 C 
ATOM      2  C   UNL     1       3.643   6.217  -6.213  0.00  0.00    -0.025 A 
ATOM      3  C   UNL     1       3.134   6.059  -4.929  0.00  0.00    -0.021 A 
ATOM      4  C   UNL     1       1.952   6.711  -4.582  0.00  0.00    -0.006 A 
ATOM      5  C   UNL     1       0.995   6.695  -5.606  0.00  0.00    +0.007 A 
ATOM      6  C   UNL     1       1.489   7.231  -6.760  0.00  0.00    -0.002 A 
ATOM      7  C   UNL     1       2.800   6.895  -7.087  0.00  0.00    -0.005 A 
ENDROOT
BRANCH   5   8
ATOM      8  C   UNL     1      -0.475   7.130  -5.120  0.00  0.00    +0.170 C 
ATOM      9  C   UNL     1      -1.110   5.582  -5.502  0.00  0.00    +0.216 C 
ATOM     10  O   UNL     1      -1.483   6.048  -6.874  0.00  0.00    -0.217 OA
ATOM     11  C   UNL     1      -2.659   5.991  -4.910  0.00  0.00    +0.218 C 
ATOM     12  O   UNL     1      -3.129   4.581  -5.117  0.00  0.00    -0.217 OA
ATOM     13  C   UNL     1      -2.217   5.635  -3.298  0.00  0.00    +0.214 C 
ATOM     14  O   UNL     1      -3.534   6.141  -2.787  0.00  0.00    -0.218 OA
ATOM     15  C   UNL     1      -1.548   7.209  -3.138  0.00  0.00    +0.181 C 
ATOM     16  O   UNL     1      -0.245   6.689  -3.686  0.00  0.00    -0.346 OA
BRANCH  15  17
ATOM     17  C   UNL     1      -1.084   6.891  -1.594  0.00  0.00    +0.214 C 
ATOM     18  O   UNL     1      -1.538   8.030  -0.928  0.00  0.00    -0.218 OA
ENDBRANCH  15  17
ENDBRANCH   5   8
BRANCH   3  19
ATOM     19  C   UNL     1       3.654   4.868  -4.135  0.00  0.00    +0.059 C 
BRANCH  19  20
ATOM     20  C   UNL     1       3.812   5.431  -2.759  0.00  0.00    +0.012 A 
ATOM     21  S   UNL     1       4.500   6.986  -2.570  0.00  0.00    -0.091 S 
ATOM     22  C   UNL     1       3.640   7.489  -1.172  0.00  0.00    +0.029 A 
ATOM     23  C   UNL     1       3.051   6.322  -0.787  0.00  0.00    +0.007 A 
ATOM     24  C   UNL     1       2.844   5.443  -1.802  0.00  0.00    +0.003 A 
BRANCH  22  25
ATOM     25  C   UNL     1       3.937   8.602  -0.260  0.00  0.00    +0.006 A 
ATOM     26  C   UNL     1       3.953   8.344   1.095  0.00  0.00    +0.003 A 
ATOM     27  C   UNL     1       3.649   9.300   2.043  0.00  0.00    +0.030 A 
ATOM     28  C   UNL     1       2.939  10.407   1.596  0.00  0.00    +0.140 A 
ATOM     29  F   UNL     1       2.559  11.331   2.490  0.00  0.00    -0.204 F 
ATOM     30  C   UNL     1       2.892  10.729   0.255  0.00  0.00    +0.030 A 
ATOM     31  C   UNL     1       3.497   9.860  -0.642  0.00  0.00    +0.003 A 
ENDBRANCH  22  25
ENDBRANCH  19  20
ENDBRANCH   3  19
TORSDOF 5
ENDMDL
