MODEL 1
REMARK VINA RESULT:      -5.7      0.000      0.000
REMARK  Name = 
REMARK  3 active torsions:
REMARK  status: ('A' for Active; 'I' for Inactive)
REMARK    1  A    between atoms: C_2  and  C_3
REMARK    2  A    between atoms: C_8  and  C_9
REMARK    3  A    between atoms: C_9  and  C_10
REMARK                            x       y       z     vdW  Elec       q    Type
REMARK                         _______ _______ _______ _____ _____    ______ ____
ROOT
ATOM      1  C   UNL     1       6.865   6.391 -10.425  0.00  0.00    +0.103 C 
ATOM      2  C   UNL     1       5.595   5.233 -10.271  0.00  0.00    +0.060 C 
ATOM      3  C   UNL     1       5.273   5.265 -11.871  0.00  0.00    +0.209 C 
ATOM      4  O   UNL     1       6.551   5.068 -12.368  0.00  0.00    -0.448 OA
ATOM      5  C   UNL     1       7.561   5.525 -11.594  0.00  0.00    +0.317 C 
ATOM      6  O   UNL     1       8.697   5.955 -11.915  0.00  0.00    -0.250 OA
ENDROOT
BRANCH   1   8
ATOM      7  C   UNL     1       6.588   8.593 -11.361  0.00  0.00    +0.001 C 
ATOM      8  C   UNL     1       6.069   7.348 -11.504  0.00  0.00    +0.011 C 
ENDBRANCH   1   8
BRANCH   2   9
ATOM      9  C   UNL     1       4.471   6.374  -9.933  0.00  0.00    +0.050 C 
BRANCH   9  10
ATOM     10  C   UNL     1       3.392   5.589  -9.254  0.00  0.00    +0.058 A 
ATOM     11  N   UNL     1       2.535   6.139  -8.359  0.00  0.00    -0.310 N 
ATOM     12  C   UNL     1       2.436   7.536  -7.994  0.00  0.00    +0.132 C 
ATOM     13  C   UNL     1       1.758   5.134  -7.912  0.00  0.00    +0.178 A 
ATOM     14  N   UNL     1       2.436   4.002  -8.091  0.00  0.00    -0.223 NA
ATOM     15  C   UNL     1       3.504   4.254  -8.881  0.00  0.00    +0.113 A 
ENDBRANCH   9  10
ENDBRANCH   2   9
TORSDOF 3
ENDMDL
MODEL 2
REMARK VINA RESULT:      -5.7      5.286      6.912
REMARK  Name = 
REMARK  3 active torsions:
REMARK  status: ('A' for Active; 'I' for Inactive)
REMARK    1  A    between atoms: C_2  and  C_3
REMARK    2  A    between atoms: C_8  and  C_9
REMARK    3  A    between atoms: C_9  and  C_10
REMARK                            x       y       z     vdW  Elec       q    Type
REMARK                         _______ _______ _______ _____ _____    ______ ____
ROOT
ATOM      1  C   UNL     1       2.587   6.453  -5.256  0.00  0.00    +0.103 C 
ATOM      2  C   UNL     1       1.489   5.506  -4.320  0.00  0.00    +0.060 C 
ATOM      3  C   UNL     1       1.112   4.553  -5.591  0.00  0.00    +0.209 C 
ATOM      4  O   UNL     1       2.388   4.213  -6.011  0.00  0.00    -0.448 OA
ATOM      5  C   UNL     1       3.353   5.128  -5.764  0.00  0.00    +0.317 C 
ATOM      6  O   UNL     1       4.410   5.380  -6.394  0.00  0.00    -0.250 OA
ENDROOT
BRANCH   1   8
ATOM      7  C   UNL     1       2.126   7.507  -7.372  0.00  0.00    +0.001 C 
ATOM      8  C   UNL     1       1.634   6.507  -6.599  0.00  0.00    +0.011 C 
ENDBRANCH   1   8
BRANCH   2   9
ATOM      9  C   UNL     1       0.234   6.520  -4.596  0.00  0.00    +0.050 C 
BRANCH   9  10
ATOM     10  C   UNL     1      -0.923   5.793  -3.985  0.00  0.00    +0.058 A 
ATOM     11  N   UNL     1      -2.209   6.020  -4.350  0.00  0.00    -0.310 N 
ATOM     12  C   UNL     1      -2.672   6.879  -5.418  0.00  0.00    +0.132 C 
ATOM     13  C   UNL     1      -2.970   5.246  -3.553  0.00  0.00    +0.178 A 
ATOM     14  N   UNL     1      -2.266   5.004  -2.450  0.00  0.00    -0.223 NA
ATOM     15  C   UNL     1      -0.985   5.386  -2.657  0.00  0.00    +0.113 A 
ENDBRANCH   9  10
ENDBRANCH   2   9
TORSDOF 3
ENDMDL
MODEL 3
REMARK VINA RESULT:      -5.6      1.722      2.470
REMARK  Name = 
REMARK  3 active torsions:
REMARK  status: ('A' for Active; 'I' for Inactive)
REMARK    1  A    between atoms: C_2  and  C_3
REMARK    2  A    between atoms: C_8  and  C_9
REMARK    3  A    between atoms: C_9  and  C_10
REMARK                            x       y       z     vdW  Elec       q    Type
REMARK                         _______ _______ _______ _____ _____    ______ ____
ROOT
ATOM      1  C   UNL     1       6.456   5.489 -11.437  0.00  0.00    +0.103 C 
ATOM      2  C   UNL     1       4.942   6.304 -11.591  0.00  0.00    +0.060 C 
ATOM      3  C   UNL     1       5.564   7.714 -11.051  0.00  0.00    +0.209 C 
ATOM      4  O   UNL     1       6.672   7.810 -11.877  0.00  0.00    -0.448 OA
ATOM      5  C   UNL     1       7.201   6.636 -12.291  0.00  0.00    +0.317 C 
ATOM      6  O   UNL     1       8.386   6.341 -12.585  0.00  0.00    -0.250 OA
ENDROOT
BRANCH   1   8
ATOM      7  C   UNL     1       7.782   5.375  -9.430  0.00  0.00    +0.001 C 
ATOM      8  C   UNL     1       6.861   6.190 -10.003  0.00  0.00    +0.011 C 
ENDBRANCH   1   8
BRANCH   2   9
ATOM      9  C   UNL     1       4.443   5.853 -10.099  0.00  0.00    +0.050 C 
BRANCH   9  10
ATOM     10  C   UNL     1       2.967   5.679 -10.279  0.00  0.00    +0.058 A 
ATOM     11  N   UNL     1       2.251   4.739  -9.616  0.00  0.00    -0.310 N 
ATOM     12  C   UNL     1       2.733   3.847  -8.583  0.00  0.00    +0.132 C 
ATOM     13  C   UNL     1       0.988   4.832 -10.073  0.00  0.00    +0.178 A 
ATOM     14  N   UNL     1       1.047   5.383 -11.284  0.00  0.00    -0.223 NA
ATOM     15  C   UNL     1       2.291   5.877 -11.478  0.00  0.00    +0.113 A 
ENDBRANCH   9  10
ENDBRANCH   2   9
TORSDOF 3
ENDMDL
MODEL 4
REMARK VINA RESULT:      -5.5      1.958      2.150
REMARK  Name = 
REMARK  3 active torsions:
REMARK  status: ('A' for Active; 'I' for Inactive)
REMARK    1  A    between atoms: C_2  and  C_3
REMARK    2  A    between atoms: C_8  and  C_9
REMARK    3  A    between atoms: C_9  and  C_10
REMARK                            x       y       z     vdW  Elec       q    Type
REMARK                         _______ _______ _______ _____ _____    ______ ____
ROOT
ATOM      1  C   UNL     1       6.268   6.195 -10.565  0.00  0.00    +0.103 C 
ATOM      2  C   UNL     1       4.933   5.166 -10.939  0.00  0.00    +0.060 C 
ATOM      3  C   UNL     1       5.167   5.325 -12.547  0.00  0.00    +0.209 C 
ATOM      4  O   UNL     1       6.519   5.028 -12.615  0.00  0.00    -0.448 OA
ATOM      5  C   UNL     1       7.245   5.333 -11.515  0.00  0.00    +0.317 C 
ATOM      6  O   UNL     1       8.452   5.662 -11.408  0.00  0.00    -0.250 OA
ENDROOT
BRANCH   1   8
ATOM      7  C   UNL     1       6.560   8.443 -11.378  0.00  0.00    +0.001 C 
ATOM      8  C   UNL     1       5.953   7.290 -11.755  0.00  0.00    +0.011 C 
ENDBRANCH   1   8
BRANCH   2   9
ATOM      9  C   UNL     1       3.852   6.394 -10.886  0.00  0.00    +0.050 C 
BRANCH   9  10
ATOM     10  C   UNL     1       2.541   5.680 -10.780  0.00  0.00    +0.058 A 
ATOM     11  N   UNL     1       1.547   5.830 -11.690  0.00  0.00    -0.310 N 
ATOM     12  C   UNL     1       1.604   6.581 -12.925  0.00  0.00    +0.132 C 
ATOM     13  C   UNL     1       0.510   5.098 -11.241  0.00  0.00    +0.178 A 
ATOM     14  N   UNL     1       0.657   4.972  -9.923  0.00  0.00    -0.223 NA
ATOM     15  C   UNL     1       1.901   5.381  -9.583  0.00  0.00    +0.113 A 
ENDBRANCH   9  10
ENDBRANCH   2   9
TORSDOF 3
ENDMDL
MODEL 5
REMARK VINA RESULT:      -5.5      3.293      5.281
REMARK  Name = 
REMARK  3 active torsions:
REMARK  status: ('A' for Active; 'I' for Inactive)
REMARK    1  A    between atoms: C_2  and  C_3
REMARK    2  A    between atoms: C_8  and  C_9
REMARK    3  A    between atoms: C_9  and  C_10
REMARK                            x       y       z     vdW  Elec       q    Type
REMARK                         _______ _______ _______ _____ _____    ______ ____
ROOT
ATOM      1  C   UNL     1       2.380   6.257 -10.070  0.00  0.00    +0.103 C 
ATOM      2  C   UNL     1       3.563   5.203 -10.754  0.00  0.00    +0.060 C 
ATOM      3  C   UNL     1       3.888   4.512  -9.311  0.00  0.00    +0.209 C 
ATOM      4  O   UNL     1       2.599   4.201  -8.908  0.00  0.00    -0.448 OA
ATOM      5  C   UNL     1       1.624   5.015  -9.373  0.00  0.00    +0.317 C 
ATOM      6  O   UNL     1       0.523   5.333  -8.860  0.00  0.00    -0.250 OA
ENDROOT
BRANCH   1   8
ATOM      7  C   UNL     1       2.612   7.629  -8.104  0.00  0.00    +0.001 C 
ATOM      8  C   UNL     1       3.244   6.592  -8.708  0.00  0.00    +0.011 C 
ENDBRANCH   1   8
BRANCH   2   9
ATOM      9  C   UNL     1       4.767   6.301 -10.598  0.00  0.00    +0.050 C 
BRANCH   9  10
ATOM     10  C   UNL     1       5.902   5.659 -11.332  0.00  0.00    +0.058 A 
ATOM     11  N   UNL     1       7.198   5.995 -11.120  0.00  0.00    -0.310 N 
ATOM     12  C   UNL     1       7.708   6.908 -10.120  0.00  0.00    +0.132 C 
ATOM     13  C   UNL     1       7.924   5.271 -11.993  0.00  0.00    +0.178 A 
ATOM     14  N   UNL     1       7.120   4.953 -13.005  0.00  0.00    -0.223 NA
ATOM     15  C   UNL     1       5.845   5.234 -12.654  0.00  0.00    +0.113 A 
ENDBRANCH   9  10
ENDBRANCH   2   9
TORSDOF 3
ENDMDL
MODEL 6
REMARK VINA RESULT:      -5.4      7.105      9.108
REMARK  Name = 
REMARK  3 active torsions:
REMARK  status: ('A' for Active; 'I' for Inactive)
REMARK    1  A    between atoms: C_2  and  C_3
REMARK    2  A    between atoms: C_8  and  C_9
REMARK    3  A    between atoms: C_9  and  C_10
REMARK                            x       y       z     vdW  Elec       q    Type
REMARK                         _______ _______ _______ _____ _____    ______ ____
ROOT
ATOM      1  C   UNL     1      -1.481   5.465  -4.300  0.00  0.00    +0.103 C 
ATOM      2  C   UNL     1      -0.408   6.722  -3.803  0.00  0.00    +0.060 C 
ATOM      3  C   UNL     1      -1.523   7.882  -4.079  0.00  0.00    +0.209 C 
ATOM      4  O   UNL     1      -2.592   7.347  -3.380  0.00  0.00    -0.448 OA
ATOM      5  C   UNL     1      -2.627   5.998  -3.298  0.00  0.00    +0.317 C 
ATOM      6  O   UNL     1      -3.607   5.217  -3.211  0.00  0.00    -0.250 OA
ENDROOT
BRANCH   1   8
ATOM      7  C   UNL     1      -2.555   5.361  -6.453  0.00  0.00    +0.001 C 
ATOM      8  C   UNL     1      -2.107   6.295  -5.578  0.00  0.00    +0.011 C 
ENDBRANCH   1   8
BRANCH   2   9
ATOM      9  C   UNL     1       0.250   6.876  -5.294  0.00  0.00    +0.050 C 
BRANCH   9  10
ATOM     10  C   UNL     1       1.674   6.473  -5.073  0.00  0.00    +0.058 A 
ATOM     11  N   UNL     1       2.155   5.254  -5.418  0.00  0.00    -0.310 N 
ATOM     12  C   UNL     1       1.448   4.208  -6.125  0.00  0.00    +0.132 C 
ATOM     13  C   UNL     1       3.440   5.226  -5.015  0.00  0.00    +0.178 A 
ATOM     14  N   UNL     1       3.564   6.115  -4.032  0.00  0.00    -0.223 NA
ATOM     15  C   UNL     1       2.452   6.883  -3.996  0.00  0.00    +0.113 A 
ENDBRANCH   9  10
ENDBRANCH   2   9
TORSDOF 3
ENDMDL
MODEL 7
REMARK VINA RESULT:      -5.4      5.828      8.389
REMARK  Name = 
REMARK  3 active torsions:
REMARK  status: ('A' for Active; 'I' for Inactive)
REMARK    1  A    between atoms: C_2  and  C_3
REMARK    2  A    between atoms: C_8  and  C_9
REMARK    3  A    between atoms: C_9  and  C_10
REMARK                            x       y       z     vdW  Elec       q    Type
REMARK                         _______ _______ _______ _____ _____    ______ ____
ROOT
ATOM      1  C   UNL     1      -2.040   6.200  -5.268  0.00  0.00    +0.103 C 
ATOM      2  C   UNL     1      -0.730   5.128  -5.605  0.00  0.00    +0.060 C 
ATOM      3  C   UNL     1       0.021   5.487  -4.201  0.00  0.00    +0.209 C 
ATOM      4  O   UNL     1      -1.032   5.297  -3.320  0.00  0.00    -0.448 OA
ATOM      5  C   UNL     1      -2.267   5.524  -3.821  0.00  0.00    +0.317 C 
ATOM      6  O   UNL     1      -3.312   5.923  -3.250  0.00  0.00    -0.250 OA
ENDROOT
BRANCH   1   8
ATOM      7  C   UNL     1      -1.898   8.490  -4.536  0.00  0.00    +0.001 C 
ATOM      8  C   UNL     1      -1.099   7.399  -4.643  0.00  0.00    +0.011 C 
ENDBRANCH   1   8
BRANCH   2   9
ATOM      9  C   UNL     1       0.103   6.262  -6.441  0.00  0.00    +0.050 C 
BRANCH   9  10
ATOM     10  C   UNL     1       0.703   5.476  -7.565  0.00  0.00    +0.058 A 
ATOM     11  N   UNL     1       2.004   5.098  -7.585  0.00  0.00    -0.310 N 
ATOM     12  C   UNL     1       2.979   5.278  -6.531  0.00  0.00    +0.132 C 
ATOM     13  C   UNL     1       2.199   4.474  -8.762  0.00  0.00    +0.178 A 
ATOM     14  N   UNL     1       1.268   4.920  -9.603  0.00  0.00    -0.223 NA
ATOM     15  C   UNL     1       0.338   5.605  -8.900  0.00  0.00    +0.113 A 
ENDBRANCH   9  10
ENDBRANCH   2   9
TORSDOF 3
ENDMDL
MODEL 8
REMARK VINA RESULT:      -5.4      2.186      2.485
REMARK  Name = 
REMARK  3 active torsions:
REMARK  status: ('A' for Active; 'I' for Inactive)
REMARK    1  A    between atoms: C_2  and  C_3
REMARK    2  A    between atoms: C_8  and  C_9
REMARK    3  A    between atoms: C_9  and  C_10
REMARK                            x       y       z     vdW  Elec       q    Type
REMARK                         _______ _______ _______ _____ _____    ______ ____
ROOT
ATOM      1  C   UNL     1       6.160   5.555 -11.529  0.00  0.00    +0.103 C 
ATOM      2  C   UNL     1       4.706   5.228 -12.401  0.00  0.00    +0.060 C 
ATOM      3  C   UNL     1       5.188   6.117 -13.682  0.00  0.00    +0.209 C 
ATOM      4  O   UNL     1       6.445   5.571 -13.883  0.00  0.00    -0.448 OA
ATOM      5  C   UNL     1       7.059   5.084 -12.781  0.00  0.00    +0.317 C 
ATOM      6  O   UNL     1       8.282   5.000 -12.506  0.00  0.00    -0.250 OA
ENDROOT
BRANCH   1   8
ATOM      7  C   UNL     1       6.996   7.755 -11.019  0.00  0.00    +0.001 C 
ATOM      8  C   UNL     1       6.246   7.141 -11.968  0.00  0.00    +0.011 C 
ENDBRANCH   1   8
BRANCH   2   9
ATOM      9  C   UNL     1       3.906   6.483 -11.720  0.00  0.00    +0.050 C 
BRANCH   9  10
ATOM     10  C   UNL     1       2.501   5.975 -11.632  0.00  0.00    +0.058 A 
ATOM     11  N   UNL     1       2.031   5.294 -10.559  0.00  0.00    -0.310 N 
ATOM     12  C   UNL     1       2.728   5.039  -9.316  0.00  0.00    +0.132 C 
ATOM     13  C   UNL     1       0.765   4.943 -10.857  0.00  0.00    +0.178 A 
ATOM     14  N   UNL     1       0.665   4.921 -12.184  0.00  0.00    -0.223 NA
ATOM     15  C   UNL     1       1.762   5.509 -12.714  0.00  0.00    +0.113 A 
ENDBRANCH   9  10
ENDBRANCH   2   9
TORSDOF 3
ENDMDL
MODEL 9
REMARK VINA RESULT:      -5.4      4.403      5.041
REMARK  Name = 
REMARK  3 active torsions:
REMARK  status: ('A' for Active; 'I' for Inactive)
REMARK    1  A    between atoms: C_2  and  C_3
REMARK    2  A    between atoms: C_8  and  C_9
REMARK    3  A    between atoms: C_9  and  C_10
REMARK                            x       y       z     vdW  Elec       q    Type
REMARK                         _______ _______ _______ _____ _____    ______ ____
ROOT
ATOM      1  C   UNL     1       1.271   6.443 -11.197  0.00  0.00    +0.103 C 
ATOM      2  C   UNL     1       1.358   5.075 -10.147  0.00  0.00    +0.060 C 
ATOM      3  C   UNL     1       0.063   4.366 -10.844  0.00  0.00    +0.209 C 
ATOM      4  O   UNL     1       0.442   4.447 -12.174  0.00  0.00    -0.448 OA
ATOM      5  C   UNL     1       1.242   5.489 -12.496  0.00  0.00    +0.317 C 
ATOM      6  O   UNL     1       1.350   6.123 -13.576  0.00  0.00    -0.250 OA
ENDROOT
BRANCH   1   8
ATOM      7  C   UNL     1      -0.676   7.779 -11.672  0.00  0.00    +0.001 C 
ATOM      8  C   UNL     1      -0.371   6.562 -11.155  0.00  0.00    +0.011 C 
ENDBRANCH   1   8
BRANCH   2   9
ATOM      9  C   UNL     1       0.452   5.791  -8.987  0.00  0.00    +0.050 C 
BRANCH   9  10
ATOM     10  C   UNL     1       0.960   5.159  -7.729  0.00  0.00    +0.058 A 
ATOM     11  N   UNL     1       0.211   5.055  -6.605  0.00  0.00    -0.310 N 
ATOM     12  C   UNL     1      -1.182   5.415  -6.451  0.00  0.00    +0.132 C 
ATOM     13  C   UNL     1       1.007   4.501  -5.670  0.00  0.00    +0.178 A 
ATOM     14  N   UNL     1       2.265   4.760  -6.020  0.00  0.00    -0.223 NA
ATOM     15  C   UNL     1       2.277   5.231  -7.288  0.00  0.00    +0.113 A 
ENDBRANCH   9  10
ENDBRANCH   2   9
TORSDOF 3
ENDMDL
