MODEL 1
REMARK VINA RESULT:      -7.5      0.000      0.000
REMARK  Name = 
REMARK  2 active torsions:
REMARK  status: ('A' for Active; 'I' for Inactive)
REMARK    1  A    between atoms: C_3  and  C_4
REMARK    2  A    between atoms: C_11  and  S_12
REMARK                            x       y       z     vdW  Elec       q    Type
REMARK                         _______ _______ _______ _____ _____    ______ ____
ROOT
ATOM      1  C   UNL     1       0.706   4.989  -7.695  0.00  0.00    +0.117 C 
ATOM      2  N   UNL     1       1.322   5.197  -8.059  0.00  0.00    -0.134 NA
ATOM      3  S   UNL     1       1.883   6.089  -9.374  0.00  0.00    +0.066 S 
ATOM      4  O   UNL     1       1.816   7.559  -9.009  0.00  0.00    -0.153 OA
ATOM      5  O   UNL     1       1.142   5.844 -10.649  0.00  0.00    -0.153 OA
ATOM      6  C   UNL     1       3.573   5.752  -9.638  0.00  0.00    +0.138 A 
ATOM      7  C   UNL     1       4.334   5.592  -8.484  0.00  0.00    +0.086 A 
ATOM      8  C   UNL     1       5.686   5.664  -8.541  0.00  0.00    +0.030 A 
ATOM      9  C   UNL     1       6.318   5.689  -9.783  0.00  0.00    +0.078 A 
ATOM     10  C   UNL     1       5.537   5.727 -10.924  0.00  0.00    +0.137 A 
ATOM     11 CL   UNL     1       8.004   5.245  -9.878  0.00  0.00    -0.081 Cl
ATOM     12  N   UNL     1       3.519   5.413  -7.319  0.00  0.00    -0.219 NA
ATOM     13  C   UNL     1       4.185   6.029 -10.849  0.00  0.00    +0.042 A 
ATOM     14  C   UNL     1       2.493   4.198  -7.592  0.00  0.00    +0.187 C 
ENDROOT
BRANCH  10  15
ATOM     15  S   UNL     1       6.251   5.557 -12.512  0.00  0.00    +0.094 S 
ATOM     16  O   UNL     1       6.738   6.944 -12.870  0.00  0.00    -0.150 OA
ATOM     17  O   UNL     1       7.415   4.608 -12.473  0.00  0.00    -0.150 OA
ATOM     18  N   UNL     1       5.044   5.001 -13.593  0.00  0.00    +0.039 NA
ENDBRANCH  10  15
BRANCH  14  19
ATOM     19  C   UNL     1       1.929   4.247  -6.009  0.00  0.00    +0.135 C 
ATOM     20 CL   UNL     1       3.314   4.559  -5.005  0.00  0.00    -0.110 Cl
ENDBRANCH  14  19
TORSDOF 2
ENDMDL
MODEL 2
REMARK VINA RESULT:      -7.4      3.175      6.688
REMARK  Name = 
REMARK  2 active torsions:
REMARK  status: ('A' for Active; 'I' for Inactive)
REMARK    1  A    between atoms: C_3  and  C_4
REMARK    2  A    between atoms: C_11  and  S_12
REMARK                            x       y       z     vdW  Elec       q    Type
REMARK                         _______ _______ _______ _____ _____    ______ ____
ROOT
ATOM      1  C   UNL     1       2.817   5.863 -11.226  0.00  0.00    +0.117 C 
ATOM      2  N   UNL     1       2.405   5.705 -10.625  0.00  0.00    -0.134 NA
ATOM      3  S   UNL     1       0.838   5.362 -10.106  0.00  0.00    +0.066 S 
ATOM      4  O   UNL     1       0.522   3.928 -10.480  0.00  0.00    -0.153 OA
ATOM      5  O   UNL     1      -0.209   6.276 -10.655  0.00  0.00    -0.153 OA
ATOM      6  C   UNL     1       0.768   5.416  -8.365  0.00  0.00    +0.138 A 
ATOM      7  C   UNL     1       1.885   4.905  -7.710  0.00  0.00    +0.086 A 
ATOM      8  C   UNL     1       1.818   4.582  -6.396  0.00  0.00    +0.030 A 
ATOM      9  C   UNL     1       0.698   4.956  -5.655  0.00  0.00    +0.078 A 
ATOM     10  C   UNL     1      -0.354   5.573  -6.309  0.00  0.00    +0.137 A 
ATOM     11 CL   UNL     1       0.825   5.033  -3.916  0.00  0.00    -0.081 Cl
ATOM     12  N   UNL     1       3.001   4.738  -8.593  0.00  0.00    -0.219 NA
ATOM     13  C   UNL     1      -0.434   5.559  -7.694  0.00  0.00    +0.042 A 
ATOM     14  C   UNL     1       3.275   6.140  -9.344  0.00  0.00    +0.187 C 
ENDROOT
BRANCH  10  15
ATOM     15  S   UNL     1      -1.699   6.248  -5.417  0.00  0.00    +0.094 S 
ATOM     16  O   UNL     1      -2.817   6.368  -6.429  0.00  0.00    -0.150 OA
ATOM     17  O   UNL     1      -2.119   5.325  -4.308  0.00  0.00    -0.150 OA
ATOM     18  N   UNL     1      -1.227   7.774  -4.798  0.00  0.00    +0.039 NA
ENDBRANCH  10  15
BRANCH  14  19
ATOM     19  C   UNL     1       4.670   5.541 -10.066  0.00  0.00    +0.135 C 
ATOM     20 CL   UNL     1       5.843   5.364  -8.795  0.00  0.00    -0.110 Cl
ENDBRANCH  14  19
TORSDOF 2
ENDMDL
MODEL 3
REMARK VINA RESULT:      -7.4      2.314      5.974
REMARK  Name = 
REMARK  2 active torsions:
REMARK  status: ('A' for Active; 'I' for Inactive)
REMARK    1  A    between atoms: C_3  and  C_4
REMARK    2  A    between atoms: C_11  and  S_12
REMARK                            x       y       z     vdW  Elec       q    Type
REMARK                         _______ _______ _______ _____ _____    ______ ____
ROOT
ATOM      1  C   UNL     1       6.304   6.145 -14.516  0.00  0.00    +0.117 C 
ATOM      2  N   UNL     1       5.895   6.021 -13.905  0.00  0.00    -0.134 NA
ATOM      3  S   UNL     1       4.357   5.592 -13.367  0.00  0.00    +0.066 S 
ATOM      4  O   UNL     1       4.188   4.099 -13.567  0.00  0.00    -0.153 OA
ATOM      5  O   UNL     1       3.241   6.327 -14.034  0.00  0.00    -0.153 OA
ATOM      6  C   UNL     1       4.243   5.846 -11.646  0.00  0.00    +0.138 A 
ATOM      7  C   UNL     1       5.387   5.529 -10.921  0.00  0.00    +0.086 A 
ATOM      8  C   UNL     1       5.321   5.360  -9.578  0.00  0.00    +0.030 A 
ATOM      9  C   UNL     1       4.154   5.709  -8.901  0.00  0.00    +0.078 A 
ATOM     10  C   UNL     1       3.064   6.138  -9.637  0.00  0.00    +0.137 A 
ATOM     11 CL   UNL     1       4.234   6.006  -7.182  0.00  0.00    -0.081 Cl
ATOM     12  N   UNL     1       6.534   5.366 -11.764  0.00  0.00    -0.219 NA
ATOM     13  C   UNL     1       3.017   5.951 -11.011  0.00  0.00    +0.042 A 
ATOM     14  C   UNL     1       6.691   6.688 -12.677  0.00  0.00    +0.187 C 
ENDROOT
BRANCH  10  15
ATOM     15  S   UNL     1       1.640   6.782  -8.848  0.00  0.00    +0.094 S 
ATOM     16  O   UNL     1       0.694   7.129  -9.977  0.00  0.00    -0.150 OA
ATOM     17  O   UNL     1       1.009   5.746  -7.962  0.00  0.00    -0.150 OA
ATOM     18  N   UNL     1       2.098   8.164  -7.946  0.00  0.00    +0.039 NA
ENDBRANCH  10  15
BRANCH  14  19
ATOM     19  C   UNL     1       8.153   6.146 -13.305  0.00  0.00    +0.135 C 
ATOM     20 CL   UNL     1       9.160   5.760 -11.942  0.00  0.00    -0.110 Cl
ENDBRANCH  14  19
TORSDOF 2
ENDMDL
MODEL 4
REMARK VINA RESULT:      -7.4      5.885      8.758
REMARK  Name = 
REMARK  2 active torsions:
REMARK  status: ('A' for Active; 'I' for Inactive)
REMARK    1  A    between atoms: C_3  and  C_4
REMARK    2  A    between atoms: C_11  and  S_12
REMARK                            x       y       z     vdW  Elec       q    Type
REMARK                         _______ _______ _______ _____ _____    ______ ____
ROOT
ATOM      1  C   UNL     1       4.756   5.173  -4.500  0.00  0.00    +0.117 C 
ATOM      2  N   UNL     1       4.073   5.428  -4.343  0.00  0.00    -0.134 NA
ATOM      3  S   UNL     1       3.075   5.952  -3.090  0.00  0.00    +0.066 S 
ATOM      4  O   UNL     1       3.494   7.360  -2.713  0.00  0.00    -0.153 OA
ATOM      5  O   UNL     1       3.087   5.074  -1.881  0.00  0.00    -0.153 OA
ATOM      6  C   UNL     1       1.435   6.092  -3.661  0.00  0.00    +0.138 A 
ATOM      7  C   UNL     1       1.297   6.577  -4.959  0.00  0.00    +0.086 A 
ATOM      8  C   UNL     1       0.100   7.044  -5.391  0.00  0.00    +0.030 A 
ATOM      9  C   UNL     1      -1.036   6.845  -4.607  0.00  0.00    +0.078 A 
ATOM     10  C   UNL     1      -0.890   6.250  -3.367  0.00  0.00    +0.137 A 
ATOM     11 CL   UNL     1      -2.607   6.946  -5.361  0.00  0.00    -0.081 Cl
ATOM     12  N   UNL     1       2.535   6.556  -5.679  0.00  0.00    -0.219 NA
ATOM     13  C   UNL     1       0.363   6.121  -2.785  0.00  0.00    +0.042 A 
ATOM     14  C   UNL     1       3.146   5.063  -5.606  0.00  0.00    +0.187 C 
ENDROOT
BRANCH  10  15
ATOM     15  S   UNL     1      -2.285   5.788  -2.418  0.00  0.00    +0.094 S 
ATOM     16  O   UNL     1      -3.173   7.012  -2.409  0.00  0.00    -0.150 OA
ATOM     17  O   UNL     1      -3.012   4.642  -3.064  0.00  0.00    -0.150 OA
ATOM     18  N   UNL     1      -1.755   5.366  -0.844  0.00  0.00    +0.039 NA
ENDBRANCH  10  15
BRANCH  14  19
ATOM     19  C   UNL     1       4.392   5.464  -6.660  0.00  0.00    +0.135 C 
ATOM     20 CL   UNL     1       3.655   6.288  -8.002  0.00  0.00    -0.110 Cl
ENDBRANCH  14  19
TORSDOF 2
ENDMDL
MODEL 5
REMARK VINA RESULT:      -7.3      4.438      8.013
REMARK  Name = 
REMARK  2 active torsions:
REMARK  status: ('A' for Active; 'I' for Inactive)
REMARK    1  A    between atoms: C_3  and  C_4
REMARK    2  A    between atoms: C_11  and  S_12
REMARK                            x       y       z     vdW  Elec       q    Type
REMARK                         _______ _______ _______ _____ _____    ______ ____
ROOT
ATOM      1  C   UNL     1       4.283   5.042  -7.268  0.00  0.00    +0.117 C 
ATOM      2  N   UNL     1       3.645   5.250  -6.942  0.00  0.00    -0.134 NA
ATOM      3  S   UNL     1       3.003   6.147  -5.669  0.00  0.00    +0.066 S 
ATOM      4  O   UNL     1       3.084   7.615  -6.040  0.00  0.00    -0.153 OA
ATOM      5  O   UNL     1       3.668   5.916  -4.351  0.00  0.00    -0.153 OA
ATOM      6  C   UNL     1       1.302   5.803  -5.504  0.00  0.00    +0.138 A 
ATOM      7  C   UNL     1       0.612   5.630  -6.699  0.00  0.00    +0.086 A 
ATOM      8  C   UNL     1      -0.741   5.695  -6.723  0.00  0.00    +0.030 A 
ATOM      9  C   UNL     1      -1.447   5.725  -5.521  0.00  0.00    +0.078 A 
ATOM     10  C   UNL     1      -0.735   5.775  -4.336  0.00  0.00    +0.137 A 
ATOM     11 CL   UNL     1      -3.133   5.272  -5.522  0.00  0.00    -0.081 Cl
ATOM     12  N   UNL     1       1.495   5.448  -7.813  0.00  0.00    -0.219 NA
ATOM     13  C   UNL     1       0.618   6.084  -4.333  0.00  0.00    +0.042 A 
ATOM     14  C   UNL     1       2.510   4.240  -7.470  0.00  0.00    +0.187 C 
ENDROOT
BRANCH  10  15
ATOM     15  S   UNL     1      -1.541   5.613  -2.791  0.00  0.00    +0.094 S 
ATOM     16  O   UNL     1      -2.093   6.989  -2.494  0.00  0.00    -0.150 OA
ATOM     17  O   UNL     1      -2.670   4.625  -2.882  0.00  0.00    -0.150 OA
ATOM     18  N   UNL     1      -0.386   5.118  -1.627  0.00  0.00    +0.039 NA
ENDBRANCH  10  15
BRANCH  14  19
ATOM     19  C   UNL     1       3.166   4.281  -9.017  0.00  0.00    +0.135 C 
ATOM     20 CL   UNL     1       1.942   4.955 -10.052  0.00  0.00    -0.110 Cl
ENDBRANCH  14  19
TORSDOF 2
ENDMDL
MODEL 6
REMARK VINA RESULT:      -7.2      3.250      4.019
REMARK  Name = 
REMARK  2 active torsions:
REMARK  status: ('A' for Active; 'I' for Inactive)
REMARK    1  A    between atoms: C_3  and  C_4
REMARK    2  A    between atoms: C_11  and  S_12
REMARK                            x       y       z     vdW  Elec       q    Type
REMARK                         _______ _______ _______ _____ _____    ______ ____
ROOT
ATOM      1  C   UNL     1       0.725   5.398  -4.503  0.00  0.00    +0.117 C 
ATOM      2  N   UNL     1       1.034   5.323  -5.178  0.00  0.00    -0.134 NA
ATOM      3  S   UNL     1       2.321   4.623  -6.010  0.00  0.00    +0.066 S 
ATOM      4  O   UNL     1       2.025   3.145  -6.178  0.00  0.00    -0.153 OA
ATOM      5  O   UNL     1       3.653   4.806  -5.357  0.00  0.00    -0.153 OA
ATOM      6  C   UNL     1       2.400   5.268  -7.627  0.00  0.00    +0.138 A 
ATOM      7  C   UNL     1       1.169   5.493  -8.237  0.00  0.00    +0.086 A 
ATOM      8  C   UNL     1       1.093   5.664  -9.579  0.00  0.00    +0.030 A 
ATOM      9  C   UNL     1       2.265   5.825 -10.317  0.00  0.00    +0.078 A 
ATOM     10  C   UNL     1       3.479   5.716  -9.663  0.00  0.00    +0.137 A 
ATOM     11 CL   UNL     1       2.172   6.564 -11.895  0.00  0.00    -0.081 Cl
ATOM     12  N   UNL     1       0.086   5.457  -7.300  0.00  0.00    -0.219 NA
ATOM     13  C   UNL     1       3.553   5.175  -8.387  0.00  0.00    +0.042 A 
ATOM     14  C   UNL     1       0.411   6.485  -6.099  0.00  0.00    +0.187 C 
ENDROOT
BRANCH  10  15
ATOM     15  S   UNL     1       4.980   6.101 -10.477  0.00  0.00    +0.094 S 
ATOM     16  O   UNL     1       4.960   5.271 -11.742  0.00  0.00    -0.150 OA
ATOM     17  O   UNL     1       5.033   7.560 -10.831  0.00  0.00    -0.150 OA
ATOM     18  N   UNL     1       6.280   5.673  -9.448  0.00  0.00    +0.039 NA
ENDBRANCH  10  15
BRANCH  14  19
ATOM     19  C   UNL     1      -1.103   6.245  -5.411  0.00  0.00    +0.135 C 
ATOM     20 CL   UNL     1      -2.128   5.639  -6.679  0.00  0.00    -0.110 Cl
ENDBRANCH  14  19
TORSDOF 2
ENDMDL
MODEL 7
REMARK VINA RESULT:      -7.1      7.922      8.812
REMARK  Name = 
REMARK  2 active torsions:
REMARK  status: ('A' for Active; 'I' for Inactive)
REMARK    1  A    between atoms: C_3  and  C_4
REMARK    2  A    between atoms: C_11  and  S_12
REMARK                            x       y       z     vdW  Elec       q    Type
REMARK                         _______ _______ _______ _____ _____    ______ ____
ROOT
ATOM      1  C   UNL     1      -3.046   6.807  -4.073  0.00  0.00    +0.117 C 
ATOM      2  N   UNL     1      -2.406   6.606  -3.748  0.00  0.00    -0.134 NA
ATOM      3  S   UNL     1      -1.693   6.248  -2.264  0.00  0.00    +0.066 S 
ATOM      4  O   UNL     1      -2.129   4.854  -1.856  0.00  0.00    -0.153 OA
ATOM      5  O   UNL     1      -2.008   7.221  -1.174  0.00  0.00    -0.153 OA
ATOM      6  C   UNL     1       0.038   6.157  -2.447  0.00  0.00    +0.138 A 
ATOM      7  C   UNL     1       0.481   5.576  -3.632  0.00  0.00    +0.086 A 
ATOM      8  C   UNL     1       1.760   5.146  -3.747  0.00  0.00    +0.030 A 
ATOM      9  C   UNL     1       2.685   5.476  -2.757  0.00  0.00    +0.078 A 
ATOM     10  C   UNL     1       2.243   6.162  -1.639  0.00  0.00    +0.137 A 
ATOM     11 CL   UNL     1       4.387   5.406  -3.136  0.00  0.00    -0.081 Cl
ATOM     12  N   UNL     1      -0.567   5.464  -4.604  0.00  0.00    -0.219 NA
ATOM     13  C   UNL     1       0.888   6.264  -1.359  0.00  0.00    +0.042 A 
ATOM     14  C   UNL     1      -1.236   6.919  -4.806  0.00  0.00    +0.187 C 
ENDROOT
BRANCH  10  15
ATOM     15  S   UNL     1       3.373   6.783  -0.456  0.00  0.00    +0.094 S 
ATOM     16  O   UNL     1       2.523   7.145   0.741  0.00  0.00    -0.150 OA
ATOM     17  O   UNL     1       4.369   5.727  -0.067  0.00  0.00    -0.150 OA
ATOM     18  N   UNL     1       4.159   8.150  -1.124  0.00  0.00    +0.039 NA
ENDBRANCH  10  15
BRANCH  14  19
ATOM     19  C   UNL     1      -2.200   6.360  -6.065  0.00  0.00    +0.135 C 
ATOM     20 CL   UNL     1      -1.251   5.184  -6.924  0.00  0.00    -0.110 Cl
ENDBRANCH  14  19
TORSDOF 2
ENDMDL
MODEL 8
REMARK VINA RESULT:      -6.9      3.948      5.689
REMARK  Name = 
REMARK  2 active torsions:
REMARK  status: ('A' for Active; 'I' for Inactive)
REMARK    1  A    between atoms: C_3  and  C_4
REMARK    2  A    between atoms: C_11  and  S_12
REMARK                            x       y       z     vdW  Elec       q    Type
REMARK                         _______ _______ _______ _____ _____    ______ ____
ROOT
ATOM      1  C   UNL     1      -2.554   5.467  -2.910  0.00  0.00    +0.117 C 
ATOM      2  N   UNL     1      -2.080   5.628  -3.461  0.00  0.00    -0.134 NA
ATOM      3  S   UNL     1      -1.984   6.028  -5.095  0.00  0.00    +0.066 S 
ATOM      4  O   UNL     1      -2.376   7.484  -5.248  0.00  0.00    -0.153 OA
ATOM      5  O   UNL     1      -2.824   5.176  -5.991  0.00  0.00    -0.153 OA
ATOM      6  C   UNL     1      -0.328   5.933  -5.630  0.00  0.00    +0.138 A 
ATOM      7  C   UNL     1       0.619   6.376  -4.712  0.00  0.00    +0.086 A 
ATOM      8  C   UNL     1       1.879   6.669  -5.116  0.00  0.00    +0.030 A 
ATOM      9  C   UNL     1       2.281   6.327  -6.406  0.00  0.00    +0.078 A 
ATOM     10  C   UNL     1       1.349   5.774  -7.266  0.00  0.00    +0.137 A 
ATOM     11 CL   UNL     1       3.988   6.200  -6.750  0.00  0.00    -0.081 Cl
ATOM     12  N   UNL     1       0.072   6.516  -3.395  0.00  0.00    -0.219 NA
ATOM     13  C   UNL     1      -0.006   5.827  -6.973  0.00  0.00    +0.042 A 
ATOM     14  C   UNL     1      -0.630   5.122  -2.981  0.00  0.00    +0.187 C 
ENDROOT
BRANCH  10  15
ATOM     15  S   UNL     1       1.826   5.138  -8.825  0.00  0.00    +0.094 S 
ATOM     16  O   UNL     1       0.528   4.931  -9.574  0.00  0.00    -0.150 OA
ATOM     17  O   UNL     1       2.683   6.126  -9.563  0.00  0.00    -0.150 OA
ATOM     18  N   UNL     1       2.665   3.665  -8.575  0.00  0.00    +0.039 NA
ENDBRANCH  10  15
BRANCH  14  19
ATOM     19  C   UNL     1      -0.933   5.676  -1.423  0.00  0.00    +0.135 C 
ATOM     20 CL   UNL     1       0.620   5.939  -0.685  0.00  0.00    -0.110 Cl
ENDBRANCH  14  19
TORSDOF 2
ENDMDL
MODEL 9
REMARK VINA RESULT:      -6.8      4.717      8.133
REMARK  Name = 
REMARK  2 active torsions:
REMARK  status: ('A' for Active; 'I' for Inactive)
REMARK    1  A    between atoms: C_3  and  C_4
REMARK    2  A    between atoms: C_11  and  S_12
REMARK                            x       y       z     vdW  Elec       q    Type
REMARK                         _______ _______ _______ _____ _____    ______ ____
ROOT
ATOM      1  C   UNL     1       2.809   4.172  -8.275  0.00  0.00    +0.117 C 
ATOM      2  N   UNL     1       2.501   4.507  -7.685  0.00  0.00    -0.134 NA
ATOM      3  S   UNL     1       2.734   4.867  -6.055  0.00  0.00    +0.066 S 
ATOM      4  O   UNL     1       3.726   6.009  -5.962  0.00  0.00    -0.153 OA
ATOM      5  O   UNL     1       3.202   3.714  -5.228  0.00  0.00    -0.153 OA
ATOM      6  C   UNL     1       1.253   5.480  -5.369  0.00  0.00    +0.138 A 
ATOM      7  C   UNL     1       0.511   6.310  -6.203  0.00  0.00    +0.086 A 
ATOM      8  C   UNL     1      -0.458   7.106  -5.690  0.00  0.00    +0.030 A 
ATOM      9  C   UNL     1      -0.852   6.936  -4.363  0.00  0.00    +0.078 A 
ATOM     10  C   UNL     1      -0.175   6.015  -3.583  0.00  0.00    +0.137 A 
ATOM     11 CL   UNL     1      -2.408   7.547  -3.861  0.00  0.00    -0.081 Cl
ATOM     12  N   UNL     1       0.945   6.235  -7.567  0.00  0.00    -0.219 NA
ATOM     13  C   UNL     1       1.039   5.487  -4.001  0.00  0.00    +0.042 A 
ATOM     14  C   UNL     1       0.938   4.686  -8.022  0.00  0.00    +0.187 C 
ENDROOT
BRANCH  10  15
ATOM     15  S   UNL     1      -0.737   5.605  -1.978  0.00  0.00    +0.094 S 
ATOM     16  O   UNL     1       0.258   4.588  -1.465  0.00  0.00    -0.150 OA
ATOM     17  O   UNL     1      -0.729   6.814  -1.086  0.00  0.00    -0.150 OA
ATOM     18  N   UNL     1      -2.315   4.951  -2.107  0.00  0.00    +0.039 NA
ENDBRANCH  10  15
BRANCH  14  19
ATOM     19  C   UNL     1       1.309   5.096  -9.609  0.00  0.00    +0.135 C 
ATOM     20 CL   UNL     1       1.111   6.819  -9.730  0.00  0.00    -0.110 Cl
ENDBRANCH  14  19
TORSDOF 2
ENDMDL
