MODEL 1
REMARK VINA RESULT:      -9.8      0.000      0.000
REMARK  Name = 
REMARK  6 active torsions:
REMARK  status: ('A' for Active; 'I' for Inactive)
REMARK    1  A    between atoms: C_2  and  C_3
REMARK    2  A    between atoms: C_2  and  C_19
REMARK    3  A    between atoms: C_3  and  N_4
REMARK    4  A    between atoms: N_4  and  C_5
REMARK    5  A    between atoms: C_5  and  C_6
REMARK    6  A    between atoms: C_6  and  C_8
REMARK                            x       y       z     vdW  Elec       q    Type
REMARK                         _______ _______ _______ _____ _____    ______ ____
ROOT
ATOM      1  N   UNL     1       0.759   4.966  -9.112  0.00  0.00    -0.212 NA
ENDROOT
BRANCH   1   2
ATOM      2  C   UNL     1       1.994   5.220  -9.858  0.00  0.00    +0.125 C 
BRANCH   2   4
ATOM      3  O   UNL     1       2.874   3.538  -8.595  0.00  0.00    -0.218 OA
ATOM      4  C   UNL     1       3.033   5.059  -8.572  0.00  0.00    +0.209 C 
BRANCH   4   5
ATOM      5  C   UNL     1       4.437   4.962  -9.608  0.00  0.00    +0.198 C 
ATOM      6  O   UNL     1       4.498   6.497  -9.815  0.00  0.00    -0.477 OA
ATOM      7  C   UNL     1       5.674   6.794 -10.501  0.00  0.00    +0.135 A 
ATOM      8  C   UNL     1       6.761   5.992 -10.181  0.00  0.00    +0.014 A 
ATOM      9  C   UNL     1       7.646   5.588 -11.174  0.00  0.00    +0.028 A 
ATOM     10  C   UNL     1       7.668   6.373 -12.321  0.00  0.00    +0.140 A 
ATOM     11  C   UNL     1       6.944   7.559 -12.376  0.00  0.00    +0.033 A 
ATOM     12  F   UNL     1       8.759   6.149 -13.110  0.00  0.00    -0.204 F 
ATOM     13  C   UNL     1       6.792   5.410  -8.822  0.00  0.00    +0.033 C 
ATOM     14  C   UNL     1       5.776   7.581 -11.615  0.00  0.00    +0.039 A 
ATOM     15  C   UNL     1       5.436   5.038  -8.295  0.00  0.00    +0.051 C 
ENDBRANCH   4   5
ENDBRANCH   2   4
ENDBRANCH   1   2
BRANCH   1  16
ATOM     16  C   UNL     1       0.498   6.098  -8.218  0.00  0.00    +0.125 C 
BRANCH  16  17
ATOM     17  C   UNL     1       0.033   5.190  -6.909  0.00  0.00    +0.209 C 
ATOM     18  O   UNL     1      -1.392   5.740  -6.933  0.00  0.00    -0.218 OA
BRANCH  17  19
ATOM     19  C   UNL     1       0.627   6.399  -5.784  0.00  0.00    +0.198 C 
ATOM     20  O   UNL     1       2.029   5.742  -5.728  0.00  0.00    -0.477 OA
ATOM     21  C   UNL     1       2.822   6.446  -4.846  0.00  0.00    +0.135 A 
ATOM     22  C   UNL     1       2.259   6.560  -3.578  0.00  0.00    +0.014 A 
ATOM     23  C   UNL     1       3.131   6.858  -2.560  0.00  0.00    +0.028 A 
ATOM     24  C   UNL     1       4.378   7.384  -2.866  0.00  0.00    +0.140 A 
ATOM     25  C   UNL     1       4.742   7.724  -4.163  0.00  0.00    +0.033 A 
ATOM     26  F   UNL     1       5.209   7.526  -1.819  0.00  0.00    -0.204 F 
ATOM     27  C   UNL     1       1.036   5.819  -3.346  0.00  0.00    +0.033 C 
ATOM     28  C   UNL     1       4.036   7.047  -5.154  0.00  0.00    +0.039 A 
ATOM     29  C   UNL     1       0.095   5.624  -4.430  0.00  0.00    +0.051 C 
ENDBRANCH  17  19
ENDBRANCH  16  17
ENDBRANCH   1  16
TORSDOF 6
ENDMDL
MODEL 2
REMARK VINA RESULT:      -9.6      2.969      4.592
REMARK  Name = 
REMARK  6 active torsions:
REMARK  status: ('A' for Active; 'I' for Inactive)
REMARK    1  A    between atoms: C_2  and  C_3
REMARK    2  A    between atoms: C_2  and  C_19
REMARK    3  A    between atoms: C_3  and  N_4
REMARK    4  A    between atoms: N_4  and  C_5
REMARK    5  A    between atoms: C_5  and  C_6
REMARK    6  A    between atoms: C_6  and  C_8
REMARK                            x       y       z     vdW  Elec       q    Type
REMARK                         _______ _______ _______ _____ _____    ______ ____
ROOT
ATOM      1  N   UNL     1       4.691   5.341  -4.414  0.00  0.00    -0.212 NA
ENDROOT
BRANCH   1   2
ATOM      2  C   UNL     1       4.038   6.310  -5.297  0.00  0.00    +0.125 C 
BRANCH   2   4
ATOM      3  O   UNL     1       2.034   5.900  -6.301  0.00  0.00    -0.218 OA
ATOM      4  C   UNL     1       3.394   5.205  -6.357  0.00  0.00    +0.209 C 
BRANCH   4   5
ATOM      5  C   UNL     1       3.858   6.146  -7.755  0.00  0.00    +0.198 C 
ATOM      6  O   UNL     1       5.165   5.341  -7.972  0.00  0.00    -0.477 OA
ATOM      7  C   UNL     1       5.729   5.751  -9.178  0.00  0.00    +0.135 A 
ATOM      8  C   UNL     1       4.816   6.069 -10.176  0.00  0.00    +0.014 A 
ATOM      9  C   UNL     1       5.060   7.142 -11.027  0.00  0.00    +0.028 A 
ATOM     10  C   UNL     1       6.388   7.536 -11.138  0.00  0.00    +0.140 A 
ATOM     11  C   UNL     1       7.397   6.791 -10.538  0.00  0.00    +0.033 A 
ATOM     12  F   UNL     1       6.623   8.348 -12.210  0.00  0.00    -0.204 F 
ATOM     13  C   UNL     1       3.506   5.386 -10.134  0.00  0.00    +0.033 C 
ATOM     14  C   UNL     1       7.030   6.122  -9.371  0.00  0.00    +0.039 A 
ATOM     15  C   UNL     1       3.001   5.137  -8.742  0.00  0.00    +0.051 C 
ENDBRANCH   4   5
ENDBRANCH   2   4
ENDBRANCH   1   2
BRANCH   1  16
ATOM     16  C   UNL     1       3.667   4.628  -3.644  0.00  0.00    +0.125 C 
BRANCH  16  17
ATOM     17  C   UNL     1       3.300   5.886  -2.625  0.00  0.00    +0.209 C 
ATOM     18  O   UNL     1       3.979   5.220  -1.430  0.00  0.00    -0.218 OA
BRANCH  17  19
ATOM     19  C   UNL     1       1.716   5.216  -2.273  0.00  0.00    +0.198 C 
ATOM     20  O   UNL     1       1.010   6.260  -3.175  0.00  0.00    -0.477 OA
ATOM     21  C   UNL     1      -0.353   6.058  -3.115  0.00  0.00    +0.135 A 
ATOM     22  C   UNL     1      -0.851   6.084  -1.816  0.00  0.00    +0.014 A 
ATOM     23  C   UNL     1      -2.199   6.314  -1.696  0.00  0.00    +0.028 A 
ATOM     24  C   UNL     1      -3.020   6.132  -2.799  0.00  0.00    +0.140 A 
ATOM     25  C   UNL     1      -2.546   5.621  -4.000  0.00  0.00    +0.033 A 
ATOM     26  F   UNL     1      -4.301   6.501  -2.623  0.00  0.00    -0.204 F 
ATOM     27  C   UNL     1       0.084   6.454  -0.773  0.00  0.00    +0.033 C 
ATOM     28  C   UNL     1      -1.180   5.797  -4.201  0.00  0.00    +0.039 A 
ATOM     29  C   UNL     1       1.481   6.093  -0.897  0.00  0.00    +0.051 C 
ENDBRANCH  17  19
ENDBRANCH  16  17
ENDBRANCH   1  16
TORSDOF 6
ENDMDL
MODEL 3
REMARK VINA RESULT:      -9.5      3.375      8.853
REMARK  Name = 
REMARK  6 active torsions:
REMARK  status: ('A' for Active; 'I' for Inactive)
REMARK    1  A    between atoms: C_2  and  C_3
REMARK    2  A    between atoms: C_2  and  C_19
REMARK    3  A    between atoms: C_3  and  N_4
REMARK    4  A    between atoms: N_4  and  C_5
REMARK    5  A    between atoms: C_5  and  C_6
REMARK    6  A    between atoms: C_6  and  C_8
REMARK                            x       y       z     vdW  Elec       q    Type
REMARK                         _______ _______ _______ _____ _____    ______ ____
ROOT
ATOM      1  N   UNL     1       3.821   4.918  -6.533  0.00  0.00    -0.212 NA
ENDROOT
BRANCH   1   2
ATOM      2  C   UNL     1       2.660   5.468  -5.829  0.00  0.00    +0.125 C 
BRANCH   2   4
ATOM      3  O   UNL     1       1.770   3.655  -6.885  0.00  0.00    -0.218 OA
ATOM      4  C   UNL     1       1.546   5.161  -7.023  0.00  0.00    +0.209 C 
BRANCH   4   5
ATOM      5  C   UNL     1       0.218   5.102  -5.887  0.00  0.00    +0.198 C 
ATOM      6  O   UNL     1       0.079   6.646  -5.836  0.00  0.00    -0.477 OA
ATOM      7  C   UNL     1      -1.066   6.952  -5.105  0.00  0.00    +0.135 A 
ATOM      8  C   UNL     1      -2.122   6.064  -5.265  0.00  0.00    +0.014 A 
ATOM      9  C   UNL     1      -2.917   5.723  -4.176  0.00  0.00    +0.028 A 
ATOM     10  C   UNL     1      -2.912   6.624  -3.117  0.00  0.00    +0.140 A 
ATOM     11  C   UNL     1      -2.258   7.845  -3.235  0.00  0.00    +0.033 A 
ATOM     12  F   UNL     1      -3.936   6.429  -2.236  0.00  0.00    -0.204 F 
ATOM     13  C   UNL     1      -2.204   5.339  -6.550  0.00  0.00    +0.033 C 
ATOM     14  C   UNL     1      -1.145   7.848  -4.074  0.00  0.00    +0.039 A 
ATOM     15  C   UNL     1      -0.864   4.985  -7.128  0.00  0.00    +0.051 C 
ENDBRANCH   4   5
ENDBRANCH   2   4
ENDBRANCH   1   2
BRANCH   1  16
ATOM     16  C   UNL     1       4.391   5.954  -7.400  0.00  0.00    +0.125 C 
BRANCH  16  17
ATOM     17  C   UNL     1       4.688   4.960  -8.696  0.00  0.00    +0.209 C 
ATOM     18  O   UNL     1       6.146   5.401  -8.801  0.00  0.00    -0.218 OA
BRANCH  17  19
ATOM     19  C   UNL     1       4.099   6.164  -9.829  0.00  0.00    +0.198 C 
ATOM     20  O   UNL     1       2.747   5.425 -10.001  0.00  0.00    -0.477 OA
ATOM     21  C   UNL     1       1.975   6.105 -10.919  0.00  0.00    +0.135 A 
ATOM     22  C   UNL     1       2.616   6.290 -12.140  0.00  0.00    +0.014 A 
ATOM     23  C   UNL     1       1.801   6.564 -13.210  0.00  0.00    +0.028 A 
ATOM     24  C   UNL     1       0.505   7.005 -12.980  0.00  0.00    +0.140 A 
ATOM     25  C   UNL     1       0.032   7.285 -11.705  0.00  0.00    +0.033 A 
ATOM     26  F   UNL     1      -0.259   7.127 -14.080  0.00  0.00    -0.204 F 
ATOM     27  C   UNL     1       3.896   5.631 -12.304  0.00  0.00    +0.033 C 
ATOM     28  C   UNL     1       0.708   6.623 -10.683  0.00  0.00    +0.039 A 
ATOM     29  C   UNL     1       4.770   5.461 -11.162  0.00  0.00    +0.051 C 
ENDBRANCH  17  19
ENDBRANCH  16  17
ENDBRANCH   1  16
TORSDOF 6
ENDMDL
MODEL 4
REMARK VINA RESULT:      -9.5      2.707      8.452
REMARK  Name = 
REMARK  6 active torsions:
REMARK  status: ('A' for Active; 'I' for Inactive)
REMARK    1  A    between atoms: C_2  and  C_3
REMARK    2  A    between atoms: C_2  and  C_19
REMARK    3  A    between atoms: C_3  and  N_4
REMARK    4  A    between atoms: N_4  and  C_5
REMARK    5  A    between atoms: C_5  and  C_6
REMARK    6  A    between atoms: C_6  and  C_8
REMARK                            x       y       z     vdW  Elec       q    Type
REMARK                         _______ _______ _______ _____ _____    ______ ____
ROOT
ATOM      1  N   UNL     1       0.443   6.132 -11.107  0.00  0.00    -0.212 NA
ENDROOT
BRANCH   1   2
ATOM      2  C   UNL     1       1.036   6.847  -9.976  0.00  0.00    +0.125 C 
BRANCH   2   4
ATOM      3  O   UNL     1       3.012   6.228  -9.023  0.00  0.00    -0.218 OA
ATOM      4  C   UNL     1       1.675   5.514  -9.216  0.00  0.00    +0.209 C 
BRANCH   4   5
ATOM      5  C   UNL     1       1.126   6.042  -7.643  0.00  0.00    +0.198 C 
ATOM      6  O   UNL     1      -0.242   5.325  -7.782  0.00  0.00    -0.477 OA
ATOM      7  C   UNL     1      -0.901   5.411  -6.558  0.00  0.00    +0.135 A 
ATOM      8  C   UNL     1      -0.079   5.343  -5.441  0.00  0.00    +0.014 A 
ATOM      9  C   UNL     1      -0.345   6.137  -4.331  0.00  0.00    +0.028 A 
ATOM     10  C   UNL     1      -1.653   6.594  -4.213  0.00  0.00    +0.140 A 
ATOM     11  C   UNL     1      -2.636   6.147  -5.088  0.00  0.00    +0.033 A 
ATOM     12  F   UNL     1      -1.948   7.074  -2.970  0.00  0.00    -0.204 F 
ATOM     13  C   UNL     1       1.187   4.591  -5.580  0.00  0.00    +0.033 C 
ATOM     14  C   UNL     1      -2.192   5.820  -6.369  0.00  0.00    +0.039 A 
ATOM     15  C   UNL     1       1.816   4.718  -6.937  0.00  0.00    +0.051 C 
ENDBRANCH   4   5
ENDBRANCH   2   4
ENDBRANCH   1   2
BRANCH   1  16
ATOM     16  C   UNL     1       1.439   5.215 -11.671  0.00  0.00    +0.125 C 
BRANCH  16  17
ATOM     17  C   UNL     1       2.102   6.303 -12.735  0.00  0.00    +0.209 C 
ATOM     18  O   UNL     1       1.472   5.622 -13.948  0.00  0.00    -0.218 OA
BRANCH  17  19
ATOM     19  C   UNL     1       3.598   5.390 -12.827  0.00  0.00    +0.198 C 
ATOM     20  O   UNL     1       4.375   6.470 -12.033  0.00  0.00    -0.477 OA
ATOM     21  C   UNL     1       5.697   6.091 -11.932  0.00  0.00    +0.135 A 
ATOM     22  C   UNL     1       6.289   5.839 -13.166  0.00  0.00    +0.014 A 
ATOM     23  C   UNL     1       7.661   5.874 -13.192  0.00  0.00    +0.028 A 
ATOM     24  C   UNL     1       8.364   5.775 -12.000  0.00  0.00    +0.140 A 
ATOM     25  C   UNL     1       7.737   5.532 -10.785  0.00  0.00    +0.033 A 
ATOM     26  F   UNL     1       9.694   5.944 -12.108  0.00  0.00    -0.204 F 
ATOM     27  C   UNL     1       5.494   6.147 -14.338  0.00  0.00    +0.033 C 
ATOM     28  C   UNL     1       6.397   5.910 -10.745  0.00  0.00    +0.039 A 
ATOM     29  C   UNL     1       4.055   5.991 -14.294  0.00  0.00    +0.051 C 
ENDBRANCH  17  19
ENDBRANCH  16  17
ENDBRANCH   1  16
TORSDOF 6
ENDMDL
MODEL 5
REMARK VINA RESULT:      -9.4      2.633      8.837
REMARK  Name = 
REMARK  6 active torsions:
REMARK  status: ('A' for Active; 'I' for Inactive)
REMARK    1  A    between atoms: C_2  and  C_3
REMARK    2  A    between atoms: C_2  and  C_19
REMARK    3  A    between atoms: C_3  and  N_4
REMARK    4  A    between atoms: N_4  and  C_5
REMARK    5  A    between atoms: C_5  and  C_6
REMARK    6  A    between atoms: C_6  and  C_8
REMARK                            x       y       z     vdW  Elec       q    Type
REMARK                         _______ _______ _______ _____ _____    ______ ____
ROOT
ATOM      1  N   UNL     1       4.117   6.632  -5.855  0.00  0.00    -0.212 NA
ENDROOT
BRANCH   1   2
ATOM      2  C   UNL     1       2.833   6.942  -5.221  0.00  0.00    +0.125 C 
BRANCH   2   4
ATOM      3  O   UNL     1       3.714   7.322  -3.154  0.00  0.00    -0.218 OA
ATOM      4  C   UNL     1       3.099   6.092  -3.819  0.00  0.00    +0.209 C 
BRANCH   4   5
ATOM      5  C   UNL     1       1.522   6.490  -3.178  0.00  0.00    +0.198 C 
ATOM      6  O   UNL     1       0.796   5.469  -4.092  0.00  0.00    -0.477 OA
ATOM      7  C   UNL     1      -0.538   5.409  -3.697  0.00  0.00    +0.135 A 
ATOM      8  C   UNL     1      -0.754   5.548  -2.332  0.00  0.00    +0.014 A 
ATOM      9  C   UNL     1      -1.851   6.267  -1.870  0.00  0.00    +0.028 A 
ATOM     10  C   UNL     1      -2.906   6.405  -2.765  0.00  0.00    +0.140 A 
ATOM     11  C   UNL     1      -2.890   5.730  -3.980  0.00  0.00    +0.033 A 
ATOM     12  F   UNL     1      -4.066   6.814  -2.174  0.00  0.00    -0.204 F 
ATOM     13  C   UNL     1       0.333   5.114  -1.429  0.00  0.00    +0.033 C 
ATOM     14  C   UNL     1      -1.625   5.505  -4.521  0.00  0.00    +0.039 A 
ATOM     15  C   UNL     1       1.708   5.373  -1.976  0.00  0.00    +0.051 C 
ENDBRANCH   4   5
ENDBRANCH   2   4
ENDBRANCH   1   2
BRANCH   1  16
ATOM     16  C   UNL     1       4.033   5.312  -6.488  0.00  0.00    +0.125 C 
BRANCH  16  17
ATOM     17  C   UNL     1       3.004   5.764  -7.710  0.00  0.00    +0.209 C 
ATOM     18  O   UNL     1       2.063   4.587  -7.459  0.00  0.00    -0.218 OA
BRANCH  17  19
ATOM     19  C   UNL     1       3.964   4.918  -8.910  0.00  0.00    +0.198 C 
ATOM     20  O   UNL     1       4.934   6.117  -9.065  0.00  0.00    -0.477 OA
ATOM     21  C   UNL     1       5.875   5.815 -10.027  0.00  0.00    +0.135 A 
ATOM     22  C   UNL     1       5.311   5.453 -11.247  0.00  0.00    +0.014 A 
ATOM     23  C   UNL     1       6.134   5.550 -12.340  0.00  0.00    +0.028 A 
ATOM     24  C   UNL     1       7.507   5.619 -12.152  0.00  0.00    +0.140 A 
ATOM     25  C   UNL     1       8.092   5.486 -10.899  0.00  0.00    +0.033 A 
ATOM     26  F   UNL     1       8.225   5.839 -13.267  0.00  0.00    -0.204 F 
ATOM     27  C   UNL     1       3.872   5.589 -11.358  0.00  0.00    +0.033 C 
ATOM     28  C   UNL     1       7.251   5.802  -9.836  0.00  0.00    +0.039 A 
ATOM     29  C   UNL     1       3.036   5.371 -10.196  0.00  0.00    +0.051 C 
ENDBRANCH  17  19
ENDBRANCH  16  17
ENDBRANCH   1  16
TORSDOF 6
ENDMDL
MODEL 6
REMARK VINA RESULT:      -9.2      2.478      3.874
REMARK  Name = 
REMARK  6 active torsions:
REMARK  status: ('A' for Active; 'I' for Inactive)
REMARK    1  A    between atoms: C_2  and  C_3
REMARK    2  A    between atoms: C_2  and  C_19
REMARK    3  A    between atoms: C_3  and  N_4
REMARK    4  A    between atoms: N_4  and  C_5
REMARK    5  A    between atoms: C_5  and  C_6
REMARK    6  A    between atoms: C_6  and  C_8
REMARK                            x       y       z     vdW  Elec       q    Type
REMARK                         _______ _______ _______ _____ _____    ______ ____
ROOT
ATOM      1  N   UNL     1       0.557   5.093  -9.612  0.00  0.00    -0.212 NA
ENDROOT
BRANCH   1   2
ATOM      2  C   UNL     1       0.832   6.345 -10.319  0.00  0.00    +0.125 C 
BRANCH   2   4
ATOM      3  O   UNL     1       0.865   6.861 -12.539  0.00  0.00    -0.218 OA
ATOM      4  C   UNL     1       1.358   5.657 -11.737  0.00  0.00    +0.209 C 
BRANCH   4   5
ATOM      5  C   UNL     1       2.950   6.364 -11.589  0.00  0.00    +0.198 C 
ATOM      6  O   UNL     1       3.481   5.200 -10.714  0.00  0.00    -0.477 OA
ATOM      7  C   UNL     1       4.853   5.377 -10.546  0.00  0.00    +0.135 A 
ATOM      8  C   UNL     1       5.515   5.913 -11.643  0.00  0.00    +0.014 A 
ATOM      9  C   UNL     1       6.542   6.832 -11.455  0.00  0.00    +0.028 A 
ATOM     10  C   UNL     1       7.155   6.810 -10.208  0.00  0.00    +0.140 A 
ATOM     11  C   UNL     1       6.833   5.822  -9.284  0.00  0.00    +0.033 A 
ATOM     12  F   UNL     1       8.347   7.474 -10.179  0.00  0.00    -0.204 F 
ATOM     13  C   UNL     1       4.933   5.652 -12.976  0.00  0.00    +0.033 C 
ATOM     14  C   UNL     1       5.528   5.337  -9.358  0.00  0.00    +0.039 A 
ATOM     15  C   UNL     1       3.432   5.618 -12.981  0.00  0.00    +0.051 C 
ENDBRANCH   4   5
ENDBRANCH   2   4
ENDBRANCH   1   2
BRANCH   1  16
ATOM     16  C   UNL     1      -0.075   5.397  -8.325  0.00  0.00    +0.125 C 
BRANCH  16  17
ATOM     17  C   UNL     1       1.336   5.572  -7.468  0.00  0.00    +0.209 C 
ATOM     18  O   UNL     1       1.943   4.299  -8.055  0.00  0.00    -0.218 OA
BRANCH  17  19
ATOM     19  C   UNL     1       0.653   4.764  -6.067  0.00  0.00    +0.198 C 
ATOM     20  O   UNL     1      -0.225   5.992  -5.715  0.00  0.00    -0.477 OA
ATOM     21  C   UNL     1      -0.929   5.725  -4.559  0.00  0.00    +0.135 A 
ATOM     22  C   UNL     1      -0.111   5.360  -3.495  0.00  0.00    +0.014 A 
ATOM     23  C   UNL     1      -0.661   5.490  -2.244  0.00  0.00    +0.028 A 
ATOM     24  C   UNL     1      -2.038   5.596  -2.116  0.00  0.00    +0.140 A 
ATOM     25  C   UNL     1      -2.897   5.467  -3.200  0.00  0.00    +0.033 A 
ATOM     26  F   UNL     1      -2.477   5.846  -0.870  0.00  0.00    -0.204 F 
ATOM     27  C   UNL     1       1.318   5.456  -3.716  0.00  0.00    +0.033 C 
ATOM     28  C   UNL     1      -2.312   5.750  -4.432  0.00  0.00    +0.039 A 
ATOM     29  C   UNL     1       1.862   5.203  -5.034  0.00  0.00    +0.051 C 
ENDBRANCH  17  19
ENDBRANCH  16  17
ENDBRANCH   1  16
TORSDOF 6
ENDMDL
MODEL 7
REMARK VINA RESULT:      -9.1      4.920      7.259
REMARK  Name = 
REMARK  6 active torsions:
REMARK  status: ('A' for Active; 'I' for Inactive)
REMARK    1  A    between atoms: C_2  and  C_3
REMARK    2  A    between atoms: C_2  and  C_19
REMARK    3  A    between atoms: C_3  and  N_4
REMARK    4  A    between atoms: N_4  and  C_5
REMARK    5  A    between atoms: C_5  and  C_6
REMARK    6  A    between atoms: C_6  and  C_8
REMARK                            x       y       z     vdW  Elec       q    Type
REMARK                         _______ _______ _______ _____ _____    ______ ____
ROOT
ATOM      1  N   UNL     1       4.325   5.328  -2.597  0.00  0.00    -0.212 NA
ENDROOT
BRANCH   1   2
ATOM      2  C   UNL     1       3.575   6.343  -3.340  0.00  0.00    +0.125 C 
BRANCH   2   4
ATOM      3  O   UNL     1       4.346   4.444  -4.337  0.00  0.00    -0.218 OA
ATOM      4  C   UNL     1       4.026   5.845  -4.859  0.00  0.00    +0.209 C 
BRANCH   4   5
ATOM      5  C   UNL     1       2.401   5.357  -5.276  0.00  0.00    +0.198 C 
ATOM      6  O   UNL     1       1.878   6.816  -5.309  0.00  0.00    -0.477 OA
ATOM      7  C   UNL     1       0.575   6.797  -5.802  0.00  0.00    +0.135 A 
ATOM      8  C   UNL     1       0.331   5.843  -6.781  0.00  0.00    +0.014 A 
ATOM      9  C   UNL     1      -0.882   5.162  -6.803  0.00  0.00    +0.028 A 
ATOM     10  C   UNL     1      -1.939   5.787  -6.152  0.00  0.00    +0.140 A 
ATOM     11  C   UNL     1      -1.794   7.075  -5.650  0.00  0.00    +0.033 A 
ATOM     12  F   UNL     1      -3.158   5.264  -6.476  0.00  0.00    -0.204 F 
ATOM     13  C   UNL     1       1.475   5.432  -7.622  0.00  0.00    +0.033 C 
ATOM     14  C   UNL     1      -0.507   7.412  -5.235  0.00  0.00    +0.039 A 
ATOM     15  C   UNL     1       2.781   5.394  -6.883  0.00  0.00    +0.051 C 
ENDBRANCH   4   5
ENDBRANCH   2   4
ENDBRANCH   1   2
BRANCH   1  16
ATOM     16  C   UNL     1       3.563   4.947  -1.403  0.00  0.00    +0.125 C 
BRANCH  16  17
ATOM     17  C   UNL     1       3.266   6.494  -0.878  0.00  0.00    +0.209 C 
ATOM     18  O   UNL     1       3.868   6.227   0.500  0.00  0.00    -0.218 OA
BRANCH  17  19
ATOM     19  C   UNL     1       1.630   6.077  -0.396  0.00  0.00    +0.198 C 
ATOM     20  O   UNL     1       1.069   6.404  -1.803  0.00  0.00    -0.477 OA
ATOM     21  C   UNL     1      -0.297   6.219  -1.797  0.00  0.00    +0.135 A 
ATOM     22  C   UNL     1      -0.943   6.952  -0.806  0.00  0.00    +0.014 A 
ATOM     23  C   UNL     1      -2.287   7.158  -0.993  0.00  0.00    +0.028 A 
ATOM     24  C   UNL     1      -2.979   6.355  -1.888  0.00  0.00    +0.140 A 
ATOM     25  C   UNL     1      -2.385   5.274  -2.528  0.00  0.00    +0.033 A 
ATOM     26  F   UNL     1      -4.259   6.709  -2.099  0.00  0.00    -0.204 F 
ATOM     27  C   UNL     1      -0.124   7.880  -0.054  0.00  0.00    +0.033 C 
ATOM     28  C   UNL     1      -0.999   5.360  -2.634  0.00  0.00    +0.039 A 
ATOM     29  C   UNL     1       1.265   7.567   0.210  0.00  0.00    +0.051 C 
ENDBRANCH  17  19
ENDBRANCH  16  17
ENDBRANCH   1  16
TORSDOF 6
ENDMDL
MODEL 8
REMARK VINA RESULT:      -9.1      4.836      7.466
REMARK  Name = 
REMARK  6 active torsions:
REMARK  status: ('A' for Active; 'I' for Inactive)
REMARK    1  A    between atoms: C_2  and  C_3
REMARK    2  A    between atoms: C_2  and  C_19
REMARK    3  A    between atoms: C_3  and  N_4
REMARK    4  A    between atoms: N_4  and  C_5
REMARK    5  A    between atoms: C_5  and  C_6
REMARK    6  A    between atoms: C_6  and  C_8
REMARK                            x       y       z     vdW  Elec       q    Type
REMARK                         _______ _______ _______ _____ _____    ______ ____
ROOT
ATOM      1  N   UNL     1       3.981   5.899  -6.412  0.00  0.00    -0.212 NA
ENDROOT
BRANCH   1   2
ATOM      2  C   UNL     1       2.894   4.923  -6.308  0.00  0.00    +0.125 C 
BRANCH   2   4
ATOM      3  O   UNL     1       1.487   4.472  -8.043  0.00  0.00    -0.218 OA
ATOM      4  C   UNL     1       1.804   5.743  -7.256  0.00  0.00    +0.209 C 
BRANCH   4   5
ATOM      5  C   UNL     1       0.483   5.434  -6.155  0.00  0.00    +0.198 C 
ATOM      6  O   UNL     1       0.195   6.942  -5.938  0.00  0.00    -0.477 OA
ATOM      7  C   UNL     1      -0.978   7.055  -5.196  0.00  0.00    +0.135 A 
ATOM      8  C   UNL     1      -1.942   6.094  -5.469  0.00  0.00    +0.014 A 
ATOM      9  C   UNL     1      -2.707   5.561  -4.437  0.00  0.00    +0.028 A 
ATOM     10  C   UNL     1      -2.795   6.336  -3.286  0.00  0.00    +0.140 A 
ATOM     11  C   UNL     1      -2.261   7.619  -3.259  0.00  0.00    +0.033 A 
ATOM     12  F   UNL     1      -3.800   5.947  -2.448  0.00  0.00    -0.204 F 
ATOM     13  C   UNL     1      -1.948   5.511  -6.827  0.00  0.00    +0.033 C 
ATOM     14  C   UNL     1      -1.148   7.820  -4.075  0.00  0.00    +0.039 A 
ATOM     15  C   UNL     1      -0.577   5.352  -7.419  0.00  0.00    +0.051 C 
ENDBRANCH   4   5
ENDBRANCH   2   4
ENDBRANCH   1   2
BRANCH   1  16
ATOM     16  C   UNL     1       4.891   5.727  -5.276  0.00  0.00    +0.125 C 
BRANCH  16  17
ATOM     17  C   UNL     1       4.664   7.240  -4.633  0.00  0.00    +0.209 C 
ATOM     18  O   UNL     1       6.122   7.360  -4.196  0.00  0.00    -0.218 OA
BRANCH  17  19
ATOM     19  C   UNL     1       4.118   6.572  -3.104  0.00  0.00    +0.198 C 
ATOM     20  O   UNL     1       2.629   6.812  -3.464  0.00  0.00    -0.477 OA
ATOM     21  C   UNL     1       1.840   6.417  -2.404  0.00  0.00    +0.135 A 
ATOM     22  C   UNL     1       2.183   7.037  -1.207  0.00  0.00    +0.014 A 
ATOM     23  C   UNL     1       1.219   7.031  -0.231  0.00  0.00    +0.028 A 
ATOM     24  C   UNL     1       0.165   6.133  -0.323  0.00  0.00    +0.140 A 
ATOM     25  C   UNL     1       0.103   5.161  -1.313  0.00  0.00    +0.033 A 
ATOM     26  F   UNL     1      -0.796   6.284   0.606  0.00  0.00    -0.204 F 
ATOM     27  C   UNL     1       3.187   8.079  -1.284  0.00  0.00    +0.033 C 
ATOM     28  C   UNL     1       0.833   5.462  -2.460  0.00  0.00    +0.039 A 
ATOM     29  C   UNL     1       4.250   7.985  -2.263  0.00  0.00    +0.051 C 
ENDBRANCH  17  19
ENDBRANCH  16  17
ENDBRANCH   1  16
TORSDOF 6
ENDMDL
MODEL 9
REMARK VINA RESULT:      -9.1      1.919      7.932
REMARK  Name = 
REMARK  6 active torsions:
REMARK  status: ('A' for Active; 'I' for Inactive)
REMARK    1  A    between atoms: C_2  and  C_3
REMARK    2  A    between atoms: C_2  and  C_19
REMARK    3  A    between atoms: C_3  and  N_4
REMARK    4  A    between atoms: N_4  and  C_5
REMARK    5  A    between atoms: C_5  and  C_6
REMARK    6  A    between atoms: C_6  and  C_8
REMARK                            x       y       z     vdW  Elec       q    Type
REMARK                         _______ _______ _______ _____ _____    ______ ____
ROOT
ATOM      1  N   UNL     1       1.327   6.703 -10.008  0.00  0.00    -0.212 NA
ENDROOT
BRANCH   1   2
ATOM      2  C   UNL     1       1.261   6.343  -8.589  0.00  0.00    +0.125 C 
BRANCH   2   4
ATOM      3  O   UNL     1       3.277   7.375  -8.847  0.00  0.00    -0.218 OA
ATOM      4  C   UNL     1       2.870   5.969  -8.409  0.00  0.00    +0.209 C 
BRANCH   4   5
ATOM      5  C   UNL     1       2.881   6.451  -6.729  0.00  0.00    +0.198 C 
ATOM      6  O   UNL     1       2.013   5.245  -6.286  0.00  0.00    -0.477 OA
ATOM      7  C   UNL     1       1.967   5.234  -4.894  0.00  0.00    +0.135 A 
ATOM      8  C   UNL     1       3.134   5.647  -4.264  0.00  0.00    +0.014 A 
ATOM      9  C   UNL     1       3.067   6.418  -3.108  0.00  0.00    +0.028 A 
ATOM     10  C   UNL     1       1.876   6.341  -2.397  0.00  0.00    +0.140 A 
ATOM     11  C   UNL     1       0.893   5.430  -2.768  0.00  0.00    +0.033 A 
ATOM     12  F   UNL     1       1.971   6.834  -1.128  0.00  0.00    -0.204 F 
ATOM     13  C   UNL     1       4.404   5.437  -4.992  0.00  0.00    +0.033 C 
ATOM     14  C   UNL     1       0.839   5.130  -4.128  0.00  0.00    +0.039 A 
ATOM     15  C   UNL     1       4.281   5.612  -6.478  0.00  0.00    +0.051 C 
ENDBRANCH   4   5
ENDBRANCH   2   4
ENDBRANCH   1   2
BRANCH   1  16
ATOM     16  C   UNL     1       1.625   5.501 -10.793  0.00  0.00    +0.125 C 
BRANCH  16  17
ATOM     17  C   UNL     1       2.155   6.299 -12.148  0.00  0.00    +0.209 C 
ATOM     18  O   UNL     1       1.371   5.388 -13.090  0.00  0.00    -0.218 OA
BRANCH  17  19
ATOM     19  C   UNL     1       3.620   5.334 -12.214  0.00  0.00    +0.198 C 
ATOM     20  O   UNL     1       4.479   6.493 -11.646  0.00  0.00    -0.477 OA
ATOM     21  C   UNL     1       5.796   6.091 -11.586  0.00  0.00    +0.135 A 
ATOM     22  C   UNL     1       6.286   5.643 -12.810  0.00  0.00    +0.014 A 
ATOM     23  C   UNL     1       7.652   5.630 -12.940  0.00  0.00    +0.028 A 
ATOM     24  C   UNL     1       8.443   5.682 -11.801  0.00  0.00    +0.140 A 
ATOM     25  C   UNL     1       7.905   5.639 -10.521  0.00  0.00    +0.033 A 
ATOM     26  F   UNL     1       9.764   5.792 -12.029  0.00  0.00    -0.204 F 
ATOM     27  C   UNL     1       5.410   5.803 -13.953  0.00  0.00    +0.033 C 
ATOM     28  C   UNL     1       6.581   6.061 -10.440  0.00  0.00    +0.039 A 
ATOM     29  C   UNL     1       3.976   5.702 -13.782  0.00  0.00    +0.051 C 
ENDBRANCH  17  19
ENDBRANCH  16  17
ENDBRANCH   1  16
TORSDOF 6
ENDMDL
