MODEL 1
REMARK VINA RESULT:      -7.8      0.000      0.000
REMARK  Name = 
REMARK  4 active torsions:
REMARK  status: ('A' for Active; 'I' for Inactive)
REMARK    1  A    between atoms: C_9  and  O_10
REMARK    2  A    between atoms: O_10  and  C_11
REMARK    3  A    between atoms: C_11  and  C_13
REMARK    4  A    between atoms: C_13  and  C_15
REMARK                            x       y       z     vdW  Elec       q    Type
REMARK                         _______ _______ _______ _____ _____    ______ ____
ROOT
ATOM      1  O   UNL     1       2.500   5.663  -8.634  0.00  0.00    -0.450 OA
ENDROOT
BRANCH   1   6
ATOM      2  C   UNL     1       0.757   5.106  -4.527  0.00  0.00    +0.170 C 
ATOM      3  N   UNL     1       1.084   5.127  -5.560  0.00  0.00    +0.298 N 
ATOM      4  C   UNL     1       0.674   6.457  -6.310  0.00  0.00    +0.062 C 
ATOM      5  C   UNL     1       2.182   6.951  -6.586  0.00  0.00    +0.099 C 
ATOM      6  C   UNL     1       1.579   6.238  -7.826  0.00  0.00    +0.180 C 
ATOM      7  C   UNL     1       0.247   5.591  -7.782  0.00  0.00    +0.099 C 
ATOM      8  C   UNL     1       0.224   7.002  -4.873  0.00  0.00    +0.061 C 
ATOM      9  C   UNL     1      -0.964   6.267  -5.610  0.00  0.00    +0.061 C 
ATOM     10  C   UNL     1      -0.271   4.953  -6.347  0.00  0.00    +0.062 C 
ATOM     11  C   UNL     1       1.874   4.249  -6.191  0.00  0.00    +0.170 C 
ENDBRANCH   1   6
BRANCH   1  12
ATOM     12  C   UNL     1       2.905   6.243  -9.819  0.00  0.00    +0.352 C 
ATOM     13  O   UNL     1       1.979   6.523 -10.628  0.00  0.00    -0.247 OA
BRANCH  12  14
ATOM     14  C   UNL     1       3.931   5.107 -10.371  0.00  0.00    +0.272 C 
ATOM     15  O   UNL     1       3.988   4.428  -9.006  0.00  0.00    -0.206 OA
BRANCH  14  16
ATOM     16  C   UNL     1       5.215   6.035 -10.061  0.00  0.00    +0.019 A 
ATOM     17  C   UNL     1       6.316   5.497  -9.497  0.00  0.00    -0.001 A 
ATOM     18  C   UNL     1       7.410   6.360  -9.424  0.00  0.00    -0.000 A 
ATOM     19  C   UNL     1       7.577   7.170 -10.542  0.00  0.00    -0.000 A 
ATOM     20  C   UNL     1       6.446   7.650 -11.194  0.00  0.00    -0.000 A 
ATOM     21  C   UNL     1       5.222   7.030 -11.005  0.00  0.00    -0.001 A 
ENDBRANCH  14  16
ENDBRANCH  12  14
ENDBRANCH   1  12
TORSDOF 4
ENDMDL
MODEL 2
REMARK VINA RESULT:      -7.7      1.690      2.226
REMARK  Name = 
REMARK  4 active torsions:
REMARK  status: ('A' for Active; 'I' for Inactive)
REMARK    1  A    between atoms: C_9  and  O_10
REMARK    2  A    between atoms: O_10  and  C_11
REMARK    3  A    between atoms: C_11  and  C_13
REMARK    4  A    between atoms: C_13  and  C_15
REMARK                            x       y       z     vdW  Elec       q    Type
REMARK                         _______ _______ _______ _____ _____    ______ ____
ROOT
ATOM      1  O   UNL     1       3.127   5.889  -8.025  0.00  0.00    -0.450 OA
ENDROOT
BRANCH   1   6
ATOM      2  C   UNL     1       3.422   5.003  -3.627  0.00  0.00    +0.170 C 
ATOM      3  N   UNL     1       3.201   5.231  -4.662  0.00  0.00    +0.298 N 
ATOM      4  C   UNL     1       3.791   6.622  -5.129  0.00  0.00    +0.062 C 
ATOM      5  C   UNL     1       4.784   6.006  -6.237  0.00  0.00    +0.099 C 
ATOM      6  C   UNL     1       3.465   6.517  -6.874  0.00  0.00    +0.180 C 
ATOM      7  C   UNL     1       2.343   7.021  -6.047  0.00  0.00    +0.099 C 
ATOM      8  C   UNL     1       4.560   6.645  -3.725  0.00  0.00    +0.061 C 
ATOM      9  C   UNL     1       3.141   7.329  -3.616  0.00  0.00    +0.061 C 
ATOM     10  C   UNL     1       2.133   6.385  -4.535  0.00  0.00    +0.062 C 
ATOM     11  C   UNL     1       2.627   4.436  -5.575  0.00  0.00    +0.170 C 
ENDBRANCH   1   6
BRANCH   1  12
ATOM     12  C   UNL     1       2.917   6.575  -9.204  0.00  0.00    +0.352 C 
ATOM     13  O   UNL     1       1.712   6.830  -9.473  0.00  0.00    -0.247 OA
BRANCH  12  14
ATOM     14  C   UNL     1       3.621   5.563 -10.266  0.00  0.00    +0.272 C 
ATOM     15  O   UNL     1       3.833   4.504  -9.189  0.00  0.00    -0.206 OA
BRANCH  14  16
ATOM     16  C   UNL     1       5.072   6.226 -10.023  0.00  0.00    +0.019 A 
ATOM     17  C   UNL     1       6.118   5.452  -9.667  0.00  0.00    -0.001 A 
ATOM     18  C   UNL     1       7.346   6.113  -9.640  0.00  0.00    -0.000 A 
ATOM     19  C   UNL     1       7.530   7.024 -10.675  0.00  0.00    -0.000 A 
ATOM     20  C   UNL     1       6.435   7.758 -11.120  0.00  0.00    -0.000 A 
ATOM     21  C   UNL     1       5.150   7.322 -10.845  0.00  0.00    -0.001 A 
ENDBRANCH  14  16
ENDBRANCH  12  14
ENDBRANCH   1  12
TORSDOF 4
ENDMDL
MODEL 3
REMARK VINA RESULT:      -7.7      2.122      6.653
REMARK  Name = 
REMARK  4 active torsions:
REMARK  status: ('A' for Active; 'I' for Inactive)
REMARK    1  A    between atoms: C_9  and  O_10
REMARK    2  A    between atoms: O_10  and  C_11
REMARK    3  A    between atoms: C_11  and  C_13
REMARK    4  A    between atoms: C_13  and  C_15
REMARK                            x       y       z     vdW  Elec       q    Type
REMARK                         _______ _______ _______ _____ _____    ______ ____
ROOT
ATOM      1  O   UNL     1       2.344   5.746  -6.581  0.00  0.00    -0.450 OA
ENDROOT
BRANCH   1   6
ATOM      2  C   UNL     1       3.356   5.576 -10.959  0.00  0.00    +0.170 C 
ATOM      3  N   UNL     1       3.174   5.478  -9.896  0.00  0.00    +0.298 N 
ATOM      4  C   UNL     1       4.031   6.483  -9.026  0.00  0.00    +0.062 C 
ATOM      5  C   UNL     1       2.770   7.285  -8.427  0.00  0.00    +0.099 C 
ATOM      6  C   UNL     1       3.288   6.211  -7.433  0.00  0.00    +0.180 C 
ATOM      7  C   UNL     1       4.366   5.263  -7.801  0.00  0.00    +0.099 C 
ATOM      8  C   UNL     1       4.444   7.164 -10.415  0.00  0.00    +0.061 C 
ATOM      9  C   UNL     1       5.453   6.017 -10.013  0.00  0.00    +0.061 C 
ATOM     10  C   UNL     1       4.507   4.808  -9.385  0.00  0.00    +0.062 C 
ATOM     11  C   UNL     1       2.247   4.727  -9.286  0.00  0.00    +0.170 C 
ENDBRANCH   1   6
BRANCH   1  12
ATOM     12  C   UNL     1       2.003   6.415  -5.424  0.00  0.00    +0.352 C 
ATOM     13  O   UNL     1       2.969   6.733  -4.678  0.00  0.00    -0.247 OA
BRANCH  12  14
ATOM     14  C   UNL     1       0.986   5.340  -4.748  0.00  0.00    +0.272 C 
ATOM     15  O   UNL     1       1.122   4.394  -5.936  0.00  0.00    -0.206 OA
BRANCH  14  16
ATOM     16  C   UNL     1      -0.304   6.082  -5.373  0.00  0.00    +0.019 A 
ATOM     17  C   UNL     1      -1.298   5.356  -5.927  0.00  0.00    -0.001 A 
ATOM     18  C   UNL     1      -2.423   6.096  -6.289  0.00  0.00    -0.000 A 
ATOM     19  C   UNL     1      -2.769   7.095  -5.384  0.00  0.00    -0.000 A 
ATOM     20  C   UNL     1      -1.753   7.783  -4.730  0.00  0.00    -0.000 A 
ATOM     21  C   UNL     1      -0.481   7.240  -4.659  0.00  0.00    -0.001 A 
ENDBRANCH  14  16
ENDBRANCH  12  14
ENDBRANCH   1  12
TORSDOF 4
ENDMDL
MODEL 4
REMARK VINA RESULT:      -7.6      2.175      3.738
REMARK  Name = 
REMARK  4 active torsions:
REMARK  status: ('A' for Active; 'I' for Inactive)
REMARK    1  A    between atoms: C_9  and  O_10
REMARK    2  A    between atoms: O_10  and  C_11
REMARK    3  A    between atoms: C_11  and  C_13
REMARK    4  A    between atoms: C_13  and  C_15
REMARK                            x       y       z     vdW  Elec       q    Type
REMARK                         _______ _______ _______ _____ _____    ______ ____
ROOT
ATOM      1  O   UNL     1       0.205   6.654  -6.486  0.00  0.00    -0.450 OA
ENDROOT
BRANCH   1   6
ATOM      2  C   UNL     1      -2.989   7.168  -3.364  0.00  0.00    +0.170 C 
ATOM      3  N   UNL     1      -2.124   7.101  -4.012  0.00  0.00    +0.298 N 
ATOM      4  C   UNL     1      -1.713   5.610  -4.343  0.00  0.00    +0.062 C 
ATOM      5  C   UNL     1      -1.980   5.722  -5.927  0.00  0.00    +0.099 C 
ATOM      6  C   UNL     1      -0.477   5.907  -5.587  0.00  0.00    +0.180 C 
ATOM      7  C   UNL     1       0.005   5.962  -4.186  0.00  0.00    +0.099 C 
ATOM      8  C   UNL     1      -3.086   5.188  -3.633  0.00  0.00    +0.061 C 
ATOM      9  C   UNL     1      -1.894   5.245  -2.598  0.00  0.00    +0.061 C 
ATOM     10  C   UNL     1      -1.006   6.577  -3.030  0.00  0.00    +0.062 C 
ATOM     11  C   UNL     1      -1.484   8.098  -4.636  0.00  0.00    +0.170 C 
ENDBRANCH   1   6
BRANCH   1  12
ATOM     12  C   UNL     1       1.128   6.102  -7.352  0.00  0.00    +0.352 C 
ATOM     13  O   UNL     1       1.240   4.847  -7.294  0.00  0.00    -0.247 OA
BRANCH  12  14
ATOM     14  C   UNL     1       2.473   6.897  -6.898  0.00  0.00    +0.272 C 
ATOM     15  O   UNL     1       2.079   8.125  -7.712  0.00  0.00    -0.206 OA
BRANCH  14  16
ATOM     16  C   UNL     1       3.328   6.258  -8.109  0.00  0.00    +0.019 A 
ATOM     17  C   UNL     1       3.408   6.902  -9.292  0.00  0.00    -0.001 A 
ATOM     18  C   UNL     1       4.298   6.333 -10.202  0.00  0.00    -0.000 A 
ATOM     19  C   UNL     1       5.477   5.860  -9.634  0.00  0.00    -0.000 A 
ATOM     20  C   UNL     1       5.423   5.284  -8.369  0.00  0.00    -0.000 A 
ATOM     21  C   UNL     1       4.343   5.533  -7.538  0.00  0.00    -0.001 A 
ENDBRANCH  14  16
ENDBRANCH  12  14
ENDBRANCH   1  12
TORSDOF 4
ENDMDL
MODEL 5
REMARK VINA RESULT:      -7.5      2.061      6.827
REMARK  Name = 
REMARK  4 active torsions:
REMARK  status: ('A' for Active; 'I' for Inactive)
REMARK    1  A    between atoms: C_9  and  O_10
REMARK    2  A    between atoms: O_10  and  C_11
REMARK    3  A    between atoms: C_11  and  C_13
REMARK    4  A    between atoms: C_13  and  C_15
REMARK                            x       y       z     vdW  Elec       q    Type
REMARK                         _______ _______ _______ _____ _____    ______ ____
ROOT
ATOM      1  O   UNL     1       3.209   5.681  -9.935  0.00  0.00    -0.450 OA
ENDROOT
BRANCH   1   6
ATOM      2  C   UNL     1       7.244   7.411 -10.906  0.00  0.00    +0.170 C 
ATOM      3  N   UNL     1       6.238   7.021 -10.818  0.00  0.00    +0.298 N 
ATOM      4  C   UNL     1       6.199   5.462 -10.551  0.00  0.00    +0.062 C 
ATOM      5  C   UNL     1       5.502   5.570  -9.104  0.00  0.00    +0.099 C 
ATOM      6  C   UNL     1       4.464   5.258 -10.216  0.00  0.00    +0.180 C 
ATOM      7  C   UNL     1       4.843   5.226 -11.648  0.00  0.00    +0.099 C 
ATOM      8  C   UNL     1       7.785   5.566 -10.351  0.00  0.00    +0.061 C 
ATOM      9  C   UNL     1       7.411   5.277 -11.859  0.00  0.00    +0.061 C 
ATOM     10  C   UNL     1       6.071   6.208 -12.159  0.00  0.00    +0.062 C 
ATOM     11  C   UNL     1       5.090   7.709 -10.780  0.00  0.00    +0.170 C 
ENDBRANCH   1   6
BRANCH   1  12
ATOM     12  C   UNL     1       2.465   5.144  -8.905  0.00  0.00    +0.352 C 
ATOM     13  O   UNL     1       2.425   3.884  -8.867  0.00  0.00    -0.247 OA
BRANCH  12  14
ATOM     14  C   UNL     1       1.019   5.832  -9.194  0.00  0.00    +0.272 C 
ATOM     15  O   UNL     1       1.615   7.233  -9.105  0.00  0.00    -0.206 OA
BRANCH  14  16
ATOM     16  C   UNL     1       0.628   5.802  -7.629  0.00  0.00    +0.019 A 
ATOM     17  C   UNL     1       1.181   6.691  -6.778  0.00  0.00    -0.001 A 
ATOM     18  C   UNL     1       0.649   6.667  -5.489  0.00  0.00    -0.000 A 
ATOM     19  C   UNL     1      -0.730   6.486  -5.440  0.00  0.00    -0.000 A 
ATOM     20  C   UNL     1      -1.326   5.649  -6.377  0.00  0.00    -0.000 A 
ATOM     21  C   UNL     1      -0.660   5.336  -7.550  0.00  0.00    -0.001 A 
ENDBRANCH  14  16
ENDBRANCH  12  14
ENDBRANCH   1  12
TORSDOF 4
ENDMDL
MODEL 6
REMARK VINA RESULT:      -7.4      3.166      4.570
REMARK  Name = 
REMARK  4 active torsions:
REMARK  status: ('A' for Active; 'I' for Inactive)
REMARK    1  A    between atoms: C_9  and  O_10
REMARK    2  A    between atoms: O_10  and  C_11
REMARK    3  A    between atoms: C_11  and  C_13
REMARK    4  A    between atoms: C_13  and  C_15
REMARK                            x       y       z     vdW  Elec       q    Type
REMARK                         _______ _______ _______ _____ _____    ______ ____
ROOT
ATOM      1  O   UNL     1       1.470   6.278  -6.005  0.00  0.00    -0.450 OA
ENDROOT
BRANCH   1   6
ATOM      2  C   UNL     1      -2.634   5.374  -4.407  0.00  0.00    +0.170 C 
ATOM      3  N   UNL     1      -1.715   5.694  -4.882  0.00  0.00    +0.298 N 
ATOM      4  C   UNL     1      -0.738   6.447  -3.893  0.00  0.00    +0.062 C 
ATOM      5  C   UNL     1       0.447   5.361  -3.987  0.00  0.00    +0.099 C 
ATOM      6  C   UNL     1       0.703   6.569  -4.928  0.00  0.00    +0.180 C 
ATOM      7  C   UNL     1      -0.300   7.645  -5.107  0.00  0.00    +0.099 C 
ATOM      8  C   UNL     1      -1.740   5.994  -2.729  0.00  0.00    +0.061 C 
ATOM      9  C   UNL     1      -2.149   7.397  -3.330  0.00  0.00    +0.061 C 
ATOM     10  C   UNL     1      -1.902   7.257  -4.964  0.00  0.00    +0.062 C 
ATOM     11  C   UNL     1      -1.287   5.411  -6.119  0.00  0.00    +0.170 C 
ENDBRANCH   1   6
BRANCH   1  12
ATOM     12  C   UNL     1       2.489   7.106  -6.429  0.00  0.00    +0.352 C 
ATOM     13  O   UNL     1       2.194   7.883  -7.378  0.00  0.00    -0.247 OA
BRANCH  12  14
ATOM     14  C   UNL     1       3.624   6.007  -6.816  0.00  0.00    +0.272 C 
ATOM     15  O   UNL     1       2.743   4.859  -6.336  0.00  0.00    -0.206 OA
BRANCH  14  16
ATOM     16  C   UNL     1       4.349   6.168  -5.384  0.00  0.00    +0.019 A 
ATOM     17  C   UNL     1       4.418   7.379  -4.793  0.00  0.00    -0.001 A 
ATOM     18  C   UNL     1       4.926   7.362  -3.495  0.00  0.00    -0.000 A 
ATOM     19  C   UNL     1       4.502   6.283  -2.726  0.00  0.00    -0.000 A 
ATOM     20  C   UNL     1       4.330   5.050  -3.345  0.00  0.00    -0.000 A 
ATOM     21  C   UNL     1       4.184   4.978  -4.720  0.00  0.00    -0.001 A 
ENDBRANCH  14  16
ENDBRANCH  12  14
ENDBRANCH   1  12
TORSDOF 4
ENDMDL
MODEL 7
REMARK VINA RESULT:      -7.2      2.556      6.360
REMARK  Name = 
REMARK  4 active torsions:
REMARK  status: ('A' for Active; 'I' for Inactive)
REMARK    1  A    between atoms: C_9  and  O_10
REMARK    2  A    between atoms: O_10  and  C_11
REMARK    3  A    between atoms: C_11  and  C_13
REMARK    4  A    between atoms: C_13  and  C_15
REMARK                            x       y       z     vdW  Elec       q    Type
REMARK                         _______ _______ _______ _____ _____    ______ ____
ROOT
ATOM      1  O   UNL     1       3.745   5.440  -9.019  0.00  0.00    -0.450 OA
ENDROOT
BRANCH   1   6
ATOM      2  C   UNL     1       6.787   7.599 -11.530  0.00  0.00    +0.170 C 
ATOM      3  N   UNL     1       5.962   7.091 -11.045  0.00  0.00    +0.298 N 
ATOM      4  C   UNL     1       6.253   5.561 -10.769  0.00  0.00    +0.062 C 
ATOM      5  C   UNL     1       6.170   5.675  -9.165  0.00  0.00    +0.099 C 
ATOM      6  C   UNL     1       4.837   5.162  -9.770  0.00  0.00    +0.180 C 
ATOM      7  C   UNL     1       4.624   5.083 -11.235  0.00  0.00    +0.099 C 
ATOM      8  C   UNL     1       7.758   5.878 -11.216  0.00  0.00    +0.061 C 
ATOM      9  C   UNL     1       6.869   5.445 -12.448  0.00  0.00    +0.061 C 
ATOM     10  C   UNL     1       5.401   6.177 -12.202  0.00  0.00    +0.062 C 
ATOM     11  C   UNL     1       4.835   7.630 -10.561  0.00  0.00    +0.170 C 
ENDBRANCH   1   6
BRANCH   1  12
ATOM     12  C   UNL     1       3.218   4.533  -8.123  0.00  0.00    +0.352 C 
ATOM     13  O   UNL     1       2.597   3.563  -8.637  0.00  0.00    -0.247 OA
BRANCH  12  14
ATOM     14  C   UNL     1       2.273   5.512  -7.231  0.00  0.00    +0.272 C 
ATOM     15  O   UNL     1       2.565   6.701  -8.140  0.00  0.00    -0.206 OA
BRANCH  14  16
ATOM     16  C   UNL     1       3.488   5.866  -6.229  0.00  0.00    +0.019 A 
ATOM     17  C   UNL     1       3.626   7.121  -5.753  0.00  0.00    -0.001 A 
ATOM     18  C   UNL     1       4.613   7.265  -4.779  0.00  0.00    -0.000 A 
ATOM     19  C   UNL     1       4.686   6.211  -3.874  0.00  0.00    -0.000 A 
ATOM     20  C   UNL     1       4.446   4.921  -4.334  0.00  0.00    -0.000 A 
ATOM     21  C   UNL     1       3.766   4.723  -5.524  0.00  0.00    -0.001 A 
ENDBRANCH  14  16
ENDBRANCH  12  14
ENDBRANCH   1  12
TORSDOF 4
ENDMDL
MODEL 8
REMARK VINA RESULT:      -7.2      2.086      3.329
REMARK  Name = 
REMARK  4 active torsions:
REMARK  status: ('A' for Active; 'I' for Inactive)
REMARK    1  A    between atoms: C_9  and  O_10
REMARK    2  A    between atoms: O_10  and  C_11
REMARK    3  A    between atoms: C_11  and  C_13
REMARK    4  A    between atoms: C_13  and  C_15
REMARK                            x       y       z     vdW  Elec       q    Type
REMARK                         _______ _______ _______ _____ _____    ______ ____
ROOT
ATOM      1  O   UNL     1       0.581   7.097  -6.175  0.00  0.00    -0.450 OA
ENDROOT
BRANCH   1   6
ATOM      2  C   UNL     1      -2.872   5.109  -4.092  0.00  0.00    +0.170 C 
ATOM      3  N   UNL     1      -2.143   5.686  -4.647  0.00  0.00    +0.298 N 
ATOM      4  C   UNL     1      -1.120   6.451  -3.714  0.00  0.00    +0.062 C 
ATOM      5  C   UNL     1       0.184   5.665  -4.238  0.00  0.00    +0.099 C 
ATOM      6  C   UNL     1       0.024   7.039  -4.943  0.00  0.00    +0.180 C 
ATOM      7  C   UNL     1      -1.162   7.898  -4.717  0.00  0.00    +0.099 C 
ATOM      8  C   UNL     1      -1.758   5.612  -2.509  0.00  0.00    +0.061 C 
ATOM      9  C   UNL     1      -2.519   6.979  -2.727  0.00  0.00    +0.061 C 
ATOM     10  C   UNL     1      -2.607   7.169  -4.372  0.00  0.00    +0.062 C 
ATOM     11  C   UNL     1      -1.948   5.709  -5.972  0.00  0.00    +0.170 C 
ENDBRANCH   1   6
BRANCH   1  12
ATOM     12  C   UNL     1       1.854   6.630  -6.431  0.00  0.00    +0.352 C 
ATOM     13  O   UNL     1       2.772   7.490  -6.348  0.00  0.00    -0.247 OA
BRANCH  12  14
ATOM     14  C   UNL     1       1.656   6.032  -7.931  0.00  0.00    +0.272 C 
ATOM     15  O   UNL     1       1.749   4.597  -7.423  0.00  0.00    -0.206 OA
BRANCH  14  16
ATOM     16  C   UNL     1       3.238   6.121  -8.237  0.00  0.00    +0.019 A 
ATOM     17  C   UNL     1       4.057   5.121  -7.851  0.00  0.00    -0.001 A 
ATOM     18  C   UNL     1       5.369   5.238  -8.309  0.00  0.00    -0.000 A 
ATOM     19  C   UNL     1       5.483   5.710  -9.612  0.00  0.00    -0.000 A 
ATOM     20  C   UNL     1       4.579   6.671 -10.055  0.00  0.00    -0.000 A 
ATOM     21  C   UNL     1       3.378   6.852  -9.390  0.00  0.00    -0.001 A 
ENDBRANCH  14  16
ENDBRANCH  12  14
ENDBRANCH   1  12
TORSDOF 4
ENDMDL
MODEL 9
REMARK VINA RESULT:      -7.1      4.124      6.459
REMARK  Name = 
REMARK  4 active torsions:
REMARK  status: ('A' for Active; 'I' for Inactive)
REMARK    1  A    between atoms: C_9  and  O_10
REMARK    2  A    between atoms: O_10  and  C_11
REMARK    3  A    between atoms: C_11  and  C_13
REMARK    4  A    between atoms: C_13  and  C_15
REMARK                            x       y       z     vdW  Elec       q    Type
REMARK                         _______ _______ _______ _____ _____    ______ ____
ROOT
ATOM      1  O   UNL     1       2.238   5.331  -5.206  0.00  0.00    -0.450 OA
ENDROOT
BRANCH   1   6
ATOM      2  C   UNL     1       3.433   7.496  -1.450  0.00  0.00    +0.170 C 
ATOM      3  N   UNL     1       3.292   6.985  -2.395  0.00  0.00    +0.298 N 
ATOM      4  C   UNL     1       2.910   5.460  -2.223  0.00  0.00    +0.062 C 
ATOM      5  C   UNL     1       1.458   5.585  -2.907  0.00  0.00    +0.099 C 
ATOM      6  C   UNL     1       2.518   5.056  -3.910  0.00  0.00    +0.180 C 
ATOM      7  C   UNL     1       3.953   4.965  -3.552  0.00  0.00    +0.099 C 
ATOM      8  C   UNL     1       2.758   5.785  -0.662  0.00  0.00    +0.061 C 
ATOM      9  C   UNL     1       4.230   5.336  -1.017  0.00  0.00    +0.061 C 
ATOM     10  C   UNL     1       4.565   6.058  -2.472  0.00  0.00    +0.062 C 
ATOM     11  C   UNL     1       3.275   7.519  -3.623  0.00  0.00    +0.170 C 
ENDBRANCH   1   6
BRANCH   1  12
ATOM     12  C   UNL     1       1.465   4.496  -5.985  0.00  0.00    +0.352 C 
ATOM     13  O   UNL     1       2.076   3.523  -6.506  0.00  0.00    -0.247 OA
BRANCH  12  14
ATOM     14  C   UNL     1       0.885   5.557  -7.073  0.00  0.00    +0.272 C 
ATOM     15  O   UNL     1       1.801   6.661  -6.556  0.00  0.00    -0.206 OA
BRANCH  14  16
ATOM     16  C   UNL     1      -0.327   5.984  -6.096  0.00  0.00    +0.019 A 
ATOM     17  C   UNL     1      -0.308   7.185  -5.481  0.00  0.00    -0.001 A 
ATOM     18  C   UNL     1      -1.478   7.501  -4.792  0.00  0.00    -0.000 A 
ATOM     19  C   UNL     1      -2.648   7.116  -5.439  0.00  0.00    -0.000 A 
ATOM     20  C   UNL     1      -2.650   5.928  -6.161  0.00  0.00    -0.000 A 
ATOM     21  C   UNL     1      -1.455   5.360  -6.567  0.00  0.00    -0.001 A 
ENDBRANCH  14  16
ENDBRANCH  12  14
ENDBRANCH   1  12
TORSDOF 4
ENDMDL
