MODEL 1
REMARK VINA RESULT:      -8.5      0.000      0.000
REMARK  Name = 
REMARK  1 active torsions:
REMARK  status: ('A' for Active; 'I' for Inactive)
REMARK    1  A    between atoms: C_11  and  C_12
REMARK                            x       y       z     vdW  Elec       q    Type
REMARK                         _______ _______ _______ _____ _____    ______ ____
ROOT
ATOM      1  O   UNL     1       0.894   6.069  -6.148  0.00  0.00    -0.268 OA
ATOM      2  C   UNL     1       1.383   6.003  -7.229  0.00  0.00    +0.300 C 
ATOM      3  C   UNL     1       2.016   7.484  -7.523  0.00  0.00    +0.333 C 
ATOM      4  O   UNL     1       1.349   7.647  -8.910  0.00  0.00    -0.186 OA
ATOM      5  N   UNL     1       3.399   6.894  -8.065  0.00  0.00    -0.233 NA
ATOM      6  C   UNL     1       3.573   6.398  -9.206  0.00  0.00    +0.081 C 
ATOM      7  C   UNL     1       2.610   5.708 -10.048  0.00  0.00    +0.034 A 
ATOM      8  C   UNL     1       1.509   5.020  -9.547  0.00  0.00    +0.075 A 
ATOM      9  C   UNL     1       0.659   4.505 -10.487  0.00  0.00    +0.018 A 
ATOM     10  C   UNL     1       0.673   4.915 -11.814  0.00  0.00    +0.013 A 
ATOM     11  C   UNL     1       1.622   5.836 -12.205  0.00  0.00    +0.058 A 
ATOM     12 CL   UNL     1       1.190   7.001 -13.459  0.00  0.00    -0.082 Cl
ATOM     13  C   UNL     1       2.735   6.024 -11.395  0.00  0.00    +0.014 A 
ATOM     14  N   UNL     1       0.965   5.109  -8.223  0.00  0.00    -0.175 NA
ENDROOT
BRANCH   6  15
ATOM     15  C   UNL     1       4.866   6.551  -9.873  0.00  0.00    +0.028 A 
ATOM     16  C   UNL     1       5.884   5.729  -9.473  0.00  0.00    +0.059 A 
ATOM     17 CL   UNL     1       5.590   4.433  -8.351  0.00  0.00    -0.082 Cl
ATOM     18  C   UNL     1       7.170   6.048  -9.887  0.00  0.00    +0.011 A 
ATOM     19  C   UNL     1       7.352   7.201 -10.610  0.00  0.00    +0.001 A 
ATOM     20  C   UNL     1       6.306   7.755 -11.330  0.00  0.00    +0.000 A 
ATOM     21  C   UNL     1       5.037   7.406 -10.911  0.00  0.00    +0.002 A 
ENDBRANCH   6  15
TORSDOF 1
ENDMDL
MODEL 2
REMARK VINA RESULT:      -7.9      3.812      7.201
REMARK  Name = 
REMARK  1 active torsions:
REMARK  status: ('A' for Active; 'I' for Inactive)
REMARK    1  A    between atoms: C_11  and  C_12
REMARK                            x       y       z     vdW  Elec       q    Type
REMARK                         _______ _______ _______ _____ _____    ______ ____
ROOT
ATOM      1  O   UNL     1       4.024   5.864  -8.975  0.00  0.00    -0.268 OA
ATOM      2  C   UNL     1       3.431   5.877  -7.944  0.00  0.00    +0.300 C 
ATOM      3  C   UNL     1       2.814   7.388  -7.807  0.00  0.00    +0.333 C 
ATOM      4  O   UNL     1       3.348   7.625  -6.373  0.00  0.00    -0.186 OA
ATOM      5  N   UNL     1       1.370   6.862  -7.367  0.00  0.00    -0.233 NA
ATOM      6  C   UNL     1       1.073   6.444  -6.220  0.00  0.00    +0.081 C 
ATOM      7  C   UNL     1       1.930   5.790  -5.247  0.00  0.00    +0.034 A 
ATOM      8  C   UNL     1       3.056   5.048  -5.594  0.00  0.00    +0.075 A 
ATOM      9  C   UNL     1       3.796   4.577  -4.546  0.00  0.00    +0.018 A 
ATOM     10  C   UNL     1       3.665   5.070  -3.255  0.00  0.00    +0.013 A 
ATOM     11  C   UNL     1       2.709   6.035  -3.016  0.00  0.00    +0.058 A 
ATOM     12 CL   UNL     1       3.049   7.268  -1.800  0.00  0.00    -0.082 Cl
ATOM     13  C   UNL     1       1.685   6.194  -3.941  0.00  0.00    +0.014 A 
ATOM     14  N   UNL     1       3.727   5.040  -6.862  0.00  0.00    -0.175 NA
ENDROOT
BRANCH   6  15
ATOM     15  C   UNL     1      -0.275   6.668  -5.694  0.00  0.00    +0.028 A 
ATOM     16  C   UNL     1      -1.267   5.833  -6.128  0.00  0.00    +0.059 A 
ATOM     17 CL   UNL     1      -0.899   4.451  -7.117  0.00  0.00    -0.082 Cl
ATOM     18  C   UNL     1      -2.580   6.203  -5.865  0.00  0.00    +0.011 A 
ATOM     19  C   UNL     1      -2.804   7.410  -5.250  0.00  0.00    +0.001 A 
ATOM     20  C   UNL     1      -1.819   8.000  -4.476  0.00  0.00    +0.000 A 
ATOM     21  C   UNL     1      -0.524   7.602  -4.743  0.00  0.00    +0.002 A 
ENDBRANCH   6  15
TORSDOF 1
ENDMDL
MODEL 3
REMARK VINA RESULT:      -7.7      4.636      6.743
REMARK  Name = 
REMARK  1 active torsions:
REMARK  status: ('A' for Active; 'I' for Inactive)
REMARK    1  A    between atoms: C_11  and  C_12
REMARK                            x       y       z     vdW  Elec       q    Type
REMARK                         _______ _______ _______ _____ _____    ______ ____
ROOT
ATOM      1  O   UNL     1       2.032   4.211  -0.575  0.00  0.00    -0.268 OA
ATOM      2  C   UNL     1       1.493   4.670  -1.530  0.00  0.00    +0.300 C 
ATOM      3  C   UNL     1       2.505   5.823  -2.101  0.00  0.00    +0.333 C 
ATOM      4  O   UNL     1       1.424   6.930  -2.177  0.00  0.00    -0.186 OA
ATOM      5  N   UNL     1       2.360   5.337  -3.617  0.00  0.00    -0.233 NA
ATOM      6  C   UNL     1       1.377   5.580  -4.361  0.00  0.00    +0.081 C 
ATOM      7  C   UNL     1      -0.011   5.784  -3.986  0.00  0.00    +0.034 A 
ATOM      8  C   UNL     1      -0.584   5.239  -2.840  0.00  0.00    +0.075 A 
ATOM      9  C   UNL     1      -1.878   5.607  -2.596  0.00  0.00    +0.018 A 
ATOM     10  C   UNL     1      -2.476   6.696  -3.216  0.00  0.00    +0.013 A 
ATOM     11  C   UNL     1      -1.750   7.396  -4.156  0.00  0.00    +0.058 A 
ATOM     12 CL   UNL     1      -2.010   9.136  -4.290  0.00  0.00    -0.082 Cl
ATOM     13  C   UNL     1      -0.636   6.785  -4.719  0.00  0.00    +0.014 A 
ATOM     14  N   UNL     1       0.105   4.669  -1.719  0.00  0.00    -0.175 NA
ENDROOT
BRANCH   6  15
ATOM     15  C   UNL     1       1.584   5.763  -5.798  0.00  0.00    +0.028 A 
ATOM     16  C   UNL     1       2.546   6.653  -6.188  0.00  0.00    +0.059 A 
ATOM     17 CL   UNL     1       3.603   7.389  -5.019  0.00  0.00    -0.082 Cl
ATOM     18  C   UNL     1       2.560   7.043  -7.520  0.00  0.00    +0.011 A 
ATOM     19  C   UNL     1       1.570   6.570  -8.347  0.00  0.00    +0.001 A 
ATOM     20  C   UNL     1       0.902   5.395  -8.044  0.00  0.00    +0.000 A 
ATOM     21  C   UNL     1       0.919   5.018  -6.716  0.00  0.00    +0.002 A 
ENDBRANCH   6  15
TORSDOF 1
ENDMDL
MODEL 4
REMARK VINA RESULT:      -7.7      5.220      7.751
REMARK  Name = 
REMARK  1 active torsions:
REMARK  status: ('A' for Active; 'I' for Inactive)
REMARK    1  A    between atoms: C_11  and  C_12
REMARK                            x       y       z     vdW  Elec       q    Type
REMARK                         _______ _______ _______ _____ _____    ______ ____
ROOT
ATOM      1  O   UNL     1       1.858   6.371   0.293  0.00  0.00    -0.268 OA
ATOM      2  C   UNL     1       1.870   6.456  -0.893  0.00  0.00    +0.300 C 
ATOM      3  C   UNL     1       1.321   5.016  -1.448  0.00  0.00    +0.333 C 
ATOM      4  O   UNL     1       2.494   4.791  -2.433  0.00  0.00    -0.186 OA
ATOM      5  N   UNL     1       0.333   5.690  -2.507  0.00  0.00    -0.233 NA
ATOM      6  C   UNL     1       0.683   6.182  -3.609  0.00  0.00    +0.081 C 
ATOM      7  C   UNL     1       1.952   6.796  -3.961  0.00  0.00    +0.034 A 
ATOM      8  C   UNL     1       2.788   7.415  -3.036  0.00  0.00    +0.075 A 
ATOM      9  C   UNL     1       3.983   7.860  -3.527  0.00  0.00    +0.018 A 
ATOM     10  C   UNL     1       4.497   7.436  -4.746  0.00  0.00    +0.013 A 
ATOM     11  C   UNL     1       3.739   6.575  -5.512  0.00  0.00    +0.058 A 
ATOM     12 CL   UNL     1       4.577   5.368  -6.490  0.00  0.00    -0.082 Cl
ATOM     13  C   UNL     1       2.380   6.472  -5.243  0.00  0.00    +0.014 A 
ATOM     14  N   UNL     1       2.722   7.307  -1.607  0.00  0.00    -0.175 NA
ENDROOT
BRANCH   6  15
ATOM     15  C   UNL     1      -0.221   6.106  -4.757  0.00  0.00    +0.028 A 
ATOM     16  C   UNL     1      -1.366   6.853  -4.707  0.00  0.00    +0.059 A 
ATOM     17 CL   UNL     1      -1.635   7.985  -3.415  0.00  0.00    -0.082 Cl
ATOM     18  C   UNL     1      -2.354   6.578  -5.643  0.00  0.00    +0.011 A 
ATOM     19  C   UNL     1      -2.154   5.534  -6.512  0.00  0.00    +0.001 A 
ATOM     20  C   UNL     1      -0.873   5.099  -6.807  0.00  0.00    +0.000 A 
ATOM     21  C   UNL     1       0.096   5.401  -5.871  0.00  0.00    +0.002 A 
ENDBRANCH   6  15
TORSDOF 1
ENDMDL
MODEL 5
REMARK VINA RESULT:      -7.6      4.100      5.968
REMARK  Name = 
REMARK  1 active torsions:
REMARK  status: ('A' for Active; 'I' for Inactive)
REMARK    1  A    between atoms: C_11  and  C_12
REMARK                            x       y       z     vdW  Elec       q    Type
REMARK                         _______ _______ _______ _____ _____    ______ ____
ROOT
ATOM      1  O   UNL     1       4.348   5.491  -1.517  0.00  0.00    -0.268 OA
ATOM      2  C   UNL     1       3.519   5.643  -2.356  0.00  0.00    +0.300 C 
ATOM      3  C   UNL     1       3.976   6.970  -3.198  0.00  0.00    +0.333 C 
ATOM      4  O   UNL     1       2.601   7.677  -3.099  0.00  0.00    -0.186 OA
ATOM      5  N   UNL     1       3.713   6.281  -4.616  0.00  0.00    -0.233 NA
ATOM      6  C   UNL     1       2.583   6.119  -5.141  0.00  0.00    +0.081 C 
ATOM      7  C   UNL     1       1.300   5.935  -4.484  0.00  0.00    +0.034 A 
ATOM      8  C   UNL     1       1.162   5.385  -3.212  0.00  0.00    +0.075 A 
ATOM      9  C   UNL     1      -0.111   5.369  -2.713  0.00  0.00    +0.018 A 
ATOM     10  C   UNL     1      -1.135   6.138  -3.249  0.00  0.00    +0.013 A 
ATOM     11  C   UNL     1      -0.865   6.905  -4.362  0.00  0.00    +0.058 A 
ATOM     12 CL   UNL     1      -1.696   8.453  -4.534  0.00  0.00    -0.082 Cl
ATOM     13  C   UNL     1       0.258   6.599  -5.119  0.00  0.00    +0.014 A 
ATOM     14  N   UNL     1       2.197   5.195  -2.238  0.00  0.00    -0.175 NA
ENDROOT
BRANCH   6  15
ATOM     15  C   UNL     1       2.445   6.178  -6.597  0.00  0.00    +0.028 A 
ATOM     16  C   UNL     1       2.296   4.994  -7.264  0.00  0.00    +0.059 A 
ATOM     17 CL   UNL     1       2.091   3.502  -6.395  0.00  0.00    -0.082 Cl
ATOM     18  C   UNL     1       2.447   5.010  -8.644  0.00  0.00    +0.011 A 
ATOM     19  C   UNL     1       2.804   6.193  -9.245  0.00  0.00    +0.001 A 
ATOM     20  C   UNL     1       2.538   7.404  -8.629  0.00  0.00    +0.000 A 
ATOM     21  C   UNL     1       2.372   7.359  -7.259  0.00  0.00    +0.002 A 
ENDBRANCH   6  15
TORSDOF 1
ENDMDL
MODEL 6
REMARK VINA RESULT:      -7.5      2.764      4.916
REMARK  Name = 
REMARK  1 active torsions:
REMARK  status: ('A' for Active; 'I' for Inactive)
REMARK    1  A    between atoms: C_11  and  C_12
REMARK                            x       y       z     vdW  Elec       q    Type
REMARK                         _______ _______ _______ _____ _____    ______ ____
ROOT
ATOM      1  O   UNL     1      -1.803   6.363  -5.457  0.00  0.00    -0.268 OA
ATOM      2  C   UNL     1      -0.632   6.350  -5.662  0.00  0.00    +0.300 C 
ATOM      3  C   UNL     1      -0.348   4.991  -6.530  0.00  0.00    +0.333 C 
ATOM      4  O   UNL     1       0.798   4.483  -5.621  0.00  0.00    -0.186 OA
ATOM      5  N   UNL     1       0.588   5.743  -7.584  0.00  0.00    -0.233 NA
ATOM      6  C   UNL     1       1.783   6.075  -7.380  0.00  0.00    +0.081 C 
ATOM      7  C   UNL     1       2.421   6.423  -6.122  0.00  0.00    +0.034 A 
ATOM      8  C   UNL     1       1.733   6.956  -5.035  0.00  0.00    +0.075 A 
ATOM      9  C   UNL     1       2.475   7.141  -3.902  0.00  0.00    +0.018 A 
ATOM     10  C   UNL     1       3.710   6.536  -3.709  0.00  0.00    +0.013 A 
ATOM     11  C   UNL     1       4.229   5.764  -4.728  0.00  0.00    +0.058 A 
ATOM     12 CL   UNL     1       5.199   4.353  -4.299  0.00  0.00    -0.082 Cl
ATOM     13  C   UNL     1       3.714   5.926  -6.007  0.00  0.00    +0.014 A 
ATOM     14  N   UNL     1       0.313   6.976  -4.839  0.00  0.00    -0.175 NA
ENDROOT
BRANCH   6  15
ATOM     15  C   UNL     1       2.736   6.070  -8.490  0.00  0.00    +0.028 A 
ATOM     16  C   UNL     1       3.181   4.854  -8.933  0.00  0.00    +0.059 A 
ATOM     17 CL   UNL     1       2.494   3.379  -8.322  0.00  0.00    -0.082 Cl
ATOM     18  C   UNL     1       4.282   4.841  -9.779  0.00  0.00    +0.011 A 
ATOM     19  C   UNL     1       4.897   6.036 -10.063  0.00  0.00    +0.001 A 
ATOM     20  C   UNL     1       4.203   7.229  -9.956  0.00  0.00    +0.000 A 
ATOM     21  C   UNL     1       3.101   7.212  -9.124  0.00  0.00    +0.002 A 
ENDBRANCH   6  15
TORSDOF 1
ENDMDL
MODEL 7
REMARK VINA RESULT:      -7.5      2.122      3.665
REMARK  Name = 
REMARK  1 active torsions:
REMARK  status: ('A' for Active; 'I' for Inactive)
REMARK    1  A    between atoms: C_11  and  C_12
REMARK                            x       y       z     vdW  Elec       q    Type
REMARK                         _______ _______ _______ _____ _____    ______ ____
ROOT
ATOM      1  O   UNL     1      -0.411   6.372 -11.066  0.00  0.00    -0.268 OA
ATOM      2  C   UNL     1       0.597   6.481 -10.444  0.00  0.00    +0.300 C 
ATOM      3  C   UNL     1       1.495   5.164 -10.820  0.00  0.00    +0.333 C 
ATOM      4  O   UNL     1       1.786   4.770  -9.351  0.00  0.00    -0.186 OA
ATOM      5  N   UNL     1       2.830   6.016 -11.037  0.00  0.00    -0.233 NA
ATOM      6  C   UNL     1       3.555   6.468 -10.115  0.00  0.00    +0.081 C 
ATOM      7  C   UNL     1       3.166   6.870  -8.775  0.00  0.00    +0.034 A 
ATOM      8  C   UNL     1       1.890   7.322  -8.450  0.00  0.00    +0.075 A 
ATOM      9  C   UNL     1       1.673   7.574  -7.124  0.00  0.00    +0.018 A 
ATOM     10  C   UNL     1       2.513   7.097  -6.125  0.00  0.00    +0.013 A 
ATOM     11  C   UNL     1       3.637   6.391  -6.496  0.00  0.00    +0.058 A 
ATOM     12 CL   UNL     1       4.189   5.084  -5.445  0.00  0.00    -0.082 Cl
ATOM     13  C   UNL     1       4.091   6.508  -7.803  0.00  0.00    +0.014 A 
ATOM     14  N   UNL     1       0.702   7.195  -9.244  0.00  0.00    -0.175 NA
ENDROOT
BRANCH   6  15
ATOM     15  C   UNL     1       5.001   6.568 -10.314  0.00  0.00    +0.028 A 
ATOM     16  C   UNL     1       5.779   5.565  -9.805  0.00  0.00    +0.059 A 
ATOM     17 CL   UNL     1       5.056   4.141  -9.116  0.00  0.00    -0.082 Cl
ATOM     18  C   UNL     1       7.148   5.784  -9.736  0.00  0.00    +0.011 A 
ATOM     19  C   UNL     1       7.630   7.013 -10.117  0.00  0.00    +0.001 A 
ATOM     20  C   UNL     1       6.910   7.813 -10.988  0.00  0.00    +0.000 A 
ATOM     21  C   UNL     1       5.553   7.563 -11.053  0.00  0.00    +0.002 A 
ENDBRANCH   6  15
TORSDOF 1
ENDMDL
MODEL 8
REMARK VINA RESULT:      -7.4      5.197      8.512
REMARK  Name = 
REMARK  1 active torsions:
REMARK  status: ('A' for Active; 'I' for Inactive)
REMARK    1  A    between atoms: C_11  and  C_12
REMARK                            x       y       z     vdW  Elec       q    Type
REMARK                         _______ _______ _______ _____ _____    ______ ____
ROOT
ATOM      1  O   UNL     1       2.218   4.080  -7.386  0.00  0.00    -0.268 OA
ATOM      2  C   UNL     1       2.096   4.554  -6.302  0.00  0.00    +0.300 C 
ATOM      3  C   UNL     1       1.131   5.862  -6.494  0.00  0.00    +0.333 C 
ATOM      4  O   UNL     1       2.069   6.837  -5.741  0.00  0.00    -0.186 OA
ATOM      5  N   UNL     1       0.218   5.495  -5.235  0.00  0.00    -0.233 NA
ATOM      6  C   UNL     1       0.535   5.684  -4.034  0.00  0.00    +0.081 C 
ATOM      7  C   UNL     1       1.861   5.692  -3.441  0.00  0.00    +0.034 A 
ATOM      8  C   UNL     1       2.940   4.986  -3.966  0.00  0.00    +0.075 A 
ATOM      9  C   UNL     1       4.135   5.178  -3.331  0.00  0.00    +0.018 A 
ATOM     10  C   UNL     1       4.360   6.239  -2.463  0.00  0.00    +0.013 A 
ATOM     11  C   UNL     1       3.315   7.097  -2.193  0.00  0.00    +0.058 A 
ATOM     12 CL   UNL     1       3.682   8.801  -1.910  0.00  0.00    -0.082 Cl
ATOM     13  C   UNL     1       2.021   6.672  -2.469  0.00  0.00    +0.014 A 
ATOM     14  N   UNL     1       3.037   4.406  -5.275  0.00  0.00    -0.175 NA
ENDROOT
BRANCH   6  15
ATOM     15  C   UNL     1      -0.501   6.013  -3.054  0.00  0.00    +0.028 A 
ATOM     16  C   UNL     1      -1.306   7.085  -3.323  0.00  0.00    +0.059 A 
ATOM     17 CL   UNL     1      -1.218   7.901  -4.857  0.00  0.00    -0.082 Cl
ATOM     18  C   UNL     1      -2.092   7.576  -2.290  0.00  0.00    +0.011 A 
ATOM     19  C   UNL     1      -1.963   7.004  -1.048  0.00  0.00    +0.001 A 
ATOM     20  C   UNL     1      -1.487   5.710  -0.914  0.00  0.00    +0.000 A 
ATOM     21  C   UNL     1      -0.724   5.238  -1.964  0.00  0.00    +0.002 A 
ENDBRANCH   6  15
TORSDOF 1
ENDMDL
MODEL 9
REMARK VINA RESULT:      -7.3      5.042      7.349
REMARK  Name = 
REMARK  1 active torsions:
REMARK  status: ('A' for Active; 'I' for Inactive)
REMARK    1  A    between atoms: C_11  and  C_12
REMARK                            x       y       z     vdW  Elec       q    Type
REMARK                         _______ _______ _______ _____ _____    ______ ____
ROOT
ATOM      1  O   UNL     1       4.995   5.381  -7.355  0.00  0.00    -0.268 OA
ATOM      2  C   UNL     1       4.281   5.757  -6.482  0.00  0.00    +0.300 C 
ATOM      3  C   UNL     1       4.630   4.818  -5.187  0.00  0.00    +0.333 C 
ATOM      4  O   UNL     1       3.159   4.437  -4.892  0.00  0.00    -0.186 OA
ATOM      5  N   UNL     1       4.691   6.059  -4.181  0.00  0.00    -0.233 NA
ATOM      6  C   UNL     1       3.690   6.651  -3.706  0.00  0.00    +0.081 C 
ATOM      7  C   UNL     1       2.374   6.819  -4.298  0.00  0.00    +0.034 A 
ATOM      8  C   UNL     1       2.146   6.825  -5.671  0.00  0.00    +0.075 A 
ATOM      9  C   UNL     1       0.835   6.905  -6.051  0.00  0.00    +0.018 A 
ATOM     10  C   UNL     1      -0.214   6.649  -5.177  0.00  0.00    +0.013 A 
ATOM     11  C   UNL     1       0.084   6.358  -3.863  0.00  0.00    +0.058 A 
ATOM     12 CL   UNL     1      -0.956   5.222  -3.000  0.00  0.00    -0.082 Cl
ATOM     13  C   UNL     1       1.339   6.701  -3.377  0.00  0.00    +0.014 A 
ATOM     14  N   UNL     1       3.048   6.385  -6.697  0.00  0.00    -0.175 NA
ENDROOT
BRANCH   6  15
ATOM     15  C   UNL     1       3.754   7.214  -2.356  0.00  0.00    +0.028 A 
ATOM     16  C   UNL     1       3.747   6.337  -1.306  0.00  0.00    +0.059 A 
ATOM     17 CL   UNL     1       3.847   4.623  -1.579  0.00  0.00    -0.082 Cl
ATOM     18  C   UNL     1       3.524   6.854  -0.038  0.00  0.00    +0.011 A 
ATOM     19  C   UNL     1       3.256   8.196   0.079  0.00  0.00    +0.001 A 
ATOM     20  C   UNL     1       3.675   9.086  -0.896  0.00  0.00    +0.000 A 
ATOM     21  C   UNL     1       3.909   8.544  -2.144  0.00  0.00    +0.002 A 
ENDBRANCH   6  15
TORSDOF 1
ENDMDL
