MODEL 1
REMARK VINA RESULT:      -7.6      0.000      0.000
REMARK  Name = 
REMARK  4 active torsions:
REMARK  status: ('A' for Active; 'I' for Inactive)
REMARK    1  A    between atoms: CA_3  and  C_4
REMARK    2  A    between atoms: CA_10  and  N_11
REMARK    3  A    between atoms: C_12  and  CA_14
REMARK    4  A    between atoms: CA_14  and  C_16
REMARK                            x       y       z     vdW  Elec       q    Type
REMARK                         _______ _______ _______ _____ _____    ______ ____
ROOT
ATOM      1  C   UNL     1      -0.659   5.704  -8.098  0.00  0.00    +0.029 C 
ATOM      2  C   UNL     1      -0.054   5.725  -6.777  0.00  0.00    -0.013 C 
ATOM      3  C   UNL     1       1.060   4.742  -6.565  0.00  0.00    +0.083 C 
ATOM      4  S   UNL     1       1.514   4.661  -4.797  0.00  0.00    -0.114 S 
ATOM      5  C   UNL     1       1.111   6.446  -4.256  0.00  0.00    +0.157 C 
ATOM      6  N   UNL     1      -0.383   6.176  -4.400  0.00  0.00    -0.242 N 
ATOM      7  C   UNL     1      -0.466   5.358  -3.205  0.00  0.00    +0.253 C 
ATOM      8  O   UNL     1      -1.413   4.909  -2.539  0.00  0.00    -0.273 OA
ATOM      9  CA  UNL     1       0.734   6.284  -2.607  0.00  0.00    +0.200 C 
ATOM     10  CA  UNL     1      -0.825   6.111  -5.758  0.00  0.00    +0.128 C 
ENDROOT
BRANCH   9  11
ATOM     11  N   UNL     1       1.708   5.046  -2.303  0.00  0.00    -0.194 NA
ATOM     12  C   UNL     1       2.332   5.240  -1.047  0.00  0.00    +0.264 C 
ATOM     13  O   UNL     1       1.893   5.904  -0.106  0.00  0.00    -0.271 OA
BRANCH  12  14
ATOM     14  CA  UNL     1       3.956   4.996  -1.050  0.00  0.00    +0.191 C 
ATOM     15  N   UNL     1       4.199   6.175   0.017  0.00  0.00    -0.118 NA
BRANCH  14  16
ATOM     16  C   UNL     1       4.181   6.014  -2.320  0.00  0.00    +0.004 A 
ATOM     17  C   UNL     1       4.375   7.318  -1.990  0.00  0.00    -0.002 A 
ATOM     18  C   UNL     1       4.701   8.163  -3.046  0.00  0.00    -0.000 A 
ATOM     19  C   UNL     1       4.972   7.624  -4.299  0.00  0.00    -0.000 A 
ATOM     20  C   UNL     1       5.070   6.245  -4.462  0.00  0.00    -0.000 A 
ATOM     21  C   UNL     1       4.816   5.406  -3.384  0.00  0.00    -0.002 A 
ENDBRANCH  14  16
ENDBRANCH  12  14
ENDBRANCH   9  11
BRANCH  10  22
ATOM     22  C   UNL     1      -2.277   6.259  -5.929  0.00  0.00    +0.401 C 
ATOM     23  OXT UNL     1      -2.918   7.441  -5.573  0.00  0.00    -0.239 OA
ATOM     24  O   UNL     1      -3.048   5.263  -6.075  0.00  0.00    -0.239 OA
ENDBRANCH  10  22
TORSDOF 4
ENDMDL
MODEL 2
REMARK VINA RESULT:      -7.5      6.665      8.749
REMARK  Name = 
REMARK  4 active torsions:
REMARK  status: ('A' for Active; 'I' for Inactive)
REMARK    1  A    between atoms: CA_3  and  C_4
REMARK    2  A    between atoms: CA_10  and  N_11
REMARK    3  A    between atoms: C_12  and  CA_14
REMARK    4  A    between atoms: CA_14  and  C_16
REMARK                            x       y       z     vdW  Elec       q    Type
REMARK                         _______ _______ _______ _____ _____    ______ ____
ROOT
ATOM      1  C   UNL     1       9.091   5.808 -12.022  0.00  0.00    +0.029 C 
ATOM      2  C   UNL     1       7.817   6.075 -11.375  0.00  0.00    -0.013 C 
ATOM      3  C   UNL     1       7.595   5.362 -10.073  0.00  0.00    +0.083 C 
ATOM      4  S   UNL     1       5.858   5.542  -9.534  0.00  0.00    -0.114 S 
ATOM      5  C   UNL     1       5.443   7.251 -10.274  0.00  0.00    +0.157 C 
ATOM      6  N   UNL     1       5.469   6.671 -11.684  0.00  0.00    -0.242 N 
ATOM      7  C   UNL     1       4.208   5.969 -11.542  0.00  0.00    +0.253 C 
ATOM      8  O   UNL     1       3.449   5.402 -12.344  0.00  0.00    -0.273 OA
ATOM      9  CA  UNL     1       3.765   7.172 -10.535  0.00  0.00    +0.200 C 
ATOM     10  CA  UNL     1       6.787   6.390 -12.163  0.00  0.00    +0.128 C 
ENDROOT
BRANCH   9  11
ATOM     11  N   UNL     1       3.423   6.191  -9.312  0.00  0.00    -0.194 NA
ATOM     12  C   UNL     1       2.274   6.670  -8.637  0.00  0.00    +0.264 C 
ATOM     13  O   UNL     1       1.377   7.366  -9.119  0.00  0.00    -0.271 OA
BRANCH  12  14
ATOM     14  CA  UNL     1       2.424   6.735  -7.003  0.00  0.00    +0.191 C 
ATOM     15  N   UNL     1       2.740   5.161  -6.906  0.00  0.00    -0.118 NA
BRANCH  14  16
ATOM     16  C   UNL     1       0.816   6.489  -6.771  0.00  0.00    +0.004 A 
ATOM     17  C   UNL     1       0.317   5.353  -7.325  0.00  0.00    -0.002 A 
ATOM     18  C   UNL     1      -1.010   5.069  -7.020  0.00  0.00    -0.000 A 
ATOM     19  C   UNL     1      -1.675   5.831  -6.066  0.00  0.00    -0.000 A 
ATOM     20  C   UNL     1      -0.978   6.770  -5.310  0.00  0.00    -0.000 A 
ATOM     21  C   UNL     1       0.367   6.998  -5.568  0.00  0.00    -0.002 A 
ENDBRANCH  14  16
ENDBRANCH  12  14
ENDBRANCH   9  11
BRANCH  10  22
ATOM     22  C   UNL     1       6.877   6.225 -13.620  0.00  0.00    +0.401 C 
ATOM     23  OXT UNL     1       6.703   7.310 -14.473  0.00  0.00    -0.239 OA
ATOM     24  O   UNL     1       6.779   5.091 -14.181  0.00  0.00    -0.239 OA
ENDBRANCH  10  22
TORSDOF 4
ENDMDL
MODEL 3
REMARK VINA RESULT:      -7.4      3.036      6.961
REMARK  Name = 
REMARK  4 active torsions:
REMARK  status: ('A' for Active; 'I' for Inactive)
REMARK    1  A    between atoms: CA_3  and  C_4
REMARK    2  A    between atoms: CA_10  and  N_11
REMARK    3  A    between atoms: C_12  and  CA_14
REMARK    4  A    between atoms: CA_14  and  C_16
REMARK                            x       y       z     vdW  Elec       q    Type
REMARK                         _______ _______ _______ _____ _____    ______ ____
ROOT
ATOM      1  C   UNL     1       4.799   7.047  -0.865  0.00  0.00    +0.029 C 
ATOM      2  C   UNL     1       4.372   6.668  -2.201  0.00  0.00    -0.013 C 
ATOM      3  C   UNL     1       4.278   7.793  -3.189  0.00  0.00    +0.083 C 
ATOM      4  S   UNL     1       3.446   7.236  -4.717  0.00  0.00    -0.114 S 
ATOM      5  C   UNL     1       3.966   5.400  -4.743  0.00  0.00    +0.157 C 
ATOM      6  N   UNL     1       3.066   5.105  -3.549  0.00  0.00    -0.242 N 
ATOM      7  C   UNL     1       1.835   5.192  -4.310  0.00  0.00    +0.253 C 
ATOM      8  O   UNL     1       0.656   4.887  -4.068  0.00  0.00    -0.273 OA
ATOM      9  CA  UNL     1       2.696   4.640  -5.578  0.00  0.00    +0.200 C 
ATOM     10  CA  UNL     1       3.579   5.600  -2.308  0.00  0.00    +0.128 C 
ENDROOT
BRANCH   9  11
ATOM     11  N   UNL     1       2.321   5.876  -6.530  0.00  0.00    -0.194 NA
ATOM     12  C   UNL     1       2.351   5.451  -7.881  0.00  0.00    +0.264 C 
ATOM     13  O   UNL     1       2.178   4.302  -8.291  0.00  0.00    -0.271 OA
BRANCH  12  14
ATOM     14  CA  UNL     1       3.178   6.450  -8.889  0.00  0.00    +0.191 C 
ATOM     15  N   UNL     1       2.403   7.748  -8.341  0.00  0.00    -0.118 NA
BRANCH  14  16
ATOM     16  C   UNL     1       2.095   6.240 -10.107  0.00  0.00    +0.004 A 
ATOM     17  C   UNL     1       0.889   6.837  -9.919  0.00  0.00    -0.002 A 
ATOM     18  C   UNL     1       0.016   6.780 -11.001  0.00  0.00    -0.000 A 
ATOM     19  C   UNL     1       0.466   6.291 -12.222  0.00  0.00    -0.000 A 
ATOM     20  C   UNL     1       1.815   6.007 -12.408  0.00  0.00    -0.000 A 
ATOM     21  C   UNL     1       2.698   6.137 -11.344  0.00  0.00    -0.002 A 
ENDBRANCH  14  16
ENDBRANCH  12  14
ENDBRANCH   9  11
BRANCH  10  22
ATOM     22  C   UNL     1       2.966   4.996  -1.118  0.00  0.00    +0.401 C 
ATOM     23  OXT UNL     1       3.447   3.798  -0.598  0.00  0.00    -0.239 OA
ATOM     24  O   UNL     1       1.809   5.322  -0.712  0.00  0.00    -0.239 OA
ENDBRANCH  10  22
TORSDOF 4
ENDMDL
MODEL 4
REMARK VINA RESULT:      -7.4      4.614      6.947
REMARK  Name = 
REMARK  4 active torsions:
REMARK  status: ('A' for Active; 'I' for Inactive)
REMARK    1  A    between atoms: CA_3  and  C_4
REMARK    2  A    between atoms: CA_10  and  N_11
REMARK    3  A    between atoms: C_12  and  CA_14
REMARK    4  A    between atoms: CA_14  and  C_16
REMARK                            x       y       z     vdW  Elec       q    Type
REMARK                         _______ _______ _______ _____ _____    ______ ____
ROOT
ATOM      1  C   UNL     1       2.507   6.106 -13.352  0.00  0.00    +0.029 C 
ATOM      2  C   UNL     1       2.032   5.813 -12.010  0.00  0.00    -0.013 C 
ATOM      3  C   UNL     1       0.635   6.269 -11.707  0.00  0.00    +0.083 C 
ATOM      4  S   UNL     1       0.285   6.117  -9.921  0.00  0.00    -0.114 S 
ATOM      5  C   UNL     1       1.388   4.624  -9.479  0.00  0.00    +0.157 C 
ATOM      6  N   UNL     1       2.643   5.467  -9.671  0.00  0.00    -0.242 N 
ATOM      7  C   UNL     1       2.464   6.220  -8.445  0.00  0.00    +0.253 C 
ATOM      8  O   UNL     1       3.192   6.990  -7.798  0.00  0.00    -0.273 OA
ATOM      9  CA  UNL     1       1.761   4.879  -7.841  0.00  0.00    +0.200 C 
ATOM     10  CA  UNL     1       2.948   5.737 -11.042  0.00  0.00    +0.128 C 
ENDROOT
BRANCH   9  11
ATOM     11  N   UNL     1       0.396   5.622  -7.442  0.00  0.00    -0.194 NA
ATOM     12  C   UNL     1       0.070   5.311  -6.099  0.00  0.00    +0.264 C 
ATOM     13  O   UNL     1       0.860   4.986  -5.210  0.00  0.00    -0.271 OA
BRANCH  12  14
ATOM     14  CA  UNL     1      -1.490   4.854  -5.867  0.00  0.00    +0.191 C 
ATOM     15  N   UNL     1      -2.035   5.969  -6.890  0.00  0.00    -0.118 NA
BRANCH  14  16
ATOM     16  C   UNL     1      -1.670   5.859  -4.579  0.00  0.00    +0.004 A 
ATOM     17  C   UNL     1      -1.743   7.181  -4.881  0.00  0.00    -0.002 A 
ATOM     18  C   UNL     1      -2.031   8.026  -3.814  0.00  0.00    -0.000 A 
ATOM     19  C   UNL     1      -2.387   7.483  -2.584  0.00  0.00    -0.000 A 
ATOM     20  C   UNL     1      -2.605   6.114  -2.460  0.00  0.00    -0.000 A 
ATOM     21  C   UNL     1      -2.388   5.282  -3.550  0.00  0.00    -0.002 A 
ENDBRANCH  14  16
ENDBRANCH  12  14
ENDBRANCH   9  11
BRANCH  10  22
ATOM     22  C   UNL     1       4.329   6.180 -11.277  0.00  0.00    +0.401 C 
ATOM     23  OXT UNL     1       5.324   5.266 -11.607  0.00  0.00    -0.239 OA
ATOM     24  O   UNL     1       4.757   7.307 -10.881  0.00  0.00    -0.239 OA
ENDBRANCH  10  22
TORSDOF 4
ENDMDL
MODEL 5
REMARK VINA RESULT:      -7.3      5.800      7.962
REMARK  Name = 
REMARK  4 active torsions:
REMARK  status: ('A' for Active; 'I' for Inactive)
REMARK    1  A    between atoms: CA_3  and  C_4
REMARK    2  A    between atoms: CA_10  and  N_11
REMARK    3  A    between atoms: C_12  and  CA_14
REMARK    4  A    between atoms: CA_14  and  C_16
REMARK                            x       y       z     vdW  Elec       q    Type
REMARK                         _______ _______ _______ _____ _____    ______ ____
ROOT
ATOM      1  C   UNL     1       3.062   5.013  -4.814  0.00  0.00    +0.029 C 
ATOM      2  C   UNL     1       3.183   5.052  -6.262  0.00  0.00    -0.013 C 
ATOM      3  C   UNL     1       4.488   5.577  -6.784  0.00  0.00    +0.083 C 
ATOM      4  S   UNL     1       4.390   5.858  -8.586  0.00  0.00    -0.114 S 
ATOM      5  C   UNL     1       3.136   4.506  -9.078  0.00  0.00    +0.157 C 
ATOM      6  N   UNL     1       2.010   5.270  -8.392  0.00  0.00    -0.242 N 
ATOM      7  C   UNL     1       1.928   6.294  -9.415  0.00  0.00    +0.253 C 
ATOM      8  O   UNL     1       1.106   7.191  -9.665  0.00  0.00    -0.273 OA
ATOM      9  CA  UNL     1       2.393   5.141 -10.468  0.00  0.00    +0.200 C 
ATOM     10  CA  UNL     1       2.058   5.203  -6.964  0.00  0.00    +0.128 C 
ENDROOT
BRANCH   9  11
ATOM     11  N   UNL     1       3.659   5.968 -11.006  0.00  0.00    -0.194 NA
ATOM     12  C   UNL     1       3.436   6.335 -12.356  0.00  0.00    +0.264 C 
ATOM     13  O   UNL     1       2.342   6.486 -12.903  0.00  0.00    -0.271 OA
BRANCH  12  14
ATOM     14  CA  UNL     1       4.698   6.026 -13.361  0.00  0.00    +0.191 C 
ATOM     15  N   UNL     1       4.625   4.446 -13.071  0.00  0.00    -0.118 NA
BRANCH  14  16
ATOM     16  C   UNL     1       5.803   6.257 -12.166  0.00  0.00    +0.004 A 
ATOM     17  C   UNL     1       6.740   5.280 -12.046  0.00  0.00    -0.002 A 
ATOM     18  C   UNL     1       7.755   5.533 -11.129  0.00  0.00    -0.000 A 
ATOM     19  C   UNL     1       7.854   6.788 -10.539  0.00  0.00    -0.000 A 
ATOM     20  C   UNL     1       7.041   7.831 -10.974  0.00  0.00    -0.000 A 
ATOM     21  C   UNL     1       6.076   7.592 -11.944  0.00  0.00    -0.002 A 
ENDBRANCH  14  16
ENDBRANCH  12  14
ENDBRANCH   9  11
BRANCH  10  22
ATOM     22  C   UNL     1       0.800   5.567  -6.299  0.00  0.00    +0.401 C 
ATOM     23  OXT UNL     1      -0.278   4.688  -6.283  0.00  0.00    -0.239 OA
ATOM     24  O   UNL     1       0.506   6.768  -6.014  0.00  0.00    -0.239 OA
ENDBRANCH  10  22
TORSDOF 4
ENDMDL
MODEL 6
REMARK VINA RESULT:      -7.3      3.627      4.668
REMARK  Name = 
REMARK  4 active torsions:
REMARK  status: ('A' for Active; 'I' for Inactive)
REMARK    1  A    between atoms: CA_3  and  C_4
REMARK    2  A    between atoms: CA_10  and  N_11
REMARK    3  A    between atoms: C_12  and  CA_14
REMARK    4  A    between atoms: CA_14  and  C_16
REMARK                            x       y       z     vdW  Elec       q    Type
REMARK                         _______ _______ _______ _____ _____    ______ ____
ROOT
ATOM      1  C   UNL     1       2.760   6.024 -12.605  0.00  0.00    +0.029 C 
ATOM      2  C   UNL     1       2.796   6.194 -11.162  0.00  0.00    -0.013 C 
ATOM      3  C   UNL     1       3.871   5.426 -10.450  0.00  0.00    +0.083 C 
ATOM      4  S   UNL     1       3.610   5.486  -8.643  0.00  0.00    -0.114 S 
ATOM      5  C   UNL     1       2.773   7.192  -8.472  0.00  0.00    +0.157 C 
ATOM      6  N   UNL     1       1.509   6.663  -9.140  0.00  0.00    -0.242 N 
ATOM      7  C   UNL     1       1.089   5.884  -7.991  0.00  0.00    +0.253 C 
ATOM      8  O   UNL     1       0.035   5.301  -7.690  0.00  0.00    -0.273 OA
ATOM      9  CA  UNL     1       1.814   7.024  -7.079  0.00  0.00    +0.200 C 
ATOM     10  CA  UNL     1       1.642   6.475 -10.552  0.00  0.00    +0.128 C 
ENDROOT
BRANCH   9  11
ATOM     11  N   UNL     1       2.764   5.984  -6.311  0.00  0.00    -0.194 NA
ATOM     12  C   UNL     1       3.057   6.485  -5.019  0.00  0.00    +0.264 C 
ATOM     13  O   UNL     1       2.366   7.266  -4.362  0.00  0.00    -0.271 OA
BRANCH  12  14
ATOM     14  CA  UNL     1       4.648   6.427  -4.613  0.00  0.00    +0.191 C 
ATOM     15  N   UNL     1       4.691   4.825  -4.756  0.00  0.00    -0.118 NA
BRANCH  14  16
ATOM     16  C   UNL     1       4.311   6.336  -3.008  0.00  0.00    +0.004 A 
ATOM     17  C   UNL     1       4.204   5.078  -2.507  0.00  0.00    -0.002 A 
ATOM     18  C   UNL     1       4.054   4.991  -1.127  0.00  0.00    -0.000 A 
ATOM     19  C   UNL     1       4.192   6.134  -0.347  0.00  0.00    -0.000 A 
ATOM     20  C   UNL     1       4.628   7.324  -0.921  0.00  0.00    -0.000 A 
ATOM     21  C   UNL     1       4.848   7.387  -2.290  0.00  0.00    -0.002 A 
ENDBRANCH  14  16
ENDBRANCH  12  14
ENDBRANCH   9  11
BRANCH  10  22
ATOM     22  C   UNL     1       0.366   6.365 -11.270  0.00  0.00    +0.401 C 
ATOM     23  OXT UNL     1      -0.354   7.502 -11.624  0.00  0.00    -0.239 OA
ATOM     24  O   UNL     1      -0.300   5.285 -11.307  0.00  0.00    -0.239 OA
ENDBRANCH  10  22
TORSDOF 4
ENDMDL
MODEL 7
REMARK VINA RESULT:      -7.2      4.919      7.252
REMARK  Name = 
REMARK  4 active torsions:
REMARK  status: ('A' for Active; 'I' for Inactive)
REMARK    1  A    between atoms: CA_3  and  C_4
REMARK    2  A    between atoms: CA_10  and  N_11
REMARK    3  A    between atoms: C_12  and  CA_14
REMARK    4  A    between atoms: CA_14  and  C_16
REMARK                            x       y       z     vdW  Elec       q    Type
REMARK                         _______ _______ _______ _____ _____    ______ ____
ROOT
ATOM      1  C   UNL     1       4.453   5.640 -13.822  0.00  0.00    +0.029 C 
ATOM      2  C   UNL     1       3.679   5.780 -12.599  0.00  0.00    -0.013 C 
ATOM      3  C   UNL     1       4.391   5.384 -11.339  0.00  0.00    +0.083 C 
ATOM      4  S   UNL     1       3.221   5.315  -9.937  0.00  0.00    -0.114 S 
ATOM      5  C   UNL     1       1.969   6.654 -10.467  0.00  0.00    +0.157 C 
ATOM      6  N   UNL     1       1.455   5.760 -11.590  0.00  0.00    -0.242 N 
ATOM      7  C   UNL     1       0.742   4.861 -10.704  0.00  0.00    +0.253 C 
ATOM      8  O   UNL     1      -0.094   3.962 -10.887  0.00  0.00    -0.273 OA
ATOM      9  CA  UNL     1       0.520   6.153  -9.735  0.00  0.00    +0.200 C 
ATOM     10  CA  UNL     1       2.354   5.659 -12.699  0.00  0.00    +0.128 C 
ENDROOT
BRANCH   9  11
ATOM     11  N   UNL     1       1.181   5.458  -8.448  0.00  0.00    -0.194 NA
ATOM     12  C   UNL     1       0.294   5.571  -7.349  0.00  0.00    +0.264 C 
ATOM     13  O   UNL     1      -0.932   5.687  -7.407  0.00  0.00    -0.271 OA
BRANCH  12  14
ATOM     14  CA  UNL     1       0.995   6.098  -5.961  0.00  0.00    +0.191 C 
ATOM     15  N   UNL     1       1.123   4.603  -5.383  0.00  0.00    -0.118 NA
BRANCH  14  16
ATOM     16  C   UNL     1      -0.457   6.324  -5.226  0.00  0.00    +0.004 A 
ATOM     17  C   UNL     1      -0.796   5.379  -4.310  0.00  0.00    -0.002 A 
ATOM     18  C   UNL     1      -1.957   5.633  -3.587  0.00  0.00    -0.000 A 
ATOM     19  C   UNL     1      -2.586   6.868  -3.707  0.00  0.00    -0.000 A 
ATOM     20  C   UNL     1      -1.979   7.895  -4.424  0.00  0.00    -0.000 A 
ATOM     21  C   UNL     1      -0.781   7.658  -5.084  0.00  0.00    -0.002 A 
ENDBRANCH  14  16
ENDBRANCH  12  14
ENDBRANCH   9  11
BRANCH  10  22
ATOM     22  C   UNL     1       1.735   5.158 -13.933  0.00  0.00    +0.401 C 
ATOM     23  OXT UNL     1       1.227   6.038 -14.884  0.00  0.00    -0.239 OA
ATOM     24  O   UNL     1       1.332   3.961 -14.053  0.00  0.00    -0.239 OA
ENDBRANCH  10  22
TORSDOF 4
ENDMDL
MODEL 8
REMARK VINA RESULT:      -7.2      2.571      3.308
REMARK  Name = 
REMARK  4 active torsions:
REMARK  status: ('A' for Active; 'I' for Inactive)
REMARK    1  A    between atoms: CA_3  and  C_4
REMARK    2  A    between atoms: CA_10  and  N_11
REMARK    3  A    between atoms: C_12  and  CA_14
REMARK    4  A    between atoms: CA_14  and  C_16
REMARK                            x       y       z     vdW  Elec       q    Type
REMARK                         _______ _______ _______ _____ _____    ______ ____
ROOT
ATOM      1  C   UNL     1       3.191   5.213 -10.549  0.00  0.00    +0.029 C 
ATOM      2  C   UNL     1       2.753   5.365  -9.172  0.00  0.00    -0.013 C 
ATOM      3  C   UNL     1       3.307   4.359  -8.206  0.00  0.00    +0.083 C 
ATOM      4  S   UNL     1       2.447   4.474  -6.598  0.00  0.00    -0.114 S 
ATOM      5  C   UNL     1       2.007   6.330  -6.575  0.00  0.00    +0.157 C 
ATOM      6  N   UNL     1       0.976   6.123  -7.679  0.00  0.00    -0.242 N 
ATOM      7  C   UNL     1       0.016   5.464  -6.815  0.00  0.00    +0.253 C 
ATOM      8  O   UNL     1      -1.179   5.150  -6.944  0.00  0.00    -0.273 OA
ATOM      9  CA  UNL     1       0.607   6.394  -5.614  0.00  0.00    +0.200 C 
ATOM     10  CA  UNL     1       1.553   5.913  -8.971  0.00  0.00    +0.128 C 
ENDROOT
BRANCH   9  11
ATOM     11  N   UNL     1       0.967   5.153  -4.662  0.00  0.00    -0.194 NA
ATOM     12  C   UNL     1       0.599   5.465  -3.330  0.00  0.00    +0.264 C 
ATOM     13  O   UNL     1      -0.277   6.259  -2.979  0.00  0.00    -0.271 OA
BRANCH  12  14
ATOM     14  CA  UNL     1       1.757   5.141  -2.212  0.00  0.00    +0.191 C 
ATOM     15  N   UNL     1       1.436   6.490  -1.396  0.00  0.00    -0.118 NA
BRANCH  14  16
ATOM     16  C   UNL     1       2.925   5.882  -3.099  0.00  0.00    +0.004 A 
ATOM     17  C   UNL     1       3.044   7.221  -2.899  0.00  0.00    -0.002 A 
ATOM     18  C   UNL     1       4.115   7.832  -3.541  0.00  0.00    -0.000 A 
ATOM     19  C   UNL     1       5.070   7.049  -4.183  0.00  0.00    -0.000 A 
ATOM     20  C   UNL     1       5.040   5.664  -4.053  0.00  0.00    -0.000 A 
ATOM     21  C   UNL     1       4.007   5.061  -3.347  0.00  0.00    -0.002 A 
ENDBRANCH  14  16
ENDBRANCH  12  14
ENDBRANCH   9  11
BRANCH  10  22
ATOM     22  C   UNL     1       0.622   6.115 -10.088  0.00  0.00    +0.401 C 
ATOM     23  OXT UNL     1       0.349   7.392 -10.568  0.00  0.00    -0.239 OA
ATOM     24  O   UNL     1      -0.213   5.228 -10.443  0.00  0.00    -0.239 OA
ENDBRANCH  10  22
TORSDOF 4
ENDMDL
MODEL 9
REMARK VINA RESULT:      -7.2      3.457      5.173
REMARK  Name = 
REMARK  4 active torsions:
REMARK  status: ('A' for Active; 'I' for Inactive)
REMARK    1  A    between atoms: CA_3  and  C_4
REMARK    2  A    between atoms: CA_10  and  N_11
REMARK    3  A    between atoms: C_12  and  CA_14
REMARK    4  A    between atoms: CA_14  and  C_16
REMARK                            x       y       z     vdW  Elec       q    Type
REMARK                         _______ _______ _______ _____ _____    ______ ____
ROOT
ATOM      1  C   UNL     1      -3.873   6.110  -3.119  0.00  0.00    +0.029 C 
ATOM      2  C   UNL     1      -2.568   6.230  -3.748  0.00  0.00    -0.013 C 
ATOM      3  C   UNL     1      -2.375   5.410  -4.990  0.00  0.00    +0.083 C 
ATOM      4  S   UNL     1      -0.619   5.415  -5.493  0.00  0.00    -0.114 S 
ATOM      5  C   UNL     1      -0.085   7.135  -4.864  0.00  0.00    +0.157 C 
ATOM      6  N   UNL     1      -0.188   6.663  -3.418  0.00  0.00    -0.242 N 
ATOM      7  C   UNL     1       1.016   5.857  -3.476  0.00  0.00    +0.253 C 
ATOM      8  O   UNL     1       1.711   5.292  -2.616  0.00  0.00    -0.273 OA
ATOM      9  CA  UNL     1       1.575   6.946  -4.553  0.00  0.00    +0.200 C 
ATOM     10  CA  UNL     1      -1.534   6.520  -2.956  0.00  0.00    +0.128 C 
ENDROOT
BRANCH   9  11
ATOM     11  N   UNL     1       1.865   5.855  -5.693  0.00  0.00    -0.194 NA
ATOM     12  C   UNL     1       2.766   6.399  -6.641  0.00  0.00    +0.264 C 
ATOM     13  O   UNL     1       3.592   7.291  -6.438  0.00  0.00    -0.271 OA
BRANCH  12  14
ATOM     14  CA  UNL     1       2.314   6.189  -8.206  0.00  0.00    +0.191 C 
ATOM     15  N   UNL     1       2.332   4.587  -8.063  0.00  0.00    -0.118 NA
BRANCH  14  16
ATOM     16  C   UNL     1       3.869   6.221  -8.737  0.00  0.00    +0.004 A 
ATOM     17  C   UNL     1       4.637   5.170  -8.345  0.00  0.00    -0.002 A 
ATOM     18  C   UNL     1       5.912   5.119  -8.900  0.00  0.00    -0.000 A 
ATOM     19  C   UNL     1       6.257   6.006  -9.914  0.00  0.00    -0.000 A 
ATOM     20  C   UNL     1       5.292   6.834 -10.478  0.00  0.00    -0.000 A 
ATOM     21  C   UNL     1       3.999   6.828  -9.970  0.00  0.00    -0.002 A 
ENDBRANCH  14  16
ENDBRANCH  12  14
ENDBRANCH   9  11
BRANCH  10  22
ATOM     22  C   UNL     1      -1.668   6.468  -1.494  0.00  0.00    +0.401 C 
ATOM     23  OXT UNL     1      -1.791   7.635  -0.748  0.00  0.00    -0.239 OA
ATOM     24  O   UNL     1      -1.351   5.441  -0.821  0.00  0.00    -0.239 OA
ENDBRANCH  10  22
TORSDOF 4
ENDMDL
