MODEL 1
REMARK VINA RESULT:      -9.0      0.000      0.000
REMARK  Name = 
REMARK  15 active torsions:
REMARK  status: ('A' for Active; 'I' for Inactive)
REMARK    1  A    between atoms: C_2  and  C_3
REMARK    2  A    between atoms: C_3  and  O_5
REMARK    3  A    between atoms: O_5  and  C_6
REMARK    4  A    between atoms: C_6  and  O_7
REMARK    5  A    between atoms: C_6  and  C_37
REMARK    6  A    between atoms: O_7  and  P_8
REMARK    7  A    between atoms: P_8  and  C_10
REMARK    8  A    between atoms: P_8  and  C_20
REMARK    9  A    between atoms: C_10  and  C_11
REMARK   10  A    between atoms: C_11  and  C_12
REMARK   11  A    between atoms: C_12  and  C_13
REMARK   12  A    between atoms: C_13  and  C_14
REMARK   13  A    between atoms: C_20  and  C_21
REMARK   14  A    between atoms: C_25  and  C_26
REMARK   15  A    between atoms: C_33  and  C_34
REMARK                            x       y       z     vdW  Elec       q    Type
REMARK                         _______ _______ _______ _____ _____    ______ ____
ROOT
ATOM      1  P   UNL     1       2.610   6.037  -6.051  0.00  0.00    +0.234 P 
ATOM      2  O   UNL     1       1.835   6.982  -5.262  0.00  0.00    -0.289 OA
ENDROOT
BRANCH   1   3
ATOM      3  C   UNL     1       3.686   5.195  -4.834  0.00  0.00    +0.172 C 
BRANCH   3   4
ATOM      4  C   UNL     1       4.610   6.074  -4.117  0.00  0.00    +0.236 C 
ATOM      5  N   UNL     1       4.155   6.577  -2.844  0.00  0.00    -0.271 N 
ATOM      6  C   UNL     1       4.032   5.377  -1.795  0.00  0.00    +0.179 C 
ATOM      7  C   UNL     1       4.368   6.341  -0.468  0.00  0.00    +0.033 C 
ATOM      8  C   UNL     1       3.284   7.501  -0.926  0.00  0.00    +0.022 C 
ATOM      9  C   UNL     1       4.273   7.787  -2.214  0.00  0.00    +0.094 C 
ATOM     10  O   UNL     1       5.151   6.947  -4.867  0.00  0.00    -0.274 OA
BRANCH   8  11
ATOM     11  C   UNL     1       3.976   8.696  -0.022  0.00  0.00    +0.002 C 
ATOM     12  C   UNL     1       3.200   9.940  -0.320  0.00  0.00    +0.000 C 
ATOM     13  C   UNL     1       2.003   9.918   0.624  0.00  0.00    +0.000 C 
ATOM     14  C   UNL     1       2.480  10.071   2.030  0.00  0.00    +0.000 C 
ATOM     15  C   UNL     1       3.782   9.375   2.319  0.00  0.00    +0.000 C 
ATOM     16  C   UNL     1       4.083   8.269   1.361  0.00  0.00    +0.000 C 
ENDBRANCH   8  11
BRANCH   6  17
ATOM     17  C   UNL     1       2.407   5.539  -1.590  0.00  0.00    +0.382 C 
ATOM     18  O   UNL     1       2.068   4.805  -0.447  0.00  0.00    -0.244 OA
ATOM     19  O   UNL     1       1.726   5.338  -2.592  0.00  0.00    -0.244 OA
ENDBRANCH   6  17
ENDBRANCH   3   4
ENDBRANCH   1   3
BRANCH   1  20
ATOM     20  O   UNL     1       3.481   6.279  -7.312  0.00  0.00    -0.276 OA
BRANCH  20  21
ATOM     21  C   UNL     1       3.142   5.533  -8.633  0.00  0.00    +0.295 C 
BRANCH  21  22
ATOM     22  C   UNL     1       4.607   6.017  -9.360  0.00  0.00    +0.071 C 
ATOM     23  C   UNL     1       4.538   5.265 -10.691  0.00  0.00    +0.006 C 
ATOM     24  C   UNL     1       5.632   5.234  -8.550  0.00  0.00    +0.006 C 
ENDBRANCH  21  22
BRANCH  21  25
ATOM     25  O   UNL     1       2.378   6.768  -9.281  0.00  0.00    -0.424 OA
BRANCH  25  26
ATOM     26  C   UNL     1       1.224   6.351  -9.905  0.00  0.00    +0.319 C 
ATOM     27  O   UNL     1       0.426   7.256 -10.249  0.00  0.00    -0.250 OA
BRANCH  26  29
ATOM     28  C   UNL     1       0.210   4.855 -11.367  0.00  0.00    +0.012 C 
ATOM     29  C   UNL     1       0.764   4.942 -10.033  0.00  0.00    +0.110 C 
ENDBRANCH  26  29
ENDBRANCH  25  26
ENDBRANCH  21  25
ENDBRANCH  20  21
ENDBRANCH   1  20
BRANCH   1  30
ATOM     30  C   UNL     1       1.361   4.764  -6.518  0.00  0.00    +0.088 C 
BRANCH  30  31
ATOM     31  C   UNL     1       0.022   5.017  -5.882  0.00  0.00    +0.011 C 
BRANCH  31  32
ATOM     32  C   UNL     1      -1.010   5.594  -6.789  0.00  0.00    +0.005 C 
BRANCH  32  33
ATOM     33  C   UNL     1      -2.425   5.415  -6.325  0.00  0.00    +0.026 C 
BRANCH  33  34
ATOM     34  C   UNL     1      -2.750   6.125  -5.075  0.00  0.00    -0.022 A 
ATOM     35  C   UNL     1      -2.320   7.448  -4.997  0.00  0.00    -0.004 A 
ATOM     36  C   UNL     1      -2.040   8.079  -3.817  0.00  0.00    -0.000 A 
ATOM     37  C   UNL     1      -2.093   7.351  -2.639  0.00  0.00    -0.000 A 
ATOM     38  C   UNL     1      -2.443   6.010  -2.677  0.00  0.00    -0.000 A 
ATOM     39  C   UNL     1      -2.867   5.478  -3.855  0.00  0.00    -0.004 A 
ENDBRANCH  33  34
ENDBRANCH  32  33
ENDBRANCH  31  32
ENDBRANCH  30  31
ENDBRANCH   1  30
TORSDOF 15
ENDMDL
MODEL 2
REMARK VINA RESULT:      -8.9      3.706     11.153
REMARK  Name = 
REMARK  15 active torsions:
REMARK  status: ('A' for Active; 'I' for Inactive)
REMARK    1  A    between atoms: C_2  and  C_3
REMARK    2  A    between atoms: C_3  and  O_5
REMARK    3  A    between atoms: O_5  and  C_6
REMARK    4  A    between atoms: C_6  and  O_7
REMARK    5  A    between atoms: C_6  and  C_37
REMARK    6  A    between atoms: O_7  and  P_8
REMARK    7  A    between atoms: P_8  and  C_10
REMARK    8  A    between atoms: P_8  and  C_20
REMARK    9  A    between atoms: C_10  and  C_11
REMARK   10  A    between atoms: C_11  and  C_12
REMARK   11  A    between atoms: C_12  and  C_13
REMARK   12  A    between atoms: C_13  and  C_14
REMARK   13  A    between atoms: C_20  and  C_21
REMARK   14  A    between atoms: C_25  and  C_26
REMARK   15  A    between atoms: C_33  and  C_34
REMARK                            x       y       z     vdW  Elec       q    Type
REMARK                         _______ _______ _______ _____ _____    ______ ____
ROOT
ATOM      1  P   UNL     1       2.422   6.212  -8.876  0.00  0.00    +0.234 P 
ATOM      2  O   UNL     1       3.235   7.104  -9.687  0.00  0.00    -0.289 OA
ENDROOT
BRANCH   1   3
ATOM      3  C   UNL     1       1.598   5.113 -10.084  0.00  0.00    +0.172 C 
BRANCH   3   4
ATOM      4  C   UNL     1       0.501   5.731 -10.830  0.00  0.00    +0.236 C 
ATOM      5  N   UNL     1       0.812   6.188 -12.162  0.00  0.00    -0.271 N 
ATOM      6  C   UNL     1       1.130   4.939 -13.108  0.00  0.00    +0.179 C 
ATOM      7  C   UNL     1       0.576   5.693 -14.495  0.00  0.00    +0.033 C 
ATOM      8  C   UNL     1       1.431   7.074 -14.193  0.00  0.00    +0.022 C 
ATOM      9  C   UNL     1       0.445   7.290 -12.889  0.00  0.00    +0.094 C 
ATOM     10  O   UNL     1      -0.174   6.554 -10.134  0.00  0.00    -0.274 OA
BRANCH   8  11
ATOM     11  C   UNL     1       0.496   8.027 -15.164  0.00  0.00    +0.002 C 
ATOM     12  C   UNL     1       1.442   8.933 -15.887  0.00  0.00    +0.000 C 
ATOM     13  C   UNL     1       1.913   8.151 -17.107  0.00  0.00    +0.000 C 
ATOM     14  C   UNL     1       0.764   7.948 -18.038  0.00  0.00    +0.000 C 
ATOM     15  C   UNL     1      -0.551   7.704 -17.350  0.00  0.00    +0.000 C 
ATOM     16  C   UNL     1      -0.399   7.200 -15.951  0.00  0.00    +0.000 C 
ENDBRANCH   8  11
BRANCH   6  17
ATOM     17  C   UNL     1       2.688   5.384 -13.404  0.00  0.00    +0.382 C 
ATOM     18  O   UNL     1       3.129   4.616 -14.488  0.00  0.00    -0.244 OA
ATOM     19  O   UNL     1       3.423   5.417 -12.421  0.00  0.00    -0.244 OA
ENDBRANCH   6  17
ENDBRANCH   3   4
ENDBRANCH   1   3
BRANCH   1  20
ATOM     20  O   UNL     1       1.361   6.547  -7.794  0.00  0.00    -0.276 OA
BRANCH  20  21
ATOM     21  C   UNL     1       1.345   5.748  -6.460  0.00  0.00    +0.295 C 
BRANCH  21  22
ATOM     22  C   UNL     1      -0.290   6.134  -6.171  0.00  0.00    +0.071 C 
ATOM     23  C   UNL     1      -0.487   5.549  -4.771  0.00  0.00    +0.006 C 
ATOM     24  C   UNL     1      -1.010   5.150  -7.083  0.00  0.00    +0.006 C 
ENDBRANCH  21  22
BRANCH  21  25
ATOM     25  O   UNL     1       1.823   6.978  -5.573  0.00  0.00    -0.424 OA
BRANCH  25  26
ATOM     26  C   UNL     1       3.038   6.708  -4.983  0.00  0.00    +0.319 C 
ATOM     27  O   UNL     1       3.960   7.526  -5.220  0.00  0.00    -0.250 OA
BRANCH  26  29
ATOM     28  C   UNL     1       4.835   5.508  -4.127  0.00  0.00    +0.012 C 
ATOM     29  C   UNL     1       3.396   5.457  -4.261  0.00  0.00    +0.110 C 
ENDBRANCH  26  29
ENDBRANCH  25  26
ENDBRANCH  21  25
ENDBRANCH  20  21
ENDBRANCH   1  20
BRANCH   1  30
ATOM     30  C   UNL     1       3.675   5.136  -8.058  0.00  0.00    +0.088 C 
BRANCH  30  31
ATOM     31  C   UNL     1       5.045   5.758  -8.052  0.00  0.00    +0.011 C 
BRANCH  31  32
ATOM     32  C   UNL     1       6.018   5.155  -9.007  0.00  0.00    +0.005 C 
BRANCH  32  33
ATOM     33  C   UNL     1       7.300   5.916  -9.162  0.00  0.00    +0.026 C 
BRANCH  33  34
ATOM     34  C   UNL     1       7.594   6.339 -10.542  0.00  0.00    -0.022 A 
ATOM     35  C   UNL     1       6.732   7.290 -11.085  0.00  0.00    -0.004 A 
ATOM     36  C   UNL     1       6.492   7.410 -12.425  0.00  0.00    -0.000 A 
ATOM     37  C   UNL     1       7.058   6.489 -13.292  0.00  0.00    -0.000 A 
ATOM     38  C   UNL     1       7.863   5.478 -12.788  0.00  0.00    -0.000 A 
ATOM     39  C   UNL     1       8.196   5.503 -11.470  0.00  0.00    -0.004 A 
ENDBRANCH  33  34
ENDBRANCH  32  33
ENDBRANCH  31  32
ENDBRANCH  30  31
ENDBRANCH   1  30
TORSDOF 15
ENDMDL
MODEL 3
REMARK VINA RESULT:      -8.7      1.440      2.595
REMARK  Name = 
REMARK  15 active torsions:
REMARK  status: ('A' for Active; 'I' for Inactive)
REMARK    1  A    between atoms: C_2  and  C_3
REMARK    2  A    between atoms: C_3  and  O_5
REMARK    3  A    between atoms: O_5  and  C_6
REMARK    4  A    between atoms: C_6  and  O_7
REMARK    5  A    between atoms: C_6  and  C_37
REMARK    6  A    between atoms: O_7  and  P_8
REMARK    7  A    between atoms: P_8  and  C_10
REMARK    8  A    between atoms: P_8  and  C_20
REMARK    9  A    between atoms: C_10  and  C_11
REMARK   10  A    between atoms: C_11  and  C_12
REMARK   11  A    between atoms: C_12  and  C_13
REMARK   12  A    between atoms: C_13  and  C_14
REMARK   13  A    between atoms: C_20  and  C_21
REMARK   14  A    between atoms: C_25  and  C_26
REMARK   15  A    between atoms: C_33  and  C_34
REMARK                            x       y       z     vdW  Elec       q    Type
REMARK                         _______ _______ _______ _____ _____    ______ ____
ROOT
ATOM      1  P   UNL     1       2.405   6.318  -7.256  0.00  0.00    +0.234 P 
ATOM      2  O   UNL     1       2.946   7.580  -6.776  0.00  0.00    -0.289 OA
ENDROOT
BRANCH   1   3
ATOM      3  C   UNL     1       2.876   5.099  -5.977  0.00  0.00    +0.172 C 
BRANCH   3   4
ATOM      4  C   UNL     1       4.045   5.466  -5.177  0.00  0.00    +0.236 C 
ATOM      5  N   UNL     1       3.778   6.028  -3.875  0.00  0.00    -0.271 N 
ATOM      6  C   UNL     1       3.120   4.921  -2.927  0.00  0.00    +0.179 C 
ATOM      7  C   UNL     1       3.760   5.570  -1.523  0.00  0.00    +0.033 C 
ATOM      8  C   UNL     1       3.274   7.103  -1.904  0.00  0.00    +0.022 C 
ATOM      9  C   UNL     1       4.354   7.036  -3.149  0.00  0.00    +0.094 C 
ATOM     10  O   UNL     1       4.933   6.083  -5.846  0.00  0.00    -0.274 OA
BRANCH   8  11
ATOM     11  C   UNL     1       4.354   7.840  -0.897  0.00  0.00    +0.002 C 
ATOM     12  C   UNL     1       3.631   9.009  -0.303  0.00  0.00    +0.000 C 
ATOM     13  C   UNL     1       2.877   8.461   0.903  0.00  0.00    +0.000 C 
ATOM     14  C   UNL     1       3.858   8.028   1.942  0.00  0.00    +0.000 C 
ATOM     15  C   UNL     1       5.109   7.403   1.387  0.00  0.00    +0.000 C 
ATOM     16  C   UNL     1       4.933   6.863   0.005  0.00  0.00    +0.000 C 
ENDBRANCH   8  11
BRANCH   6  17
ATOM     17  C   UNL     1       1.699   5.730  -2.737  0.00  0.00    +0.382 C 
ATOM     18  O   UNL     1       1.079   5.198  -1.599  0.00  0.00    -0.244 OA
ATOM     19  O   UNL     1       1.005   5.822  -3.745  0.00  0.00    -0.244 OA
ENDBRANCH   6  17
ENDBRANCH   3   4
ENDBRANCH   1   3
BRANCH   1  20
ATOM     20  O   UNL     1       2.598   5.614  -8.625  0.00  0.00    -0.276 OA
BRANCH  20  21
ATOM     21  C   UNL     1       3.122   6.429  -9.841  0.00  0.00    +0.295 C 
BRANCH  21  22
ATOM     22  C   UNL     1       2.033   5.664 -10.907  0.00  0.00    +0.071 C 
ATOM     23  C   UNL     1       2.614   6.074 -12.263  0.00  0.00    +0.006 C 
ATOM     24  C   UNL     1       0.791   6.533 -10.764  0.00  0.00    +0.006 C 
ENDBRANCH  21  22
BRANCH  21  25
ATOM     25  O   UNL     1       4.263   5.386 -10.208  0.00  0.00    -0.424 OA
BRANCH  25  26
ATOM     26  C   UNL     1       5.508   5.938 -10.009  0.00  0.00    +0.319 C 
ATOM     27  O   UNL     1       6.114   5.572  -8.973  0.00  0.00    -0.250 OA
BRANCH  26  29
ATOM     28  C   UNL     1       7.526   6.960 -10.548  0.00  0.00    +0.012 C 
ATOM     29  C   UNL     1       6.104   7.050 -10.798  0.00  0.00    +0.110 C 
ENDBRANCH  26  29
ENDBRANCH  25  26
ENDBRANCH  21  25
ENDBRANCH  20  21
ENDBRANCH   1  20
BRANCH   1  30
ATOM     30  C   UNL     1       0.587   6.536  -7.036  0.00  0.00    +0.088 C 
BRANCH  30  31
ATOM     31  C   UNL     1      -0.188   5.315  -7.450  0.00  0.00    +0.011 C 
BRANCH  31  32
ATOM     32  C   UNL     1      -1.316   4.946  -6.548  0.00  0.00    +0.005 C 
BRANCH  32  33
ATOM     33  C   UNL     1      -2.370   6.003  -6.396  0.00  0.00    +0.026 C 
BRANCH  33  34
ATOM     34  C   UNL     1      -2.707   6.330  -5.000  0.00  0.00    -0.022 A 
ATOM     35  C   UNL     1      -2.239   7.555  -4.531  0.00  0.00    -0.004 A 
ATOM     36  C   UNL     1      -1.972   7.805  -3.213  0.00  0.00    -0.000 A 
ATOM     37  C   UNL     1      -2.081   6.768  -2.300  0.00  0.00    -0.000 A 
ATOM     38  C   UNL     1      -2.470   5.510  -2.735  0.00  0.00    -0.000 A 
ATOM     39  C   UNL     1      -2.878   5.360  -4.024  0.00  0.00    -0.004 A 
ENDBRANCH  33  34
ENDBRANCH  32  33
ENDBRANCH  31  32
ENDBRANCH  30  31
ENDBRANCH   1  30
TORSDOF 15
ENDMDL
MODEL 4
REMARK VINA RESULT:      -8.7      2.735      8.864
REMARK  Name = 
REMARK  15 active torsions:
REMARK  status: ('A' for Active; 'I' for Inactive)
REMARK    1  A    between atoms: C_2  and  C_3
REMARK    2  A    between atoms: C_3  and  O_5
REMARK    3  A    between atoms: O_5  and  C_6
REMARK    4  A    between atoms: C_6  and  O_7
REMARK    5  A    between atoms: C_6  and  C_37
REMARK    6  A    between atoms: O_7  and  P_8
REMARK    7  A    between atoms: P_8  and  C_10
REMARK    8  A    between atoms: P_8  and  C_20
REMARK    9  A    between atoms: C_10  and  C_11
REMARK   10  A    between atoms: C_11  and  C_12
REMARK   11  A    between atoms: C_12  and  C_13
REMARK   12  A    between atoms: C_13  and  C_14
REMARK   13  A    between atoms: C_20  and  C_21
REMARK   14  A    between atoms: C_25  and  C_26
REMARK   15  A    between atoms: C_33  and  C_34
REMARK                            x       y       z     vdW  Elec       q    Type
REMARK                         _______ _______ _______ _____ _____    ______ ____
ROOT
ATOM      1  P   UNL     1       1.419   5.808  -5.373  0.00  0.00    +0.234 P 
ATOM      2  O   UNL     1       2.318   4.962  -4.604  0.00  0.00    -0.289 OA
ENDROOT
BRANCH   1   3
ATOM      3  C   UNL     1       2.519   6.997  -6.222  0.00  0.00    +0.172 C 
BRANCH   3   4
ATOM      4  C   UNL     1       2.237   7.189  -7.646  0.00  0.00    +0.236 C 
ATOM      5  N   UNL     1       3.292   6.826  -8.560  0.00  0.00    -0.271 N 
ATOM      6  C   UNL     1       3.523   5.244  -8.526  0.00  0.00    +0.179 C 
ATOM      7  C   UNL     1       4.029   5.162 -10.119  0.00  0.00    +0.033 C 
ATOM      8  C   UNL     1       5.086   6.419  -9.941  0.00  0.00    +0.022 C 
ATOM      9  C   UNL     1       3.763   7.379  -9.721  0.00  0.00    +0.094 C 
ATOM     10  O   UNL     1       1.680   8.304  -7.897  0.00  0.00    -0.274 OA
BRANCH   8  11
ATOM     11  C   UNL     1       5.166   6.757 -11.555  0.00  0.00    +0.002 C 
ATOM     12  C   UNL     1       6.490   7.420 -11.772  0.00  0.00    +0.000 C 
ATOM     13  C   UNL     1       7.494   6.288 -11.958  0.00  0.00    +0.000 C 
ATOM     14  C   UNL     1       7.194   5.566 -13.231  0.00  0.00    +0.000 C 
ATOM     15  C   UNL     1       5.727   5.436 -13.535  0.00  0.00    +0.000 C 
ATOM     16  C   UNL     1       4.861   5.565 -12.324  0.00  0.00    +0.000 C 
ENDBRANCH   8  11
BRANCH   6  17
ATOM     17  C   UNL     1       5.068   5.343  -7.967  0.00  0.00    +0.382 C 
ATOM     18  O   UNL     1       5.779   4.288  -8.553  0.00  0.00    -0.244 OA
ATOM     19  O   UNL     1       5.182   5.471  -6.751  0.00  0.00    -0.244 OA
ENDBRANCH   6  17
ENDBRANCH   3   4
ENDBRANCH   1   3
BRANCH   1  20
ATOM     20  O   UNL     1       0.177   6.615  -4.907  0.00  0.00    -0.276 OA
BRANCH  20  21
ATOM     21  C   UNL     1      -0.713   6.060  -3.760  0.00  0.00    +0.295 C 
BRANCH  21  22
ATOM     22  C   UNL     1      -1.736   7.423  -3.805  0.00  0.00    +0.071 C 
ATOM     23  C   UNL     1      -2.801   7.025  -2.780  0.00  0.00    +0.006 C 
ATOM     24  C   UNL     1      -2.435   7.246  -5.146  0.00  0.00    +0.006 C 
ENDBRANCH  21  22
BRANCH  21  25
ATOM     25  O   UNL     1       0.157   6.713  -2.601  0.00  0.00    -0.424 OA
BRANCH  25  26
ATOM     26  C   UNL     1       0.317   5.829  -1.558  0.00  0.00    +0.319 C 
ATOM     27  O   UNL     1       0.119   4.619  -1.826  0.00  0.00    -0.250 OA
BRANCH  26  29
ATOM     28  C   UNL     1      -0.566   7.108   0.170  0.00  0.00    +0.012 C 
ATOM     29  C   UNL     1       0.514   6.194  -0.129  0.00  0.00    +0.110 C 
ENDBRANCH  26  29
ENDBRANCH  25  26
ENDBRANCH  21  25
ENDBRANCH  20  21
ENDBRANCH   1  20
BRANCH   1  30
ATOM     30  C   UNL     1       0.836   4.685  -6.713  0.00  0.00    +0.088 C 
BRANCH  30  31
ATOM     31  C   UNL     1      -0.538   5.049  -7.206  0.00  0.00    +0.011 C 
BRANCH  31  32
ATOM     32  C   UNL     1      -0.585   5.625  -8.580  0.00  0.00    +0.005 C 
BRANCH  32  33
ATOM     33  C   UNL     1       0.181   4.851  -9.611  0.00  0.00    +0.026 C 
BRANCH  33  34
ATOM     34  C   UNL     1       0.121   5.422 -10.969  0.00  0.00    -0.022 A 
ATOM     35  C   UNL     1       0.423   4.549 -12.011  0.00  0.00    -0.004 A 
ATOM     36  C   UNL     1       0.935   4.958 -13.211  0.00  0.00    -0.000 A 
ATOM     37  C   UNL     1       1.260   6.295 -13.380  0.00  0.00    -0.000 A 
ATOM     38  C   UNL     1       1.046   7.188 -12.341  0.00  0.00    -0.000 A 
ATOM     39  C   UNL     1       0.388   6.757 -11.232  0.00  0.00    -0.004 A 
ENDBRANCH  33  34
ENDBRANCH  32  33
ENDBRANCH  31  32
ENDBRANCH  30  31
ENDBRANCH   1  30
TORSDOF 15
ENDMDL
MODEL 5
REMARK VINA RESULT:      -8.5      2.409      5.976
REMARK  Name = 
REMARK  15 active torsions:
REMARK  status: ('A' for Active; 'I' for Inactive)
REMARK    1  A    between atoms: C_2  and  C_3
REMARK    2  A    between atoms: C_3  and  O_5
REMARK    3  A    between atoms: O_5  and  C_6
REMARK    4  A    between atoms: C_6  and  O_7
REMARK    5  A    between atoms: C_6  and  C_37
REMARK    6  A    between atoms: O_7  and  P_8
REMARK    7  A    between atoms: P_8  and  C_10
REMARK    8  A    between atoms: P_8  and  C_20
REMARK    9  A    between atoms: C_10  and  C_11
REMARK   10  A    between atoms: C_11  and  C_12
REMARK   11  A    between atoms: C_12  and  C_13
REMARK   12  A    between atoms: C_13  and  C_14
REMARK   13  A    between atoms: C_20  and  C_21
REMARK   14  A    between atoms: C_25  and  C_26
REMARK   15  A    between atoms: C_33  and  C_34
REMARK                            x       y       z     vdW  Elec       q    Type
REMARK                         _______ _______ _______ _____ _____    ______ ____
ROOT
ATOM      1  P   UNL     1       3.403   4.995  -9.475  0.00  0.00    +0.234 P 
ATOM      2  O   UNL     1       4.160   3.815  -9.087  0.00  0.00    -0.289 OA
ENDROOT
BRANCH   1   3
ATOM      3  C   UNL     1       1.652   4.495  -9.303  0.00  0.00    +0.172 C 
BRANCH   3   4
ATOM      4  C   UNL     1       0.726   5.588  -9.001  0.00  0.00    +0.236 C 
ATOM      5  N   UNL     1       0.146   5.586  -7.680  0.00  0.00    -0.271 N 
ATOM      6  C   UNL     1       1.278   5.862  -6.586  0.00  0.00    +0.179 C 
ATOM      7  C   UNL     1       0.231   6.610  -5.515  0.00  0.00    +0.033 C 
ATOM      8  C   UNL     1      -0.894   5.406  -5.636  0.00  0.00    +0.022 C 
ATOM      9  C   UNL     1      -1.102   5.884  -7.200  0.00  0.00    +0.094 C 
ATOM     10  O   UNL     1      -0.100   5.815  -9.940  0.00  0.00    -0.274 OA
BRANCH   8  11
ATOM     11  C   UNL     1      -2.145   6.337  -5.096  0.00  0.00    +0.002 C 
ATOM     12  C   UNL     1      -2.931   5.471  -4.163  0.00  0.00    +0.000 C 
ATOM     13  C   UNL     1      -2.249   5.599  -2.806  0.00  0.00    +0.000 C 
ATOM     14  C   UNL     1      -2.420   6.992  -2.297  0.00  0.00    +0.000 C 
ATOM     15  C   UNL     1      -2.356   8.051  -3.364  0.00  0.00    +0.000 C 
ATOM     16  C   UNL     1      -1.639   7.601  -4.596  0.00  0.00    +0.000 C 
ENDBRANCH   8  11
BRANCH   6  17
ATOM     17  C   UNL     1       1.109   4.403  -5.842  0.00  0.00    +0.382 C 
ATOM     18  O   UNL     1       1.310   4.621  -4.473  0.00  0.00    -0.244 OA
ATOM     19  O   UNL     1       1.737   3.477  -6.347  0.00  0.00    -0.244 OA
ENDBRANCH   6  17
ENDBRANCH   3   4
ENDBRANCH   1   3
BRANCH   1  20
ATOM     20  O   UNL     1       3.490   5.848 -10.768  0.00  0.00    -0.276 OA
BRANCH  20  21
ATOM     21  C   UNL     1       4.473   5.430 -11.898  0.00  0.00    +0.295 C 
BRANCH  21  22
ATOM     22  C   UNL     1       5.417   6.835 -11.685  0.00  0.00    +0.071 C 
ATOM     23  C   UNL     1       6.209   6.857 -12.995  0.00  0.00    +0.006 C 
ATOM     24  C   UNL     1       6.435   6.375 -10.651  0.00  0.00    +0.006 C 
ENDBRANCH  21  22
BRANCH  21  25
ATOM     25  O   UNL     1       3.638   6.130 -13.055  0.00  0.00    -0.424 OA
BRANCH  25  26
ATOM     26  C   UNL     1       2.690   5.268 -13.559  0.00  0.00    +0.319 C 
ATOM     27  O   UNL     1       3.089   4.460 -14.432  0.00  0.00    -0.250 OA
BRANCH  26  29
ATOM     28  C   UNL     1       0.669   4.228 -14.046  0.00  0.00    +0.012 C 
ATOM     29  C   UNL     1       1.226   5.337 -13.303  0.00  0.00    +0.110 C 
ENDBRANCH  26  29
ENDBRANCH  25  26
ENDBRANCH  21  25
ENDBRANCH  20  21
ENDBRANCH   1  20
BRANCH   1  30
ATOM     30  C   UNL     1       3.689   6.153  -8.069  0.00  0.00    +0.088 C 
BRANCH  30  31
ATOM     31  C   UNL     1       4.885   5.763  -7.243  0.00  0.00    +0.011 C 
BRANCH  31  32
ATOM     32  C   UNL     1       4.600   5.497  -5.804  0.00  0.00    +0.005 C 
BRANCH  32  33
ATOM     33  C   UNL     1       4.627   6.711  -4.924  0.00  0.00    +0.026 C 
BRANCH  33  34
ATOM     34  C   UNL     1       4.854   6.422  -3.497  0.00  0.00    -0.022 A 
ATOM     35  C   UNL     1       4.424   5.175  -3.051  0.00  0.00    -0.004 A 
ATOM     36  C   UNL     1       4.054   4.924  -1.760  0.00  0.00    -0.000 A 
ATOM     37  C   UNL     1       4.011   5.976  -0.859  0.00  0.00    -0.000 A 
ATOM     38  C   UNL     1       4.359   7.251  -1.278  0.00  0.00    -0.000 A 
ATOM     39  C   UNL     1       4.873   7.413  -2.527  0.00  0.00    -0.004 A 
ENDBRANCH  33  34
ENDBRANCH  32  33
ENDBRANCH  31  32
ENDBRANCH  30  31
ENDBRANCH   1  30
TORSDOF 15
ENDMDL
MODEL 6
REMARK VINA RESULT:      -8.5      2.087      8.676
REMARK  Name = 
REMARK  15 active torsions:
REMARK  status: ('A' for Active; 'I' for Inactive)
REMARK    1  A    between atoms: C_2  and  C_3
REMARK    2  A    between atoms: C_3  and  O_5
REMARK    3  A    between atoms: O_5  and  C_6
REMARK    4  A    between atoms: C_6  and  O_7
REMARK    5  A    between atoms: C_6  and  C_37
REMARK    6  A    between atoms: O_7  and  P_8
REMARK    7  A    between atoms: P_8  and  C_10
REMARK    8  A    between atoms: P_8  and  C_20
REMARK    9  A    between atoms: C_10  and  C_11
REMARK   10  A    between atoms: C_11  and  C_12
REMARK   11  A    between atoms: C_12  and  C_13
REMARK   12  A    between atoms: C_13  and  C_14
REMARK   13  A    between atoms: C_20  and  C_21
REMARK   14  A    between atoms: C_25  and  C_26
REMARK   15  A    between atoms: C_33  and  C_34
REMARK                            x       y       z     vdW  Elec       q    Type
REMARK                         _______ _______ _______ _____ _____    ______ ____
ROOT
ATOM      1  P   UNL     1       1.445   6.726  -5.885  0.00  0.00    +0.234 P 
ATOM      2  O   UNL     1       2.268   7.662  -6.636  0.00  0.00    -0.289 OA
ENDROOT
BRANCH   1   3
ATOM      3  C   UNL     1       1.493   5.182  -6.864  0.00  0.00    +0.172 C 
BRANCH   3   4
ATOM      4  C   UNL     1       1.463   5.372  -8.315  0.00  0.00    +0.236 C 
ATOM      5  N   UNL     1       2.718   5.718  -8.939  0.00  0.00    -0.271 N 
ATOM      6  C   UNL     1       3.737   4.491  -8.834  0.00  0.00    +0.179 C 
ATOM      7  C   UNL     1       4.536   4.875 -10.253  0.00  0.00    +0.033 C 
ATOM      8  C   UNL     1       4.701   6.465  -9.835  0.00  0.00    +0.022 C 
ATOM      9  C   UNL     1       3.059   6.571  -9.955  0.00  0.00    +0.094 C 
ATOM     10  O   UNL     1       0.471   6.062  -8.708  0.00  0.00    -0.274 OA
BRANCH   8  11
ATOM     11  C   UNL     1       4.932   6.988 -11.383  0.00  0.00    +0.002 C 
ATOM     12  C   UNL     1       6.125   7.891 -11.339  0.00  0.00    +0.000 C 
ATOM     13  C   UNL     1       7.340   6.979 -11.464  0.00  0.00    +0.000 C 
ATOM     14  C   UNL     1       7.355   6.362 -12.823  0.00  0.00    +0.000 C 
ATOM     15  C   UNL     1       5.994   6.013 -13.358  0.00  0.00    +0.000 C 
ATOM     16  C   UNL     1       4.964   5.854 -12.287  0.00  0.00    +0.000 C 
ENDBRANCH   8  11
BRANCH   6  17
ATOM     17  C   UNL     1       4.835   5.303  -7.913  0.00  0.00    +0.382 C 
ATOM     18  O   UNL     1       6.104   4.910  -8.356  0.00  0.00    -0.244 OA
ATOM     19  O   UNL     1       4.641   5.262  -6.702  0.00  0.00    -0.244 OA
ENDBRANCH   6  17
ENDBRANCH   3   4
ENDBRANCH   1   3
BRANCH   1  20
ATOM     20  O   UNL     1      -0.013   6.877  -5.376  0.00  0.00    -0.276 OA
BRANCH  20  21
ATOM     21  C   UNL     1      -0.649   5.745  -4.522  0.00  0.00    +0.295 C 
BRANCH  21  22
ATOM     22  C   UNL     1      -2.226   6.170  -5.012  0.00  0.00    +0.071 C 
ATOM     23  C   UNL     1      -3.067   5.244  -4.130  0.00  0.00    +0.006 C 
ATOM     24  C   UNL     1      -2.307   5.534  -6.393  0.00  0.00    +0.006 C 
ENDBRANCH  21  22
BRANCH  21  25
ATOM     25  O   UNL     1      -0.783   6.636  -3.212  0.00  0.00    -0.424 OA
BRANCH  25  26
ATOM     26  C   UNL     1      -0.327   5.950  -2.109  0.00  0.00    +0.319 C 
ATOM     27  O   UNL     1       0.052   4.771  -2.312  0.00  0.00    -0.250 OA
BRANCH  26  29
ATOM     28  C   UNL     1       0.953   6.518  -0.254  0.00  0.00    +0.012 C 
ATOM     29  C   UNL     1      -0.420   6.411  -0.698  0.00  0.00    +0.110 C 
ENDBRANCH  26  29
ENDBRANCH  25  26
ENDBRANCH  21  25
ENDBRANCH  20  21
ENDBRANCH   1  20
BRANCH   1  30
ATOM     30  C   UNL     1       2.478   6.362  -4.402  0.00  0.00    +0.088 C 
BRANCH  30  31
ATOM     31  C   UNL     1       3.638   7.309  -4.268  0.00  0.00    +0.011 C 
BRANCH  31  32
ATOM     32  C   UNL     1       4.749   6.830  -3.398  0.00  0.00    +0.005 C 
BRANCH  32  33
ATOM     33  C   UNL     1       4.329   6.395  -2.025  0.00  0.00    +0.026 C 
BRANCH  33  34
ATOM     34  C   UNL     1       4.524   7.414  -0.979  0.00  0.00    -0.022 A 
ATOM     35  C   UNL     1       4.810   6.931   0.296  0.00  0.00    -0.004 A 
ATOM     36  C   UNL     1       4.504   7.608   1.444  0.00  0.00    -0.000 A 
ATOM     37  C   UNL     1       3.791   8.793   1.352  0.00  0.00    -0.000 A 
ATOM     38  C   UNL     1       3.418   9.274   0.106  0.00  0.00    -0.000 A 
ATOM     39  C   UNL     1       3.887   8.645  -1.005  0.00  0.00    -0.004 A 
ENDBRANCH  33  34
ENDBRANCH  32  33
ENDBRANCH  31  32
ENDBRANCH  30  31
ENDBRANCH   1  30
TORSDOF 15
ENDMDL
MODEL 7
REMARK VINA RESULT:      -8.5      3.733     10.998
REMARK  Name = 
REMARK  15 active torsions:
REMARK  status: ('A' for Active; 'I' for Inactive)
REMARK    1  A    between atoms: C_2  and  C_3
REMARK    2  A    between atoms: C_3  and  O_5
REMARK    3  A    between atoms: O_5  and  C_6
REMARK    4  A    between atoms: C_6  and  O_7
REMARK    5  A    between atoms: C_6  and  C_37
REMARK    6  A    between atoms: O_7  and  P_8
REMARK    7  A    between atoms: P_8  and  C_10
REMARK    8  A    between atoms: P_8  and  C_20
REMARK    9  A    between atoms: C_10  and  C_11
REMARK   10  A    between atoms: C_11  and  C_12
REMARK   11  A    between atoms: C_12  and  C_13
REMARK   12  A    between atoms: C_13  and  C_14
REMARK   13  A    between atoms: C_20  and  C_21
REMARK   14  A    between atoms: C_25  and  C_26
REMARK   15  A    between atoms: C_33  and  C_34
REMARK                            x       y       z     vdW  Elec       q    Type
REMARK                         _______ _______ _______ _____ _____    ______ ____
ROOT
ATOM      1  P   UNL     1       2.312   6.212  -8.699  0.00  0.00    +0.234 P 
ATOM      2  O   UNL     1       1.661   7.468  -9.036  0.00  0.00    -0.289 OA
ENDROOT
BRANCH   1   3
ATOM      3  C   UNL     1       1.733   5.036  -9.974  0.00  0.00    +0.172 C 
BRANCH   3   4
ATOM      4  C   UNL     1       0.569   5.482 -10.740  0.00  0.00    +0.236 C 
ATOM      5  N   UNL     1       0.837   6.034 -12.046  0.00  0.00    -0.271 N 
ATOM      6  C   UNL     1       1.396   4.893 -13.016  0.00  0.00    +0.179 C 
ATOM      7  C   UNL     1       0.763   5.590 -14.400  0.00  0.00    +0.033 C 
ATOM      8  C   UNL     1       1.356   7.085 -14.025  0.00  0.00    +0.022 C 
ATOM      9  C   UNL     1       0.307   7.081 -12.752  0.00  0.00    +0.094 C 
ATOM     10  O   UNL     1      -0.259   6.150 -10.044  0.00  0.00    -0.274 OA
BRANCH   8  11
ATOM     11  C   UNL     1       0.300   7.897 -15.000  0.00  0.00    +0.002 C 
ATOM     12  C   UNL     1       1.062   9.059 -15.556  0.00  0.00    +0.000 C 
ATOM     13  C   UNL     1       1.790   8.527 -16.785  0.00  0.00    +0.000 C 
ATOM     14  C   UNL     1       0.789   8.166 -17.833  0.00  0.00    +0.000 C 
ATOM     15  C   UNL     1      -0.481   7.568 -17.294  0.00  0.00    +0.000 C 
ATOM     16  C   UNL     1      -0.319   6.974 -15.932  0.00  0.00    +0.000 C 
ENDBRANCH   8  11
BRANCH   6  17
ATOM     17  C   UNL     1       2.861   5.610 -13.242  0.00  0.00    +0.382 C 
ATOM     18  O   UNL     1       3.335   5.179 -14.487  0.00  0.00    -0.244 OA
ATOM     19  O   UNL     1       3.643   5.521 -12.299  0.00  0.00    -0.244 OA
ENDBRANCH   6  17
ENDBRANCH   3   4
ENDBRANCH   1   3
BRANCH   1  20
ATOM     20  O   UNL     1       2.326   5.432  -7.357  0.00  0.00    -0.276 OA
BRANCH  20  21
ATOM     21  C   UNL     1       1.752   6.099  -6.075  0.00  0.00    +0.295 C 
BRANCH  21  22
ATOM     22  C   UNL     1       2.947   5.386  -5.089  0.00  0.00    +0.071 C 
ATOM     23  C   UNL     1       2.336   5.582  -3.700  0.00  0.00    +0.006 C 
ATOM     24  C   UNL     1       4.061   6.421  -5.148  0.00  0.00    +0.006 C 
ENDBRANCH  21  22
BRANCH  21  25
ATOM     25  O   UNL     1       0.741   4.914  -5.760  0.00  0.00    -0.424 OA
BRANCH  25  26
ATOM     26  C   UNL     1      -0.559   5.314  -5.975  0.00  0.00    +0.319 C 
ATOM     27  O   UNL     1      -1.049   5.019  -7.092  0.00  0.00    -0.250 OA
BRANCH  26  29
ATOM     28  C   UNL     1      -2.573   6.463  -5.822  0.00  0.00    +0.012 C 
ATOM     29  C   UNL     1      -1.350   6.213  -5.092  0.00  0.00    +0.110 C 
ENDBRANCH  26  29
ENDBRANCH  25  26
ENDBRANCH  21  25
ENDBRANCH  20  21
ENDBRANCH   1  20
BRANCH   1  30
ATOM     30  C   UNL     1       4.075   6.529  -9.133  0.00  0.00    +0.088 C 
BRANCH  30  31
ATOM     31  C   UNL     1       5.014   5.584  -8.434  0.00  0.00    +0.011 C 
BRANCH  31  32
ATOM     32  C   UNL     1       6.198   5.161  -9.236  0.00  0.00    +0.005 C 
BRANCH  32  33
ATOM     33  C   UNL     1       7.275   6.197  -9.360  0.00  0.00    +0.026 C 
BRANCH  33  34
ATOM     34  C   UNL     1       7.627   6.544 -10.749  0.00  0.00    -0.022 A 
ATOM     35  C   UNL     1       6.722   7.364 -11.420  0.00  0.00    -0.004 A 
ATOM     36  C   UNL     1       6.570   7.361 -12.779  0.00  0.00    -0.000 A 
ATOM     37  C   UNL     1       7.279   6.438 -13.531  0.00  0.00    -0.000 A 
ATOM     38  C   UNL     1       8.136   5.551 -12.896  0.00  0.00    -0.000 A 
ATOM     39  C   UNL     1       8.369   5.705 -11.565  0.00  0.00    -0.004 A 
ENDBRANCH  33  34
ENDBRANCH  32  33
ENDBRANCH  31  32
ENDBRANCH  30  31
ENDBRANCH   1  30
TORSDOF 15
ENDMDL
MODEL 8
REMARK VINA RESULT:      -8.5      1.977      3.681
REMARK  Name = 
REMARK  15 active torsions:
REMARK  status: ('A' for Active; 'I' for Inactive)
REMARK    1  A    between atoms: C_2  and  C_3
REMARK    2  A    between atoms: C_3  and  O_5
REMARK    3  A    between atoms: O_5  and  C_6
REMARK    4  A    between atoms: C_6  and  O_7
REMARK    5  A    between atoms: C_6  and  C_37
REMARK    6  A    between atoms: O_7  and  P_8
REMARK    7  A    between atoms: P_8  and  C_10
REMARK    8  A    between atoms: P_8  and  C_20
REMARK    9  A    between atoms: C_10  and  C_11
REMARK   10  A    between atoms: C_11  and  C_12
REMARK   11  A    between atoms: C_12  and  C_13
REMARK   12  A    between atoms: C_13  and  C_14
REMARK   13  A    between atoms: C_20  and  C_21
REMARK   14  A    between atoms: C_25  and  C_26
REMARK   15  A    between atoms: C_33  and  C_34
REMARK                            x       y       z     vdW  Elec       q    Type
REMARK                         _______ _______ _______ _____ _____    ______ ____
ROOT
ATOM      1  P   UNL     1       2.266   5.727  -8.760  0.00  0.00    +0.234 P 
ATOM      2  O   UNL     1       2.080   7.092  -8.292  0.00  0.00    -0.289 OA
ENDROOT
BRANCH   1   3
ATOM      3  C   UNL     1       3.072   4.866  -7.362  0.00  0.00    +0.172 C 
BRANCH   3   4
ATOM      4  C   UNL     1       2.242   4.726  -6.164  0.00  0.00    +0.236 C 
ATOM      5  N   UNL     1       2.788   5.265  -4.943  0.00  0.00    -0.271 N 
ATOM      6  C   UNL     1       2.879   6.858  -5.041  0.00  0.00    +0.179 C 
ATOM      7  C   UNL     1       2.670   7.094  -3.397  0.00  0.00    +0.033 C 
ATOM      8  C   UNL     1       3.807   5.962  -3.001  0.00  0.00    +0.022 C 
ATOM      9  C   UNL     1       2.780   4.841  -3.641  0.00  0.00    +0.094 C 
ATOM     10  O   UNL     1       1.727   3.570  -6.047  0.00  0.00    -0.274 OA
BRANCH   8  11
ATOM     11  C   UNL     1       3.238   5.731  -1.469  0.00  0.00    +0.002 C 
ATOM     12  C   UNL     1       4.439   5.756  -0.576  0.00  0.00    +0.000 C 
ATOM     13  C   UNL     1       4.692   7.226  -0.262  0.00  0.00    +0.000 C 
ATOM     14  C   UNL     1       3.567   7.755   0.565  0.00  0.00    +0.000 C 
ATOM     15  C   UNL     1       2.217   7.202   0.197  0.00  0.00    +0.000 C 
ATOM     16  C   UNL     1       2.162   6.665  -1.197  0.00  0.00    +0.000 C 
ENDBRANCH   8  11
BRANCH   6  17
ATOM     17  C   UNL     1       4.519   6.911  -4.912  0.00  0.00    +0.382 C 
ATOM     18  O   UNL     1       4.853   8.215  -4.523  0.00  0.00    -0.244 OA
ATOM     19  O   UNL     1       5.139   6.449  -5.865  0.00  0.00    -0.244 OA
ENDBRANCH   6  17
ENDBRANCH   3   4
ENDBRANCH   1   3
BRANCH   1  20
ATOM     20  O   UNL     1       2.954   5.207 -10.050  0.00  0.00    -0.276 OA
BRANCH  20  21
ATOM     21  C   UNL     1       3.870   6.159 -10.869  0.00  0.00    +0.295 C 
BRANCH  21  22
ATOM     22  C   UNL     1       3.398   5.451 -12.346  0.00  0.00    +0.071 C 
ATOM     23  C   UNL     1       4.456   6.018 -13.296  0.00  0.00    +0.006 C 
ATOM     24  C   UNL     1       2.142   6.243 -12.685  0.00  0.00    +0.006 C 
ENDBRANCH  21  22
BRANCH  21  25
ATOM     25  O   UNL     1       5.142   5.209 -10.786  0.00  0.00    -0.424 OA
BRANCH  25  26
ATOM     26  C   UNL     1       6.166   5.827 -10.103  0.00  0.00    +0.319 C 
ATOM     27  O   UNL     1       6.256   5.556  -8.881  0.00  0.00    -0.250 OA
BRANCH  26  29
ATOM     28  C   UNL     1       8.078   6.222 -11.366  0.00  0.00    +0.012 C 
ATOM     29  C   UNL     1       7.037   6.911 -10.634  0.00  0.00    +0.110 C 
ENDBRANCH  26  29
ENDBRANCH  25  26
ENDBRANCH  21  25
ENDBRANCH  20  21
ENDBRANCH   1  20
BRANCH   1  30
ATOM     30  C   UNL     1       0.548   5.058  -8.782  0.00  0.00    +0.088 C 
BRANCH  30  31
ATOM     31  C   UNL     1      -0.415   5.933  -8.028  0.00  0.00    +0.011 C 
BRANCH  31  32
ATOM     32  C   UNL     1      -1.114   5.270  -6.890  0.00  0.00    +0.005 C 
BRANCH  32  33
ATOM     33  C   UNL     1      -2.499   5.778  -6.622  0.00  0.00    +0.026 C 
BRANCH  33  34
ATOM     34  C   UNL     1      -2.717   6.252  -5.244  0.00  0.00    -0.022 A 
ATOM     35  C   UNL     1      -2.284   7.547  -4.969  0.00  0.00    -0.004 A 
ATOM     36  C   UNL     1      -1.905   7.965  -3.724  0.00  0.00    -0.000 A 
ATOM     37  C   UNL     1      -1.858   7.040  -2.692  0.00  0.00    -0.000 A 
ATOM     38  C   UNL     1      -2.209   5.721  -2.938  0.00  0.00    -0.000 A 
ATOM     39  C   UNL     1      -2.730   5.398  -4.152  0.00  0.00    -0.004 A 
ENDBRANCH  33  34
ENDBRANCH  32  33
ENDBRANCH  31  32
ENDBRANCH  30  31
ENDBRANCH   1  30
TORSDOF 15
ENDMDL
MODEL 9
REMARK VINA RESULT:      -8.5      1.737      5.695
REMARK  Name = 
REMARK  15 active torsions:
REMARK  status: ('A' for Active; 'I' for Inactive)
REMARK    1  A    between atoms: C_2  and  C_3
REMARK    2  A    between atoms: C_3  and  O_5
REMARK    3  A    between atoms: O_5  and  C_6
REMARK    4  A    between atoms: C_6  and  O_7
REMARK    5  A    between atoms: C_6  and  C_37
REMARK    6  A    between atoms: O_7  and  P_8
REMARK    7  A    between atoms: P_8  and  C_10
REMARK    8  A    between atoms: P_8  and  C_20
REMARK    9  A    between atoms: C_10  and  C_11
REMARK   10  A    between atoms: C_11  and  C_12
REMARK   11  A    between atoms: C_12  and  C_13
REMARK   12  A    between atoms: C_13  and  C_14
REMARK   13  A    between atoms: C_20  and  C_21
REMARK   14  A    between atoms: C_25  and  C_26
REMARK   15  A    between atoms: C_33  and  C_34
REMARK                            x       y       z     vdW  Elec       q    Type
REMARK                         _______ _______ _______ _____ _____    ______ ____
ROOT
ATOM      1  P   UNL     1       2.759   5.074  -6.027  0.00  0.00    +0.234 P 
ATOM      2  O   UNL     1       3.640   4.213  -5.253  0.00  0.00    -0.289 OA
ENDROOT
BRANCH   1   3
ATOM      3  C   UNL     1       2.566   6.576  -5.002  0.00  0.00    +0.172 C 
BRANCH   3   4
ATOM      4  C   UNL     1       3.772   6.989  -4.282  0.00  0.00    +0.236 C 
ATOM      5  N   UNL     1       3.641   7.137  -2.852  0.00  0.00    -0.271 N 
ATOM      6  C   UNL     1       3.380   5.711  -2.177  0.00  0.00    +0.179 C 
ATOM      7  C   UNL     1       4.129   6.121  -0.737  0.00  0.00    +0.033 C 
ATOM      8  C   UNL     1       3.308   7.549  -0.614  0.00  0.00    +0.022 C 
ATOM      9  C   UNL     1       4.142   8.038  -1.950  0.00  0.00    +0.094 C 
ATOM     10  O   UNL     1       4.396   7.936  -4.856  0.00  0.00    -0.274 OA
BRANCH   8  11
ATOM     11  C   UNL     1       4.395   8.239   0.419  0.00  0.00    +0.002 C 
ATOM     12  C   UNL     1       3.612   9.200   1.259  0.00  0.00    +0.000 C 
ATOM     13  C   UNL     1       3.042   8.377   2.407  0.00  0.00    +0.000 C 
ATOM     14  C   UNL     1       4.158   7.903   3.278  0.00  0.00    +0.000 C 
ATOM     15  C   UNL     1       5.409   7.532   2.529  0.00  0.00    +0.000 C 
ATOM     16  C   UNL     1       5.160   7.207   1.092  0.00  0.00    +0.000 C 
ENDBRANCH   8  11
BRANCH   6  17
ATOM     17  C   UNL     1       1.891   6.106  -1.596  0.00  0.00    +0.382 C 
ATOM     18  O   UNL     1       1.580   5.163  -0.608  0.00  0.00    -0.244 OA
ATOM     19  O   UNL     1       1.030   6.311  -2.447  0.00  0.00    -0.244 OA
ENDBRANCH   6  17
ENDBRANCH   3   4
ENDBRANCH   1   3
BRANCH   1  20
ATOM     20  O   UNL     1       1.362   4.773  -6.632  0.00  0.00    -0.276 OA
BRANCH  20  21
ATOM     21  C   UNL     1       0.383   5.945  -6.924  0.00  0.00    +0.295 C 
BRANCH  21  22
ATOM     22  C   UNL     1      -0.941   5.089  -6.277  0.00  0.00    +0.071 C 
ATOM     23  C   UNL     1      -2.115   5.854  -6.892  0.00  0.00    +0.006 C 
ATOM     24  C   UNL     1      -0.929   5.544  -4.824  0.00  0.00    +0.006 C 
ENDBRANCH  21  22
BRANCH  21  25
ATOM     25  O   UNL     1       0.027   5.448  -8.391  0.00  0.00    -0.424 OA
BRANCH  25  26
ATOM     26  C   UNL     1       0.667   6.221  -9.334  0.00  0.00    +0.319 C 
ATOM     27  O   UNL     1       1.241   7.251  -8.905  0.00  0.00    -0.250 OA
BRANCH  26  29
ATOM     28  C   UNL     1      -0.259   7.138 -11.258  0.00  0.00    +0.012 C 
ATOM     29  C   UNL     1       0.577   6.047 -10.809  0.00  0.00    +0.110 C 
ENDBRANCH  26  29
ENDBRANCH  25  26
ENDBRANCH  21  25
ENDBRANCH  20  21
ENDBRANCH   1  20
BRANCH   1  30
ATOM     30  C   UNL     1       3.828   5.608  -7.430  0.00  0.00    +0.088 C 
BRANCH  30  31
ATOM     31  C   UNL     1       3.905   4.572  -8.517  0.00  0.00    +0.011 C 
BRANCH  31  32
ATOM     32  C   UNL     1       4.120   5.110  -9.891  0.00  0.00    +0.005 C 
BRANCH  32  33
ATOM     33  C   UNL     1       4.614   6.525  -9.940  0.00  0.00    +0.026 C 
BRANCH  33  34
ATOM     34  C   UNL     1       5.996   6.670 -10.430  0.00  0.00    -0.022 A 
ATOM     35  C   UNL     1       6.134   6.961 -11.786  0.00  0.00    -0.004 A 
ATOM     36  C   UNL     1       7.235   6.617 -12.520  0.00  0.00    -0.000 A 
ATOM     37  C   UNL     1       8.230   5.862 -11.922  0.00  0.00    -0.000 A 
ATOM     38  C   UNL     1       8.099   5.484 -10.594  0.00  0.00    -0.000 A 
ATOM     39  C   UNL     1       7.065   5.989  -9.869  0.00  0.00    -0.004 A 
ENDBRANCH  33  34
ENDBRANCH  32  33
ENDBRANCH  31  32
ENDBRANCH  30  31
ENDBRANCH   1  30
TORSDOF 15
ENDMDL
