MODEL 1
REMARK VINA RESULT:      -8.1      0.000      0.000
REMARK  Name = 
REMARK  6 active torsions:
REMARK  status: ('A' for Active; 'I' for Inactive)
REMARK    1  A    between atoms: C_2  and  N_4
REMARK    2  A    between atoms: C_11  and  O_12
REMARK    3  A    between atoms: O_12  and  C_13
REMARK    4  A    between atoms: C_13  and  C_15
REMARK    5  A    between atoms: C_15  and  C_16
REMARK    6  A    between atoms: C_15  and  C_18
REMARK                            x       y       z     vdW  Elec       q    Type
REMARK                         _______ _______ _______ _____ _____    ______ ____
ROOT
ATOM      1  N   UNL     1       2.664   5.621  -3.344  0.00  0.00    +0.289 N 
ATOM      2  C   UNL     1       3.069   7.150  -3.561  0.00  0.00    +0.062 C 
ATOM      3  C   UNL     1       4.037   7.209  -4.929  0.00  0.00    +0.099 C 
ATOM      4  C   UNL     1       3.026   7.258  -6.187  0.00  0.00    +0.180 C 
ATOM      5  C   UNL     1       2.326   6.099  -5.334  0.00  0.00    +0.099 C 
ATOM      6  C   UNL     1       4.459   6.597  -2.836  0.00  0.00    +0.061 C 
ATOM      7  C   UNL     1       4.769   5.763  -4.126  0.00  0.00    +0.061 C 
ATOM      8  C   UNL     1       3.371   5.039  -4.625  0.00  0.00    +0.062 C 
ATOM      9  C   UNL     1       3.211   5.018  -2.291  0.00  0.00    +0.170 C 
ENDROOT
BRANCH   1  11
ATOM     10  C   UNL     1       1.114   5.412  -3.557  0.00  0.00    +0.061 C 
ATOM     11  C   UNL     1       1.303   5.458  -3.413  0.00  0.00    +0.058 C 
ATOM     12  C   UNL     1       0.573   5.393  -2.067  0.00  0.00    +0.061 C 
ENDBRANCH   1  11
BRANCH   4  13
ATOM     13  O   UNL     1       3.624   6.167  -7.146  0.00  0.00    -0.452 OA
BRANCH  13  14
ATOM     14  C   UNL     1       3.344   6.619  -8.409  0.00  0.00    +0.323 C 
ATOM     15  O   UNL     1       2.477   7.473  -8.623  0.00  0.00    -0.250 OA
BRANCH  14  16
ATOM     16  C   UNL     1       3.549   5.714  -9.729  0.00  0.00    +0.154 C 
BRANCH  16  17
ATOM     17  C   UNL     1       5.069   6.223  -9.954  0.00  0.00    -0.009 A 
ATOM     18  C   UNL     1       6.060   5.516  -9.425  0.00  0.00    -0.004 A 
ATOM     19  C   UNL     1       7.351   5.969  -9.654  0.00  0.00    -0.000 A 
ATOM     20  C   UNL     1       7.561   7.091 -10.420  0.00  0.00    -0.000 A 
ATOM     21  C   UNL     1       6.492   7.680 -11.083  0.00  0.00    -0.000 A 
ATOM     22  C   UNL     1       5.269   7.025 -11.037  0.00  0.00    -0.004 A 
ENDBRANCH  16  17
BRANCH  16  23
ATOM     23  C   UNL     1       4.008   4.371  -8.889  0.00  0.00    +0.198 C 
ATOM     24  O   UNL     1       2.840   3.642  -8.804  0.00  0.00    -0.219 OA
ENDBRANCH  16  23
ENDBRANCH  14  16
ENDBRANCH  13  14
ENDBRANCH   4  13
TORSDOF 6
ENDMDL
MODEL 2
REMARK VINA RESULT:      -7.8      3.150      4.985
REMARK  Name = 
REMARK  6 active torsions:
REMARK  status: ('A' for Active; 'I' for Inactive)
REMARK    1  A    between atoms: C_2  and  N_4
REMARK    2  A    between atoms: C_11  and  O_12
REMARK    3  A    between atoms: O_12  and  C_13
REMARK    4  A    between atoms: C_13  and  C_15
REMARK    5  A    between atoms: C_15  and  C_16
REMARK    6  A    between atoms: C_15  and  C_18
REMARK                            x       y       z     vdW  Elec       q    Type
REMARK                         _______ _______ _______ _____ _____    ______ ____
ROOT
ATOM      1  N   UNL     1      -1.890   6.954  -4.405  0.00  0.00    +0.289 N 
ATOM      2  C   UNL     1      -1.669   5.380  -4.548  0.00  0.00    +0.062 C 
ATOM      3  C   UNL     1      -0.107   5.153  -5.113  0.00  0.00    +0.099 C 
ATOM      4  C   UNL     1       0.849   5.209  -3.812  0.00  0.00    +0.180 C 
ATOM      5  C   UNL     1      -0.083   6.474  -3.506  0.00  0.00    +0.099 C 
ATOM      6  C   UNL     1      -1.983   5.758  -6.136  0.00  0.00    +0.061 C 
ATOM      7  C   UNL     1      -0.609   6.508  -6.201  0.00  0.00    +0.061 C 
ATOM      8  C   UNL     1      -0.439   7.401  -4.822  0.00  0.00    +0.062 C 
ATOM      9  C   UNL     1      -2.731   7.505  -5.277  0.00  0.00    +0.170 C 
ENDROOT
BRANCH   1  11
ATOM     10  C   UNL     1      -2.113   7.454  -2.926  0.00  0.00    +0.061 C 
ATOM     11  C   UNL     1      -2.158   7.298  -3.104  0.00  0.00    +0.058 C 
ATOM     12  C   UNL     1      -3.298   6.522  -2.434  0.00  0.00    +0.061 C 
ENDBRANCH   1  11
BRANCH   4  13
ATOM     13  O   UNL     1       1.991   6.183  -4.271  0.00  0.00    -0.452 OA
BRANCH  13  14
ATOM     14  C   UNL     1       3.035   5.362  -4.614  0.00  0.00    +0.323 C 
ATOM     15  O   UNL     1       3.466   4.495  -3.847  0.00  0.00    -0.250 OA
BRANCH  14  16
ATOM     16  C   UNL     1       4.200   5.808  -5.637  0.00  0.00    +0.154 C 
BRANCH  16  17
ATOM     17  C   UNL     1       3.178   5.945  -6.885  0.00  0.00    -0.009 A 
ATOM     18  C   UNL     1       2.986   7.144  -7.419  0.00  0.00    -0.004 A 
ATOM     19  C   UNL     1       2.121   7.222  -8.500  0.00  0.00    -0.000 A 
ATOM     20  C   UNL     1       1.522   6.084  -8.987  0.00  0.00    -0.000 A 
ATOM     21  C   UNL     1       1.901   4.844  -8.491  0.00  0.00    -0.000 A 
ATOM     22  C   UNL     1       2.968   4.806  -7.603  0.00  0.00    -0.004 A 
ENDBRANCH  16  17
BRANCH  16  23
ATOM     23  C   UNL     1       4.106   7.407  -5.245  0.00  0.00    +0.198 C 
ATOM     24  O   UNL     1       5.159   7.576  -4.369  0.00  0.00    -0.219 OA
ENDBRANCH  16  23
ENDBRANCH  14  16
ENDBRANCH  13  14
ENDBRANCH   4  13
TORSDOF 6
ENDMDL
MODEL 3
REMARK VINA RESULT:      -7.8      2.675      7.074
REMARK  Name = 
REMARK  6 active torsions:
REMARK  status: ('A' for Active; 'I' for Inactive)
REMARK    1  A    between atoms: C_2  and  N_4
REMARK    2  A    between atoms: C_11  and  O_12
REMARK    3  A    between atoms: O_12  and  C_13
REMARK    4  A    between atoms: C_13  and  C_15
REMARK    5  A    between atoms: C_15  and  C_16
REMARK    6  A    between atoms: C_15  and  C_18
REMARK                            x       y       z     vdW  Elec       q    Type
REMARK                         _______ _______ _______ _____ _____    ______ ____
ROOT
ATOM      1  N   UNL     1       5.047   5.656 -10.200  0.00  0.00    +0.289 N 
ATOM      2  C   UNL     1       4.207   6.967  -9.852  0.00  0.00    +0.062 C 
ATOM      3  C   UNL     1       2.919   6.484  -8.893  0.00  0.00    +0.099 C 
ATOM      4  C   UNL     1       3.493   6.404  -7.385  0.00  0.00    +0.180 C 
ATOM      5  C   UNL     1       4.683   5.663  -8.158  0.00  0.00    +0.099 C 
ATOM      6  C   UNL     1       3.270   6.359 -11.083  0.00  0.00    +0.061 C 
ATOM      7  C   UNL     1       2.848   5.178 -10.143  0.00  0.00    +0.061 C 
ATOM      8  C   UNL     1       4.195   4.638  -9.353  0.00  0.00    +0.062 C 
ATOM      9  C   UNL     1       4.992   5.249 -11.465  0.00  0.00    +0.170 C 
ENDROOT
BRANCH   1  11
ATOM     10  C   UNL     1       6.492   5.656  -9.565  0.00  0.00    +0.061 C 
ATOM     11  C   UNL     1       6.329   5.749  -9.716  0.00  0.00    +0.058 C 
ATOM     12  C   UNL     1       7.247   6.728 -10.458  0.00  0.00    +0.061 C 
ENDBRANCH   1  11
BRANCH   4  13
ATOM     13  O   UNL     1       2.965   5.008  -6.895  0.00  0.00    -0.452 OA
BRANCH  13  14
ATOM     14  C   UNL     1       2.218   5.288  -5.780  0.00  0.00    +0.323 C 
ATOM     15  O   UNL     1       1.519   4.432  -5.227  0.00  0.00    -0.250 OA
BRANCH  14  16
ATOM     16  C   UNL     1       1.622   6.755  -5.471  0.00  0.00    +0.154 C 
BRANCH  16  17
ATOM     17  C   UNL     1       0.094   6.290  -5.735  0.00  0.00    -0.009 A 
ATOM     18  C   UNL     1      -0.856   6.742  -4.926  0.00  0.00    -0.004 A 
ATOM     19  C   UNL     1      -2.156   6.340  -5.193  0.00  0.00    -0.000 A 
ATOM     20  C   UNL     1      -2.418   5.527  -6.270  0.00  0.00    -0.000 A 
ATOM     21  C   UNL     1      -1.404   5.234  -7.172  0.00  0.00    -0.000 A 
ATOM     22  C   UNL     1      -0.189   5.885  -7.005  0.00  0.00    -0.004 A 
ENDBRANCH  16  17
BRANCH  16  23
ATOM     23  C   UNL     1       1.529   6.512  -3.843  0.00  0.00    +0.198 C 
ATOM     24  O   UNL     1       2.699   7.077  -3.376  0.00  0.00    -0.219 OA
ENDBRANCH  16  23
ENDBRANCH  14  16
ENDBRANCH  13  14
ENDBRANCH   4  13
TORSDOF 6
ENDMDL
MODEL 4
REMARK VINA RESULT:      -7.7      3.351      7.524
REMARK  Name = 
REMARK  6 active torsions:
REMARK  status: ('A' for Active; 'I' for Inactive)
REMARK    1  A    between atoms: C_2  and  N_4
REMARK    2  A    between atoms: C_11  and  O_12
REMARK    3  A    between atoms: O_12  and  C_13
REMARK    4  A    between atoms: C_13  and  C_15
REMARK    5  A    between atoms: C_15  and  C_16
REMARK    6  A    between atoms: C_15  and  C_18
REMARK                            x       y       z     vdW  Elec       q    Type
REMARK                         _______ _______ _______ _____ _____    ______ ____
ROOT
ATOM      1  N   UNL     1       1.494   5.615 -11.722  0.00  0.00    +0.289 N 
ATOM      2  C   UNL     1       0.823   6.942 -11.142  0.00  0.00    +0.062 C 
ATOM      3  C   UNL     1       0.692   6.740  -9.483  0.00  0.00    +0.099 C 
ATOM      4  C   UNL     1       2.129   7.151  -8.870  0.00  0.00    +0.180 C 
ATOM      5  C   UNL     1       2.617   6.245 -10.096  0.00  0.00    +0.099 C 
ATOM      6  C   UNL     1      -0.511   5.951 -11.175  0.00  0.00    +0.061 C 
ATOM      7  C   UNL     1       0.119   5.109 -10.014  0.00  0.00    +0.061 C 
ATOM      8  C   UNL     1       1.721   4.884 -10.346  0.00  0.00    +0.062 C 
ATOM      9  C   UNL     1       0.701   4.833 -12.450  0.00  0.00    +0.170 C 
ENDROOT
BRANCH   1  11
ATOM     10  C   UNL     1       2.916   5.973 -12.306  0.00  0.00    +0.061 C 
ATOM     11  C   UNL     1       2.689   5.895 -12.336  0.00  0.00    +0.058 C 
ATOM     12  C   UNL     1       2.802   5.454 -13.800  0.00  0.00    +0.061 C 
ENDBRANCH   1  11
BRANCH   4  13
ATOM     13  O   UNL     1       2.434   5.961  -7.892  0.00  0.00    -0.452 OA
BRANCH  13  14
ATOM     14  C   UNL     1       2.095   6.433  -6.650  0.00  0.00    +0.323 C 
ATOM     15  O   UNL     1       2.612   7.448  -6.171  0.00  0.00    -0.250 OA
BRANCH  14  16
ATOM     16  C   UNL     1       1.580   5.475  -5.459  0.00  0.00    +0.154 C 
BRANCH  16  17
ATOM     17  C   UNL     1       0.062   6.031  -5.545  0.00  0.00    -0.009 A 
ATOM     18  C   UNL     1      -0.811   5.379  -6.301  0.00  0.00    -0.004 A 
ATOM     19  C   UNL     1      -2.108   5.870  -6.336  0.00  0.00    -0.000 A 
ATOM     20  C   UNL     1      -2.446   6.973  -5.588  0.00  0.00    -0.000 A 
ATOM     21  C   UNL     1      -1.529   7.500  -4.688  0.00  0.00    -0.000 A 
ATOM     22  C   UNL     1      -0.344   6.802  -4.498  0.00  0.00    -0.004 A 
ENDBRANCH  16  17
BRANCH  16  23
ATOM     23  C   UNL     1       1.280   4.193  -6.452  0.00  0.00    +0.198 C 
ATOM     24  O   UNL     1       2.336   3.343  -6.190  0.00  0.00    -0.219 OA
ENDBRANCH  16  23
ENDBRANCH  14  16
ENDBRANCH  13  14
ENDBRANCH   4  13
TORSDOF 6
ENDMDL
MODEL 5
REMARK VINA RESULT:      -7.6      2.267      3.071
REMARK  Name = 
REMARK  6 active torsions:
REMARK  status: ('A' for Active; 'I' for Inactive)
REMARK    1  A    between atoms: C_2  and  N_4
REMARK    2  A    between atoms: C_11  and  O_12
REMARK    3  A    between atoms: O_12  and  C_13
REMARK    4  A    between atoms: C_13  and  C_15
REMARK    5  A    between atoms: C_15  and  C_16
REMARK    6  A    between atoms: C_15  and  C_18
REMARK                            x       y       z     vdW  Elec       q    Type
REMARK                         _______ _______ _______ _____ _____    ______ ____
ROOT
ATOM      1  N   UNL     1       0.439   5.482  -6.135  0.00  0.00    +0.289 N 
ATOM      2  C   UNL     1       1.086   6.907  -6.449  0.00  0.00    +0.062 C 
ATOM      3  C   UNL     1       2.542   6.623  -7.230  0.00  0.00    +0.099 C 
ATOM      4  C   UNL     1       2.176   6.402  -8.787  0.00  0.00    +0.180 C 
ATOM      5  C   UNL     1       1.041   5.491  -8.121  0.00  0.00    +0.099 C 
ATOM      6  C   UNL     1       1.955   6.504  -5.091  0.00  0.00    +0.061 C 
ATOM      7  C   UNL     1       2.677   5.385  -5.918  0.00  0.00    +0.061 C 
ATOM      8  C   UNL     1       1.545   4.600  -6.828  0.00  0.00    +0.062 C 
ATOM      9  C   UNL     1       0.408   5.128  -4.853  0.00  0.00    +0.170 C 
ENDROOT
BRANCH   1  11
ATOM     10  C   UNL     1      -0.891   5.238  -6.948  0.00  0.00    +0.061 C 
ATOM     11  C   UNL     1      -0.772   5.341  -6.766  0.00  0.00    +0.058 C 
ATOM     12  C   UNL     1      -1.977   5.934  -6.026  0.00  0.00    +0.061 C 
ENDBRANCH   1  11
BRANCH   4  13
ATOM     13  O   UNL     1       2.983   5.103  -9.145  0.00  0.00    -0.452 OA
BRANCH  13  14
ATOM     14  C   UNL     1       4.171   5.559  -9.655  0.00  0.00    +0.323 C 
ATOM     15  O   UNL     1       5.217   5.543  -8.996  0.00  0.00    -0.250 OA
BRANCH  14  16
ATOM     16  C   UNL     1       4.257   6.715 -10.778  0.00  0.00    +0.154 C 
BRANCH  16  17
ATOM     17  C   UNL     1       5.795   6.370 -11.146  0.00  0.00    -0.009 A 
ATOM     18  C   UNL     1       6.036   5.427 -12.048  0.00  0.00    -0.004 A 
ATOM     19  C   UNL     1       7.364   5.171 -12.356  0.00  0.00    -0.000 A 
ATOM     20  C   UNL     1       8.362   5.897 -11.751  0.00  0.00    -0.000 A 
ATOM     21  C   UNL     1       8.033   6.982 -10.949  0.00  0.00    -0.000 A 
ATOM     22  C   UNL     1       6.698   7.359 -10.896  0.00  0.00    -0.004 A 
ENDBRANCH  16  17
BRANCH  16  23
ATOM     23  C   UNL     1       3.644   5.768 -11.979  0.00  0.00    +0.198 C 
ATOM     24  O   UNL     1       2.440   6.376 -12.273  0.00  0.00    -0.219 OA
ENDBRANCH  16  23
ENDBRANCH  14  16
ENDBRANCH  13  14
ENDBRANCH   4  13
TORSDOF 6
ENDMDL
MODEL 6
REMARK VINA RESULT:      -7.6      2.261      6.244
REMARK  Name = 
REMARK  6 active torsions:
REMARK  status: ('A' for Active; 'I' for Inactive)
REMARK    1  A    between atoms: C_2  and  N_4
REMARK    2  A    between atoms: C_11  and  O_12
REMARK    3  A    between atoms: O_12  and  C_13
REMARK    4  A    between atoms: C_13  and  C_15
REMARK    5  A    between atoms: C_15  and  C_16
REMARK    6  A    between atoms: C_15  and  C_18
REMARK                            x       y       z     vdW  Elec       q    Type
REMARK                         _______ _______ _______ _____ _____    ______ ____
ROOT
ATOM      1  N   UNL     1       3.993   6.255 -10.370  0.00  0.00    +0.289 N 
ATOM      2  C   UNL     1       4.326   4.777  -9.867  0.00  0.00    +0.062 C 
ATOM      3  C   UNL     1       3.722   4.643  -8.309  0.00  0.00    +0.099 C 
ATOM      4  C   UNL     1       2.156   4.278  -8.469  0.00  0.00    +0.180 C 
ATOM      5  C   UNL     1       2.264   5.449  -9.555  0.00  0.00    +0.099 C 
ATOM      6  C   UNL     1       5.553   5.607  -9.114  0.00  0.00    +0.061 C 
ATOM      7  C   UNL     1       4.491   6.274  -8.175  0.00  0.00    +0.061 C 
ATOM      8  C   UNL     1       3.197   6.728  -9.097  0.00  0.00    +0.062 C 
ATOM      9  C   UNL     1       5.035   7.072 -10.502  0.00  0.00    +0.170 C 
ENDROOT
BRANCH   1  11
ATOM     10  C   UNL     1       2.970   6.293 -11.571  0.00  0.00    +0.061 C 
ATOM     11  C   UNL     1       3.183   6.227 -11.477  0.00  0.00    +0.058 C 
ATOM     12  C   UNL     1       3.833   5.702 -12.763  0.00  0.00    +0.061 C 
ENDBRANCH   1  11
BRANCH   4  13
ATOM     13  O   UNL     1       1.470   5.283  -7.478  0.00  0.00    -0.452 OA
BRANCH  13  14
ATOM     14  C   UNL     1       1.527   4.665  -6.256  0.00  0.00    +0.323 C 
ATOM     15  O   UNL     1       1.323   3.453  -6.124  0.00  0.00    -0.250 OA
BRANCH  14  16
ATOM     16  C   UNL     1       1.188   5.424  -4.873  0.00  0.00    +0.154 C 
BRANCH  16  17
ATOM     17  C   UNL     1       2.737   5.809  -4.599  0.00  0.00    -0.009 A 
ATOM     18  C   UNL     1       3.623   4.829  -4.475  0.00  0.00    -0.004 A 
ATOM     19  C   UNL     1       4.943   5.195  -4.262  0.00  0.00    -0.000 A 
ATOM     20  C   UNL     1       5.289   6.524  -4.208  0.00  0.00    -0.000 A 
ATOM     21  C   UNL     1       4.343   7.493  -4.517  0.00  0.00    -0.000 A 
ATOM     22  C   UNL     1       3.112   7.060  -4.989  0.00  0.00    -0.004 A 
ENDBRANCH  16  17
BRANCH  16  23
ATOM     23  C   UNL     1       0.847   6.863  -5.601  0.00  0.00    +0.198 C 
ATOM     24  O   UNL     1      -0.440   7.128  -5.180  0.00  0.00    -0.219 OA
ENDBRANCH  16  23
ENDBRANCH  14  16
ENDBRANCH  13  14
ENDBRANCH   4  13
TORSDOF 6
ENDMDL
MODEL 7
REMARK VINA RESULT:      -7.5      4.239      6.390
REMARK  Name = 
REMARK  6 active torsions:
REMARK  status: ('A' for Active; 'I' for Inactive)
REMARK    1  A    between atoms: C_2  and  N_4
REMARK    2  A    between atoms: C_11  and  O_12
REMARK    3  A    between atoms: O_12  and  C_13
REMARK    4  A    between atoms: C_13  and  C_15
REMARK    5  A    between atoms: C_15  and  C_16
REMARK    6  A    between atoms: C_15  and  C_18
REMARK                            x       y       z     vdW  Elec       q    Type
REMARK                         _______ _______ _______ _____ _____    ______ ____
ROOT
ATOM      1  N   UNL     1      -1.314   6.943  -3.652  0.00  0.00    +0.289 N 
ATOM      2  C   UNL     1      -1.111   5.367  -3.801  0.00  0.00    +0.062 C 
ATOM      3  C   UNL     1       0.474   5.033  -3.368  0.00  0.00    +0.099 C 
ATOM      4  C   UNL     1       0.480   4.922  -1.757  0.00  0.00    +0.180 C 
ATOM      5  C   UNL     1      -0.404   6.245  -1.923  0.00  0.00    +0.099 C 
ATOM      6  C   UNL     1      -0.415   5.869  -5.224  0.00  0.00    +0.061 C 
ATOM      7  C   UNL     1       0.762   6.492  -4.397  0.00  0.00    +0.061 C 
ATOM      8  C   UNL     1       0.120   7.280  -3.095  0.00  0.00    +0.062 C 
ATOM      9  C   UNL     1      -1.457   7.620  -4.788  0.00  0.00    +0.170 C 
ENDROOT
BRANCH   1  11
ATOM     10  C   UNL     1      -2.357   7.382  -2.553  0.00  0.00    +0.061 C 
ATOM     11  C   UNL     1      -2.284   7.229  -2.725  0.00  0.00    +0.058 C 
ATOM     12  C   UNL     1      -3.550   6.367  -2.801  0.00  0.00    +0.061 C 
ENDBRANCH   1  11
BRANCH   4  13
ATOM     13  O   UNL     1       1.710   5.813  -1.359  0.00  0.00    -0.452 OA
BRANCH  13  14
ATOM     14  C   UNL     1       2.746   4.930  -1.201  0.00  0.00    +0.323 C 
ATOM     15  O   UNL     1       2.596   3.836  -0.646  0.00  0.00    -0.250 OA
BRANCH  14  16
ATOM     16  C   UNL     1       4.284   5.400  -1.064  0.00  0.00    +0.154 C 
BRANCH  16  17
ATOM     17  C   UNL     1       4.343   5.960  -2.582  0.00  0.00    -0.009 A 
ATOM     18  C   UNL     1       4.725   7.214  -2.782  0.00  0.00    -0.004 A 
ATOM     19  C   UNL     1       4.784   7.656  -4.095  0.00  0.00    -0.000 A 
ATOM     20  C   UNL     1       4.476   6.797  -5.124  0.00  0.00    -0.000 A 
ATOM     21  C   UNL     1       4.253   5.453  -4.853  0.00  0.00    -0.000 A 
ATOM     22  C   UNL     1       4.474   5.015  -3.555  0.00  0.00    -0.004 A 
ENDBRANCH  16  17
BRANCH  16  23
ATOM     23  C   UNL     1       3.909   6.871  -0.422  0.00  0.00    +0.198 C 
ATOM     24  O   UNL     1       4.083   6.673   0.933  0.00  0.00    -0.219 OA
ENDBRANCH  16  23
ENDBRANCH  14  16
ENDBRANCH  13  14
ENDBRANCH   4  13
TORSDOF 6
ENDMDL
MODEL 8
REMARK VINA RESULT:      -7.5      2.453      4.623
REMARK  Name = 
REMARK  6 active torsions:
REMARK  status: ('A' for Active; 'I' for Inactive)
REMARK    1  A    between atoms: C_2  and  N_4
REMARK    2  A    between atoms: C_11  and  O_12
REMARK    3  A    between atoms: O_12  and  C_13
REMARK    4  A    between atoms: C_13  and  C_15
REMARK    5  A    between atoms: C_15  and  C_16
REMARK    6  A    between atoms: C_15  and  C_18
REMARK                            x       y       z     vdW  Elec       q    Type
REMARK                         _______ _______ _______ _____ _____    ______ ____
ROOT
ATOM      1  N   UNL     1      -0.936   6.204  -3.163  0.00  0.00    +0.289 N 
ATOM      2  C   UNL     1      -1.834   5.460  -4.253  0.00  0.00    +0.062 C 
ATOM      3  C   UNL     1      -1.457   6.134  -5.741  0.00  0.00    +0.099 C 
ATOM      4  C   UNL     1      -0.130   5.367  -6.253  0.00  0.00    +0.180 C 
ATOM      5  C   UNL     1       0.296   5.641  -4.735  0.00  0.00    +0.099 C 
ATOM      6  C   UNL     1      -2.725   6.850  -4.065  0.00  0.00    +0.061 C 
ATOM      7  C   UNL     1      -1.575   7.651  -4.764  0.00  0.00    +0.061 C 
ATOM      8  C   UNL     1      -0.132   7.125  -4.157  0.00  0.00    +0.062 C 
ATOM      9  C   UNL     1      -1.585   7.011  -2.327  0.00  0.00    +0.170 C 
ENDROOT
BRANCH   1  11
ATOM     10  C   UNL     1       0.027   5.118  -2.545  0.00  0.00    +0.061 C 
ATOM     11  C   UNL     1      -0.102   5.321  -2.524  0.00  0.00    +0.058 C 
ATOM     12  C   UNL     1       0.391   5.757  -1.140  0.00  0.00    +0.061 C 
ENDBRANCH   1  11
BRANCH   4  13
ATOM     13  O   UNL     1       0.793   6.553  -6.708  0.00  0.00    -0.452 OA
BRANCH  13  14
ATOM     14  C   UNL     1       1.719   5.977  -7.539  0.00  0.00    +0.323 C 
ATOM     15  O   UNL     1       1.622   4.803  -7.916  0.00  0.00    -0.250 OA
BRANCH  14  16
ATOM     16  C   UNL     1       3.267   6.431  -7.575  0.00  0.00    +0.154 C 
BRANCH  16  17
ATOM     17  C   UNL     1       3.476   6.163  -5.992  0.00  0.00    -0.009 A 
ATOM     18  C   UNL     1       3.829   4.947  -5.595  0.00  0.00    -0.004 A 
ATOM     19  C   UNL     1       4.021   4.758  -4.234  0.00  0.00    -0.000 A 
ATOM     20  C   UNL     1       3.865   5.811  -3.364  0.00  0.00    -0.000 A 
ATOM     21  C   UNL     1       3.664   7.091  -3.864  0.00  0.00    -0.000 A 
ATOM     22  C   UNL     1       3.753   7.264  -5.239  0.00  0.00    -0.004 A 
ENDBRANCH  16  17
BRANCH  16  23
ATOM     23  C   UNL     1       3.823   4.941  -8.010  0.00  0.00    +0.198 C 
ATOM     24  O   UNL     1       4.744   5.228  -8.997  0.00  0.00    -0.219 OA
ENDBRANCH  16  23
ENDBRANCH  14  16
ENDBRANCH  13  14
ENDBRANCH   4  13
TORSDOF 6
ENDMDL
MODEL 9
REMARK VINA RESULT:      -7.4      3.562      7.124
REMARK  Name = 
REMARK  6 active torsions:
REMARK  status: ('A' for Active; 'I' for Inactive)
REMARK    1  A    between atoms: C_2  and  N_4
REMARK    2  A    between atoms: C_11  and  O_12
REMARK    3  A    between atoms: O_12  and  C_13
REMARK    4  A    between atoms: C_13  and  C_15
REMARK    5  A    between atoms: C_15  and  C_16
REMARK    6  A    between atoms: C_15  and  C_18
REMARK                            x       y       z     vdW  Elec       q    Type
REMARK                         _______ _______ _______ _____ _____    ______ ____
ROOT
ATOM      1  N   UNL     1       5.640   6.120 -12.523  0.00  0.00    +0.289 N 
ATOM      2  C   UNL     1       6.517   5.355 -11.431  0.00  0.00    +0.062 C 
ATOM      3  C   UNL     1       6.167   6.053  -9.947  0.00  0.00    +0.099 C 
ATOM      4  C   UNL     1       4.818   5.335  -9.425  0.00  0.00    +0.180 C 
ATOM      5  C   UNL     1       4.396   5.610 -10.944  0.00  0.00    +0.099 C 
ATOM      6  C   UNL     1       7.453   6.714 -11.633  0.00  0.00    +0.061 C 
ATOM      7  C   UNL     1       6.332   7.558 -10.936  0.00  0.00    +0.061 C 
ATOM      8  C   UNL     1       4.870   7.074 -11.535  0.00  0.00    +0.062 C 
ATOM      9  C   UNL     1       6.313   6.898 -13.368  0.00  0.00    +0.170 C 
ENDROOT
BRANCH   1  11
ATOM     10  C   UNL     1       4.673   5.040 -13.147  0.00  0.00    +0.061 C 
ATOM     11  C   UNL     1       4.776   5.258 -13.152  0.00  0.00    +0.058 C 
ATOM     12  C   UNL     1       3.963   5.859 -14.305  0.00  0.00    +0.061 C 
ENDBRANCH   1  11
BRANCH   4  13
ATOM     13  O   UNL     1       3.936   6.554  -8.977  0.00  0.00    -0.452 OA
BRANCH  13  14
ATOM     14  C   UNL     1       3.017   6.021  -8.110  0.00  0.00    +0.323 C 
ATOM     15  O   UNL     1       3.069   4.843  -7.741  0.00  0.00    -0.250 OA
BRANCH  14  16
ATOM     16  C   UNL     1       1.496   6.552  -8.010  0.00  0.00    +0.154 C 
BRANCH  16  17
ATOM     17  C   UNL     1       1.113   6.007  -9.485  0.00  0.00    -0.009 A 
ATOM     18  C   UNL     1       0.572   4.801  -9.595  0.00  0.00    -0.004 A 
ATOM     19  C   UNL     1       0.236   4.373 -10.871  0.00  0.00    -0.000 A 
ATOM     20  C   UNL     1       0.447   5.198 -11.951  0.00  0.00    -0.000 A 
ATOM     21  C   UNL     1       0.854   6.510 -11.744  0.00  0.00    -0.000 A 
ATOM     22  C   UNL     1       0.912   6.964 -10.434  0.00  0.00    -0.004 A 
ENDBRANCH  16  17
BRANCH  16  23
ATOM     23  C   UNL     1       0.941   5.200  -7.248  0.00  0.00    +0.198 C 
ATOM     24  O   UNL     1       0.193   5.713  -6.208  0.00  0.00    -0.219 OA
ENDBRANCH  16  23
ENDBRANCH  14  16
ENDBRANCH  13  14
ENDBRANCH   4  13
TORSDOF 6
ENDMDL
