MODEL 1
REMARK VINA RESULT:      -8.5      0.000      0.000
REMARK  Name = 
REMARK  1 active torsions:
REMARK  status: ('A' for Active; 'I' for Inactive)
REMARK    1  A    between atoms: C_12  and  C_13
REMARK                            x       y       z     vdW  Elec       q    Type
REMARK                         _______ _______ _______ _____ _____    ______ ____
ROOT
ATOM      1  C   UNL     1       0.330   5.076 -11.550  0.00  0.00    +0.306 C 
ATOM      2  N   UNL     1       1.521   5.149 -10.708  0.00  0.00    -0.024 NA
ATOM      3  C   UNL     1       1.374   4.913  -9.303  0.00  0.00    +0.419 C 
ATOM      4  C   UNL     1       2.503   4.260  -8.590  0.00  0.00    +0.450 C 
ATOM      5  N   UNL     1       2.910   4.992  -7.415  0.00  0.00    -0.172 N 
ATOM      6  O   UNL     1       4.231   5.406  -7.457  0.00  0.00    -0.623 OA
ATOM      7  C   UNL     1       2.223   5.479  -6.424  0.00  0.00    +0.235 C 
ATOM      8  C   UNL     1       0.772   5.715  -6.413  0.00  0.00    +0.108 A 
ATOM      9  C   UNL     1      -0.142   5.571  -7.450  0.00  0.00    +0.199 A 
ATOM     10  C   UNL     1      -1.491   5.385  -7.201  0.00  0.00    +0.048 A 
ATOM     11  C   UNL     1      -1.892   5.486  -5.875  0.00  0.00    +0.015 A 
ATOM     12  C   UNL     1      -1.000   5.743  -4.867  0.00  0.00    +0.058 A 
ATOM     13 CL   UNL     1      -1.571   6.074  -3.255  0.00  0.00    -0.082 Cl
ATOM     14  C   UNL     1       0.348   5.926  -5.131  0.00  0.00    +0.021 A 
ATOM     15  N   UNL     1       0.224   5.242  -8.790  0.00  0.00    -0.034 NA
ENDROOT
BRANCH   7  16
ATOM     16  C   UNL     1       2.994   5.883  -5.259  0.00  0.00    +0.064 A 
ATOM     17  C   UNL     1       3.770   4.899  -4.662  0.00  0.00    +0.006 A 
ATOM     18  C   UNL     1       4.875   5.201  -3.910  0.00  0.00    +0.000 A 
ATOM     19  C   UNL     1       5.374   6.496  -3.906  0.00  0.00    +0.000 A 
ATOM     20  C   UNL     1       4.630   7.502  -4.486  0.00  0.00    +0.000 A 
ATOM     21  C   UNL     1       3.569   7.142  -5.302  0.00  0.00    +0.006 A 
ENDBRANCH   7  16
TORSDOF 1
ENDMDL
MODEL 2
REMARK VINA RESULT:      -8.1      4.065      5.963
REMARK  Name = 
REMARK  1 active torsions:
REMARK  status: ('A' for Active; 'I' for Inactive)
REMARK    1  A    between atoms: C_12  and  C_13
REMARK                            x       y       z     vdW  Elec       q    Type
REMARK                         _______ _______ _______ _____ _____    ______ ____
ROOT
ATOM      1  C   UNL     1       0.973   4.205  -5.956  0.00  0.00    +0.306 C 
ATOM      2  N   UNL     1       2.298   4.523  -6.481  0.00  0.00    -0.024 NA
ATOM      3  C   UNL     1       2.388   5.404  -7.606  0.00  0.00    +0.419 C 
ATOM      4  C   UNL     1       3.573   6.299  -7.690  0.00  0.00    +0.450 C 
ATOM      5  N   UNL     1       4.241   6.210  -8.966  0.00  0.00    -0.172 N 
ATOM      6  O   UNL     1       5.561   5.803  -8.866  0.00  0.00    -0.623 OA
ATOM      7  C   UNL     1       3.785   6.268 -10.182  0.00  0.00    +0.235 C 
ATOM      8  C   UNL     1       2.382   6.091 -10.587  0.00  0.00    +0.108 A 
ATOM      9  C   UNL     1       1.288   5.739  -9.806  0.00  0.00    +0.199 A 
ATOM     10  C   UNL     1      -0.004   6.044 -10.196  0.00  0.00    +0.048 A 
ATOM     11  C   UNL     1      -0.151   6.596 -11.463  0.00  0.00    +0.015 A 
ATOM     12  C   UNL     1       0.926   6.837 -12.276  0.00  0.00    +0.058 A 
ATOM     13 CL   UNL     1       0.682   7.326 -13.930  0.00  0.00    -0.082 Cl
ATOM     14  C   UNL     1       2.214   6.527 -11.872  0.00  0.00    +0.021 A 
ATOM     15  N   UNL     1       1.379   5.380  -8.427  0.00  0.00    -0.034 NA
ENDROOT
BRANCH   7  16
ATOM     16  C   UNL     1       4.782   6.457 -11.224  0.00  0.00    +0.064 A 
ATOM     17  C   UNL     1       5.589   7.580 -11.107  0.00  0.00    +0.006 A 
ATOM     18  C   UNL     1       6.831   7.645 -11.682  0.00  0.00    +0.000 A 
ATOM     19  C   UNL     1       7.406   6.500 -12.215  0.00  0.00    +0.000 A 
ATOM     20  C   UNL     1       6.635   5.365 -12.350  0.00  0.00    +0.000 A 
ATOM     21  C   UNL     1       5.420   5.317 -11.684  0.00  0.00    +0.006 A 
ENDBRANCH   7  16
TORSDOF 1
ENDMDL
MODEL 3
REMARK VINA RESULT:      -8.1      3.234      6.509
REMARK  Name = 
REMARK  1 active torsions:
REMARK  status: ('A' for Active; 'I' for Inactive)
REMARK    1  A    between atoms: C_12  and  C_13
REMARK                            x       y       z     vdW  Elec       q    Type
REMARK                         _______ _______ _______ _____ _____    ______ ____
ROOT
ATOM      1  C   UNL     1       2.891   5.876  -3.160  0.00  0.00    +0.306 C 
ATOM      2  N   UNL     1       1.730   5.792  -4.041  0.00  0.00    -0.024 NA
ATOM      3  C   UNL     1       1.924   5.310  -5.376  0.00  0.00    +0.419 C 
ATOM      4  C   UNL     1       0.819   4.534  -5.998  0.00  0.00    +0.450 C 
ATOM      5  N   UNL     1       0.452   5.044  -7.298  0.00  0.00    -0.172 N 
ATOM      6  O   UNL     1      -0.869   5.451  -7.374  0.00  0.00    -0.623 OA
ATOM      7  C   UNL     1       1.173   5.349  -8.336  0.00  0.00    +0.235 C 
ATOM      8  C   UNL     1       2.624   5.588  -8.340  0.00  0.00    +0.108 A 
ATOM      9  C   UNL     1       3.502   5.635  -7.265  0.00  0.00    +0.199 A 
ATOM     10  C   UNL     1       4.858   5.416  -7.431  0.00  0.00    +0.048 A 
ATOM     11  C   UNL     1       5.304   5.281  -8.740  0.00  0.00    +0.015 A 
ATOM     12  C   UNL     1       4.446   5.349  -9.807  0.00  0.00    +0.058 A 
ATOM     13 CL   UNL     1       5.072   5.392 -11.432  0.00  0.00    -0.082 Cl
ATOM     14  C   UNL     1       3.091   5.569  -9.625  0.00  0.00    +0.021 A 
ATOM     15  N   UNL     1       3.091   5.549  -5.900  0.00  0.00    -0.034 NA
ENDROOT
BRANCH   7  16
ATOM     16  C   UNL     1       0.442   5.535  -9.580  0.00  0.00    +0.064 A 
ATOM     17  C   UNL     1       0.469   6.812 -10.124  0.00  0.00    +0.006 A 
ATOM     18  C   UNL     1       0.270   7.036 -11.461  0.00  0.00    +0.000 A 
ATOM     19  C   UNL     1       0.252   5.967 -12.345  0.00  0.00    +0.000 A 
ATOM     20  C   UNL     1       0.221   4.683 -11.843  0.00  0.00    +0.000 A 
ATOM     21  C   UNL     1       0.507   4.501 -10.498  0.00  0.00    +0.006 A 
ENDBRANCH   7  16
TORSDOF 1
ENDMDL
MODEL 4
REMARK VINA RESULT:      -8.1      2.475      4.953
REMARK  Name = 
REMARK  1 active torsions:
REMARK  status: ('A' for Active; 'I' for Inactive)
REMARK    1  A    between atoms: C_12  and  C_13
REMARK                            x       y       z     vdW  Elec       q    Type
REMARK                         _______ _______ _______ _____ _____    ______ ____
ROOT
ATOM      1  C   UNL     1       4.022   4.277  -9.200  0.00  0.00    +0.306 C 
ATOM      2  N   UNL     1       2.654   4.486  -8.733  0.00  0.00    -0.024 NA
ATOM      3  C   UNL     1       2.425   5.475  -7.723  0.00  0.00    +0.419 C 
ATOM      4  C   UNL     1       1.137   6.217  -7.762  0.00  0.00    +0.450 C 
ATOM      5  N   UNL     1       0.450   6.196  -6.493  0.00  0.00    -0.172 N 
ATOM      6  O   UNL     1      -0.806   5.619  -6.559  0.00  0.00    -0.623 OA
ATOM      7  C   UNL     1       0.863   6.455  -5.287  0.00  0.00    +0.235 C 
ATOM      8  C   UNL     1       2.265   6.504  -4.847  0.00  0.00    +0.108 A 
ATOM      9  C   UNL     1       3.415   6.202  -5.566  0.00  0.00    +0.199 A 
ATOM     10  C   UNL     1       4.649   6.711  -5.200  0.00  0.00    +0.048 A 
ATOM     11  C   UNL     1       4.692   7.423  -4.007  0.00  0.00    +0.015 A 
ATOM     12  C   UNL     1       3.572   7.621  -3.242  0.00  0.00    +0.058 A 
ATOM     13 CL   UNL     1       3.709   8.328  -1.656  0.00  0.00    -0.082 Cl
ATOM     14  C   UNL     1       2.344   7.106  -3.622  0.00  0.00    +0.021 A 
ATOM     15  N   UNL     1       3.407   5.675  -6.893  0.00  0.00    -0.034 NA
ENDROOT
BRANCH   7  16
ATOM     16  C   UNL     1      -0.178   6.638  -4.288  0.00  0.00    +0.064 A 
ATOM     17  C   UNL     1      -1.128   7.613  -4.560  0.00  0.00    +0.006 A 
ATOM     18  C   UNL     1      -2.382   7.579  -4.010  0.00  0.00    +0.000 A 
ATOM     19  C   UNL     1      -2.808   6.446  -3.332  0.00  0.00    +0.000 A 
ATOM     20  C   UNL     1      -1.893   5.457  -3.040  0.00  0.00    +0.000 A 
ATOM     21  C   UNL     1      -0.666   5.491  -3.684  0.00  0.00    +0.006 A 
ENDBRANCH   7  16
TORSDOF 1
ENDMDL
MODEL 5
REMARK VINA RESULT:      -8.0      3.925      6.720
REMARK  Name = 
REMARK  1 active torsions:
REMARK  status: ('A' for Active; 'I' for Inactive)
REMARK    1  A    between atoms: C_12  and  C_13
REMARK                            x       y       z     vdW  Elec       q    Type
REMARK                         _______ _______ _______ _____ _____    ______ ____
ROOT
ATOM      1  C   UNL     1       4.585   6.621   0.024  0.00  0.00    +0.306 C 
ATOM      2  N   UNL     1       3.188   6.227  -0.130  0.00  0.00    -0.024 NA
ATOM      3  C   UNL     1       2.713   5.911  -1.444  0.00  0.00    +0.419 C 
ATOM      4  C   UNL     1       1.664   4.865  -1.566  0.00  0.00    +0.450 C 
ATOM      5  N   UNL     1       0.531   5.309  -2.344  0.00  0.00    -0.172 N 
ATOM      6  O   UNL     1      -0.661   5.283  -1.640  0.00  0.00    -0.623 OA
ATOM      7  C   UNL     1       0.460   5.886  -3.506  0.00  0.00    +0.235 C 
ATOM      8  C   UNL     1       1.562   6.569  -4.201  0.00  0.00    +0.108 A 
ATOM      9  C   UNL     1       2.849   6.827  -3.747  0.00  0.00    +0.199 A 
ATOM     10  C   UNL     1       3.892   7.055  -4.629  0.00  0.00    +0.048 A 
ATOM     11  C   UNL     1       3.552   7.146  -5.973  0.00  0.00    +0.015 A 
ATOM     12  C   UNL     1       2.259   7.003  -6.404  0.00  0.00    +0.058 A 
ATOM     13 CL   UNL     1       1.847   7.336  -8.064  0.00  0.00    -0.082 Cl
ATOM     14  C   UNL     1       1.226   6.774  -5.510  0.00  0.00    +0.021 A 
ATOM     15  N   UNL     1       3.299   6.535  -2.424  0.00  0.00    -0.034 NA
ENDROOT
BRANCH   7  16
ATOM     16  C   UNL     1      -0.858   5.906  -4.122  0.00  0.00    +0.064 A 
ATOM     17  C   UNL     1      -1.546   7.110  -4.065  0.00  0.00    +0.006 A 
ATOM     18  C   UNL     1      -2.521   7.434  -4.971  0.00  0.00    +0.000 A 
ATOM     19  C   UNL     1      -2.696   6.653  -6.105  0.00  0.00    +0.000 A 
ATOM     20  C   UNL     1      -2.032   5.448  -6.197  0.00  0.00    +0.000 A 
ATOM     21  C   UNL     1      -0.999   5.202  -5.307  0.00  0.00    +0.006 A 
ENDBRANCH   7  16
TORSDOF 1
ENDMDL
MODEL 6
REMARK VINA RESULT:      -8.0      3.251      4.746
REMARK  Name = 
REMARK  1 active torsions:
REMARK  status: ('A' for Active; 'I' for Inactive)
REMARK    1  A    between atoms: C_12  and  C_13
REMARK                            x       y       z     vdW  Elec       q    Type
REMARK                         _______ _______ _______ _____ _____    ______ ____
ROOT
ATOM      1  C   UNL     1      -0.210   4.691 -11.241  0.00  0.00    +0.306 C 
ATOM      2  N   UNL     1       0.005   4.990  -9.827  0.00  0.00    -0.024 NA
ATOM      3  C   UNL     1       1.250   5.584  -9.442  0.00  0.00    +0.419 C 
ATOM      4  C   UNL     1       1.237   6.534  -8.298  0.00  0.00    +0.450 C 
ATOM      5  N   UNL     1       2.224   6.204  -7.297  0.00  0.00    -0.172 N 
ATOM      6  O   UNL     1       1.676   5.950  -6.051  0.00  0.00    -0.623 OA
ATOM      7  C   UNL     1       3.491   5.933  -7.396  0.00  0.00    +0.235 C 
ATOM      8  C   UNL     1       4.197   5.543  -8.626  0.00  0.00    +0.108 A 
ATOM      9  C   UNL     1       3.674   5.291  -9.888  0.00  0.00    +0.199 A 
ATOM     10  C   UNL     1       4.459   5.381 -11.024  0.00  0.00    +0.048 A 
ATOM     11  C   UNL     1       5.815   5.603 -10.820  0.00  0.00    +0.015 A 
ATOM     12  C   UNL     1       6.345   5.738  -9.564  0.00  0.00    +0.058 A 
ATOM     13 CL   UNL     1       8.072   5.799  -9.343  0.00  0.00    -0.082 Cl
ATOM     14  C   UNL     1       5.547   5.646  -8.435  0.00  0.00    +0.021 A 
ATOM     15  N   UNL     1       2.277   5.278 -10.180  0.00  0.00    -0.034 NA
ENDROOT
BRANCH   7  16
ATOM     16  C   UNL     1       4.242   5.956  -6.150  0.00  0.00    +0.064 A 
ATOM     17  C   UNL     1       4.251   7.160  -5.459  0.00  0.00    +0.006 A 
ATOM     18  C   UNL     1       4.472   7.221  -4.109  0.00  0.00    +0.000 A 
ATOM     19  C   UNL     1       4.476   6.055  -3.357  0.00  0.00    +0.000 A 
ATOM     20  C   UNL     1       4.471   4.839  -4.007  0.00  0.00    +0.000 A 
ATOM     21  C   UNL     1       4.164   4.822  -5.358  0.00  0.00    +0.006 A 
ENDBRANCH   7  16
TORSDOF 1
ENDMDL
MODEL 7
REMARK VINA RESULT:      -8.0      2.422      4.932
REMARK  Name = 
REMARK  1 active torsions:
REMARK  status: ('A' for Active; 'I' for Inactive)
REMARK    1  A    between atoms: C_12  and  C_13
REMARK                            x       y       z     vdW  Elec       q    Type
REMARK                         _______ _______ _______ _____ _____    ______ ____
ROOT
ATOM      1  C   UNL     1       5.953   5.191  -8.699  0.00  0.00    +0.306 C 
ATOM      2  N   UNL     1       4.548   5.587  -8.748  0.00  0.00    -0.024 NA
ATOM      3  C   UNL     1       3.916   5.996  -7.529  0.00  0.00    +0.419 C 
ATOM      4  C   UNL     1       2.863   7.042  -7.614  0.00  0.00    +0.450 C 
ATOM      5  N   UNL     1       1.642   6.649  -6.951  0.00  0.00    -0.172 N 
ATOM      6  O   UNL     1       0.546   6.616  -7.796  0.00  0.00    -0.623 OA
ATOM      7  C   UNL     1       1.426   6.159  -5.767  0.00  0.00    +0.235 C 
ATOM      8  C   UNL     1       2.433   5.536  -4.894  0.00  0.00    +0.108 A 
ATOM      9  C   UNL     1       3.765   5.253  -5.165  0.00  0.00    +0.199 A 
ATOM     10  C   UNL     1       4.691   5.096  -4.147  0.00  0.00    +0.048 A 
ATOM     11  C   UNL     1       4.188   5.103  -2.852  0.00  0.00    +0.015 A 
ATOM     12  C   UNL     1       2.852   5.269  -2.596  0.00  0.00    +0.058 A 
ATOM     13 CL   UNL     1       2.238   5.056  -0.979  0.00  0.00    -0.082 Cl
ATOM     14  C   UNL     1       1.938   5.425  -3.624  0.00  0.00    +0.021 A 
ATOM     15  N   UNL     1       4.375   5.449  -6.441  0.00  0.00    -0.034 NA
ENDROOT
BRANCH   7  16
ATOM     16  C   UNL     1       0.043   6.176  -5.317  0.00  0.00    +0.064 A 
ATOM     17  C   UNL     1      -0.465   7.411  -4.937  0.00  0.00    +0.006 A 
ATOM     18  C   UNL     1      -1.808   7.683  -4.964  0.00  0.00    +0.000 A 
ATOM     19  C   UNL     1      -2.680   6.798  -5.581  0.00  0.00    +0.000 A 
ATOM     20  C   UNL     1      -2.213   5.560  -5.970  0.00  0.00    +0.000 A 
ATOM     21  C   UNL     1      -0.842   5.359  -6.002  0.00  0.00    +0.006 A 
ENDBRANCH   7  16
TORSDOF 1
ENDMDL
MODEL 8
REMARK VINA RESULT:      -7.9      1.613      1.728
REMARK  Name = 
REMARK  1 active torsions:
REMARK  status: ('A' for Active; 'I' for Inactive)
REMARK    1  A    between atoms: C_12  and  C_13
REMARK                            x       y       z     vdW  Elec       q    Type
REMARK                         _______ _______ _______ _____ _____    ______ ____
ROOT
ATOM      1  C   UNL     1       0.972   4.634 -10.110  0.00  0.00    +0.306 C 
ATOM      2  N   UNL     1       1.964   4.739  -9.043  0.00  0.00    -0.024 NA
ATOM      3  C   UNL     1       1.501   4.764  -7.688  0.00  0.00    +0.419 C 
ATOM      4  C   UNL     1       2.366   4.140  -6.652  0.00  0.00    +0.450 C 
ATOM      5  N   UNL     1       2.615   5.023  -5.537  0.00  0.00    -0.172 N 
ATOM      6  O   UNL     1       3.958   5.296  -5.343  0.00  0.00    -0.623 OA
ATOM      7  C   UNL     1       1.808   5.735  -4.808  0.00  0.00    +0.235 C 
ATOM      8  C   UNL     1       0.428   6.105  -5.157  0.00  0.00    +0.108 A 
ATOM      9  C   UNL     1      -0.264   5.871  -6.339  0.00  0.00    +0.199 A 
ATOM     10  C   UNL     1      -1.648   5.859  -6.373  0.00  0.00    +0.048 A 
ATOM     11  C   UNL     1      -2.296   6.224  -5.201  0.00  0.00    +0.015 A 
ATOM     12  C   UNL     1      -1.604   6.566  -4.068  0.00  0.00    +0.058 A 
ATOM     13 CL   UNL     1      -2.447   7.223  -2.692  0.00  0.00    -0.082 Cl
ATOM     14  C   UNL     1      -0.219   6.573  -4.048  0.00  0.00    +0.021 A 
ATOM     15  N   UNL     1       0.323   5.283  -7.500  0.00  0.00    -0.034 NA
ENDROOT
BRANCH   7  16
ATOM     16  C   UNL     1       2.369   6.260  -3.573  0.00  0.00    +0.064 A 
ATOM     17  C   UNL     1       2.828   5.322  -2.658  0.00  0.00    +0.006 A 
ATOM     18  C   UNL     1       3.782   5.627  -1.723  0.00  0.00    +0.000 A 
ATOM     19  C   UNL     1       4.474   6.827  -1.807  0.00  0.00    +0.000 A 
ATOM     20  C   UNL     1       4.045   7.785  -2.702  0.00  0.00    +0.000 A 
ATOM     21  C   UNL     1       3.138   7.407  -3.680  0.00  0.00    +0.006 A 
ENDBRANCH   7  16
TORSDOF 1
ENDMDL
MODEL 9
REMARK VINA RESULT:      -7.7      2.411      5.056
REMARK  Name = 
REMARK  1 active torsions:
REMARK  status: ('A' for Active; 'I' for Inactive)
REMARK    1  A    between atoms: C_12  and  C_13
REMARK                            x       y       z     vdW  Elec       q    Type
REMARK                         _______ _______ _______ _____ _____    ______ ____
ROOT
ATOM      1  C   UNL     1       3.704   6.195  -0.595  0.00  0.00    +0.306 C 
ATOM      2  N   UNL     1       4.217   6.196  -1.962  0.00  0.00    -0.024 NA
ATOM      3  C   UNL     1       3.309   6.500  -3.027  0.00  0.00    +0.419 C 
ATOM      4  C   UNL     1       3.850   7.217  -4.212  0.00  0.00    +0.450 C 
ATOM      5  N   UNL     1       3.522   6.556  -5.453  0.00  0.00    -0.172 N 
ATOM      6  O   UNL     1       4.636   6.174  -6.181  0.00  0.00    -0.623 OA
ATOM      7  C   UNL     1       2.393   6.106  -5.915  0.00  0.00    +0.235 C 
ATOM      8  C   UNL     1       1.184   5.835  -5.124  0.00  0.00    +0.108 A 
ATOM      9  C   UNL     1       1.010   5.902  -3.747  0.00  0.00    +0.199 A 
ATOM     10  C   UNL     1      -0.245   6.068  -3.186  0.00  0.00    +0.048 A 
ATOM     11  C   UNL     1      -1.321   6.026  -4.063  0.00  0.00    +0.015 A 
ATOM     12  C   UNL     1      -1.150   5.844  -5.410  0.00  0.00    +0.058 A 
ATOM     13 CL   UNL     1      -2.530   5.582  -6.441  0.00  0.00    -0.082 Cl
ATOM     14  C   UNL     1       0.112   5.680  -5.958  0.00  0.00    +0.021 A 
ATOM     15  N   UNL     1       2.067   6.170  -2.825  0.00  0.00    -0.034 NA
ENDROOT
BRANCH   7  16
ATOM     16  C   UNL     1       2.375   5.781  -7.332  0.00  0.00    +0.064 A 
ATOM     17  C   UNL     1       2.714   6.807  -8.203  0.00  0.00    +0.006 A 
ATOM     18  C   UNL     1       3.206   6.562  -9.458  0.00  0.00    +0.000 A 
ATOM     19  C   UNL     1       3.583   5.275  -9.813  0.00  0.00    +0.000 A 
ATOM     20  C   UNL     1       3.260   4.228  -8.975  0.00  0.00    +0.000 A 
ATOM     21  C   UNL     1       2.843   4.527  -7.687  0.00  0.00    +0.006 A 
ENDBRANCH   7  16
TORSDOF 1
ENDMDL
