MODEL 1
REMARK VINA RESULT:      -6.3      0.000      0.000
REMARK  Name = 
REMARK  5 active torsions:
REMARK  status: ('A' for Active; 'I' for Inactive)
REMARK    1  A    between atoms: C_2  and  C_3
REMARK    2  A    between atoms: C_5  and  C_6
REMARK    3  A    between atoms: C_5  and  O_8
REMARK    4  A    between atoms: O_8  and  C_9
REMARK    5  A    between atoms: C_11  and  C_12
REMARK                            x       y       z     vdW  Elec       q    Type
REMARK                         _______ _______ _______ _____ _____    ______ ____
ROOT
ATOM      1  O   UNL     1       0.989   6.276  -4.522  0.00  0.00    -0.303 OA
ENDROOT
BRANCH   1   2
ATOM      2  C   UNL     1      -0.401   5.792  -4.106  0.00  0.00    +0.271 C 
ATOM      3  C   UNL     1      -1.116   6.952  -5.207  0.00  0.00    +0.241 C 
ATOM      4  O   UNL     1      -1.243   8.118  -4.275  0.00  0.00    -0.215 OA
ATOM      5  C   UNL     1      -2.716   6.372  -4.959  0.00  0.00    +0.220 C 
ATOM      6  O   UNL     1      -2.489   5.282  -5.981  0.00  0.00    -0.217 OA
ATOM      7  C   UNL     1      -2.318   5.332  -3.654  0.00  0.00    +0.214 C 
ATOM      8  O   UNL     1      -3.753   5.262  -3.217  0.00  0.00    -0.218 OA
ATOM      9  C   UNL     1      -1.989   6.675  -2.612  0.00  0.00    +0.183 C 
ATOM     10  O   UNL     1      -0.479   6.676  -2.846  0.00  0.00    -0.326 OA
BRANCH   9  11
ATOM     11  C   UNL     1      -1.893   5.684  -1.295  0.00  0.00    +0.214 C 
ATOM     12  O   UNL     1      -0.825   6.300  -0.630  0.00  0.00    -0.218 OA
ENDBRANCH   9  11
ENDBRANCH   1   2
BRANCH   1  18
ATOM     13  C   UNL     1       3.644   5.702  -3.808  0.00  0.00    +0.183 C 
ATOM     14  C   UNL     1       3.243   7.061  -4.792  0.00  0.00    +0.217 C 
ATOM     15  O   UNL     1       4.682   7.212  -5.200  0.00  0.00    -0.218 OA
ATOM     16  C   UNL     1       2.910   5.986  -6.095  0.00  0.00    +0.238 C 
ATOM     17  O   UNL     1       2.015   7.004  -6.791  0.00  0.00    -0.215 OA
ATOM     18  C   UNL     1       1.714   5.407  -5.130  0.00  0.00    +0.252 C 
ATOM     19  O   UNL     1       2.551   4.816  -4.333  0.00  0.00    -0.327 OA
BRANCH  13  21
ATOM     20  O   UNL     1       2.560   5.134  -1.727  0.00  0.00    -0.218 OA
ATOM     21  C   UNL     1       2.699   6.248  -2.555  0.00  0.00    +0.214 C 
ENDBRANCH  13  21
BRANCH  18  22
ATOM     22  C   UNL     1       1.147   4.317  -5.980  0.00  0.00    +0.241 C 
ATOM     23  O   UNL     1       2.229   3.537  -6.420  0.00  0.00    -0.215 OA
ENDBRANCH  18  22
ENDBRANCH   1  18
TORSDOF 5
ENDMDL
MODEL 2
REMARK VINA RESULT:      -6.3      1.412      5.290
REMARK  Name = 
REMARK  5 active torsions:
REMARK  status: ('A' for Active; 'I' for Inactive)
REMARK    1  A    between atoms: C_2  and  C_3
REMARK    2  A    between atoms: C_5  and  C_6
REMARK    3  A    between atoms: C_5  and  O_8
REMARK    4  A    between atoms: O_8  and  C_9
REMARK    5  A    between atoms: C_11  and  C_12
REMARK                            x       y       z     vdW  Elec       q    Type
REMARK                         _______ _______ _______ _____ _____    ______ ____
ROOT
ATOM      1  O   UNL     1       0.013   5.675  -4.396  0.00  0.00    -0.303 OA
ENDROOT
BRANCH   1   2
ATOM      2  C   UNL     1       1.158   6.016  -5.350  0.00  0.00    +0.271 C 
ATOM      3  C   UNL     1       0.558   4.813  -6.475  0.00  0.00    +0.241 C 
ATOM      4  O   UNL     1       1.324   3.624  -5.982  0.00  0.00    -0.215 OA
ATOM      5  C   UNL     1       1.686   5.234  -7.703  0.00  0.00    +0.220 C 
ATOM      6  O   UNL     1       0.785   6.359  -8.158  0.00  0.00    -0.217 OA
ATOM      7  C   UNL     1       2.622   6.283  -6.721  0.00  0.00    +0.214 C 
ATOM      8  O   UNL     1       3.781   6.209  -7.672  0.00  0.00    -0.218 OA
ATOM      9  C   UNL     1       3.216   4.959  -5.777  0.00  0.00    +0.183 C 
ATOM     10  O   UNL     1       2.189   5.106  -4.655  0.00  0.00    -0.326 OA
BRANCH   9  11
ATOM     11  C   UNL     1       4.326   5.930  -5.034  0.00  0.00    +0.214 C 
ATOM     12  O   UNL     1       4.920   4.985  -4.190  0.00  0.00    -0.218 OA
ENDBRANCH   9  11
ENDBRANCH   1   2
BRANCH   1  18
ATOM     13  C   UNL     1      -0.868   6.165  -1.775  0.00  0.00    +0.183 C 
ATOM     14  C   UNL     1      -1.643   5.006  -2.790  0.00  0.00    +0.217 C 
ATOM     15  O   UNL     1      -2.831   4.967  -1.869  0.00  0.00    -0.218 OA
ATOM     16  C   UNL     1      -2.309   6.298  -3.712  0.00  0.00    +0.238 C 
ATOM     17  O   UNL     1      -2.511   5.409  -4.933  0.00  0.00    -0.215 OA
ATOM     18  C   UNL     1      -0.749   6.659  -4.077  0.00  0.00    +0.252 C 
ATOM     19  O   UNL     1      -0.504   7.108  -2.885  0.00  0.00    -0.327 OA
BRANCH  13  21
ATOM     20  O   UNL     1       1.080   5.406  -0.566  0.00  0.00    -0.218 OA
ATOM     21  C   UNL     1       0.589   5.372  -1.872  0.00  0.00    +0.214 C 
ENDBRANCH  13  21
BRANCH  18  22
ATOM     22  C   UNL     1      -0.915   7.875  -4.928  0.00  0.00    +0.241 C 
ATOM     23  O   UNL     1      -1.914   8.661  -4.328  0.00  0.00    -0.215 OA
ENDBRANCH  18  22
ENDBRANCH   1  18
TORSDOF 5
ENDMDL
MODEL 3
REMARK VINA RESULT:      -6.2      2.375      5.068
REMARK  Name = 
REMARK  5 active torsions:
REMARK  status: ('A' for Active; 'I' for Inactive)
REMARK    1  A    between atoms: C_2  and  C_3
REMARK    2  A    between atoms: C_5  and  C_6
REMARK    3  A    between atoms: C_5  and  O_8
REMARK    4  A    between atoms: O_8  and  C_9
REMARK    5  A    between atoms: C_11  and  C_12
REMARK                            x       y       z     vdW  Elec       q    Type
REMARK                         _______ _______ _______ _____ _____    ______ ____
ROOT
ATOM      1  O   UNL     1       2.648   6.240  -6.150  0.00  0.00    -0.303 OA
ENDROOT
BRANCH   1   2
ATOM      2  C   UNL     1       2.986   6.750  -4.749  0.00  0.00    +0.271 C 
ATOM      3  C   UNL     1       4.679   6.411  -5.053  0.00  0.00    +0.241 C 
ATOM      4  O   UNL     1       4.733   5.000  -4.552  0.00  0.00    -0.215 OA
ATOM      5  C   UNL     1       5.203   7.126  -3.578  0.00  0.00    +0.220 C 
ATOM      6  O   UNL     1       5.183   8.493  -4.223  0.00  0.00    -0.217 OA
ATOM      7  C   UNL     1       3.632   7.331  -2.922  0.00  0.00    +0.214 C 
ATOM      8  O   UNL     1       4.185   7.485  -1.535  0.00  0.00    -0.218 OA
ATOM      9  C   UNL     1       3.428   5.623  -2.732  0.00  0.00    +0.183 C 
ATOM     10  O   UNL     1       2.666   5.419  -4.041  0.00  0.00    -0.326 OA
BRANCH   9  11
ATOM     11  C   UNL     1       2.054   5.842  -1.842  0.00  0.00    +0.214 C 
ATOM     12  O   UNL     1       2.272   4.877  -0.853  0.00  0.00    -0.218 OA
ENDBRANCH   9  11
ENDBRANCH   1   2
BRANCH   1  18
ATOM     13  C   UNL     1       1.395   4.731  -8.160  0.00  0.00    +0.183 C 
ATOM     14  C   UNL     1       2.436   6.053  -8.536  0.00  0.00    +0.217 C 
ATOM     15  O   UNL     1       1.921   6.080  -9.948  0.00  0.00    -0.218 OA
ATOM     16  C   UNL     1       1.214   7.136  -7.992  0.00  0.00    +0.238 C 
ATOM     17  O   UNL     1       2.222   8.249  -7.736  0.00  0.00    -0.215 OA
ATOM     18  C   UNL     1       1.434   6.429  -6.525  0.00  0.00    +0.252 C 
ATOM     19  O   UNL     1       0.853   5.329  -6.894  0.00  0.00    -0.327 OA
BRANCH  13  21
ATOM     20  O   UNL     1       1.924   3.195  -6.373  0.00  0.00    -0.218 OA
ATOM     21  C   UNL     1       2.602   3.926  -7.349  0.00  0.00    +0.214 C 
ENDBRANCH  13  21
BRANCH  18  22
ATOM     22  C   UNL     1       0.422   7.147  -5.693  0.00  0.00    +0.241 C 
ATOM     23  O   UNL     1      -0.552   6.202  -5.327  0.00  0.00    -0.215 OA
ENDBRANCH  18  22
ENDBRANCH   1  18
TORSDOF 5
ENDMDL
MODEL 4
REMARK VINA RESULT:      -6.1      5.522      8.388
REMARK  Name = 
REMARK  5 active torsions:
REMARK  status: ('A' for Active; 'I' for Inactive)
REMARK    1  A    between atoms: C_2  and  C_3
REMARK    2  A    between atoms: C_5  and  C_6
REMARK    3  A    between atoms: C_5  and  O_8
REMARK    4  A    between atoms: O_8  and  C_9
REMARK    5  A    between atoms: C_11  and  C_12
REMARK                            x       y       z     vdW  Elec       q    Type
REMARK                         _______ _______ _______ _____ _____    ______ ____
ROOT
ATOM      1  O   UNL     1       5.111   5.758 -10.822  0.00  0.00    -0.303 OA
ENDROOT
BRANCH   1   2
ATOM      2  C   UNL     1       4.129   6.173  -9.726  0.00  0.00    +0.271 C 
ATOM      3  C   UNL     1       4.584   4.753  -8.804  0.00  0.00    +0.241 C 
ATOM      4  O   UNL     1       3.573   3.787  -9.343  0.00  0.00    -0.215 OA
ATOM      5  C   UNL     1       3.655   5.209  -7.430  0.00  0.00    +0.220 C 
ATOM      6  O   UNL     1       4.782   6.093  -6.949  0.00  0.00    -0.217 OA
ATOM      7  C   UNL     1       2.854   6.520  -8.193  0.00  0.00    +0.214 C 
ATOM      8  O   UNL     1       1.781   6.531  -7.144  0.00  0.00    -0.218 OA
ATOM      9  C   UNL     1       1.952   5.447  -9.210  0.00  0.00    +0.183 C 
ATOM     10  O   UNL     1       2.895   5.552 -10.408  0.00  0.00    -0.326 OA
BRANCH   9  11
ATOM     11  C   UNL     1       0.986   6.683  -9.728  0.00  0.00    +0.214 C 
ATOM     12  O   UNL     1      -0.163   5.950 -10.045  0.00  0.00    -0.218 OA
ENDBRANCH   9  11
ENDBRANCH   1   2
BRANCH   1  18
ATOM     13  C   UNL     1       5.919   5.716 -13.511  0.00  0.00    +0.183 C 
ATOM     14  C   UNL     1       6.835   4.932 -12.277  0.00  0.00    +0.217 C 
ATOM     15  O   UNL     1       8.016   4.819 -13.200  0.00  0.00    -0.218 OA
ATOM     16  C   UNL     1       7.337   6.476 -11.705  0.00  0.00    +0.238 C 
ATOM     17  O   UNL     1       7.651   5.932 -10.317  0.00  0.00    -0.215 OA
ATOM     18  C   UNL     1       5.745   6.723 -11.387  0.00  0.00    +0.252 C 
ATOM     19  O   UNL     1       5.443   6.845 -12.643  0.00  0.00    -0.327 OA
BRANCH  13  21
ATOM     20  O   UNL     1       3.560   5.413 -13.923  0.00  0.00    -0.218 OA
ATOM     21  C   UNL     1       4.572   4.800 -13.185  0.00  0.00    +0.214 C 
ENDBRANCH  13  21
BRANCH  18  22
ATOM     22  C   UNL     1       5.761   8.117 -10.850  0.00  0.00    +0.241 C 
ATOM     23  O   UNL     1       6.583   8.874 -11.702  0.00  0.00    -0.215 OA
ENDBRANCH  18  22
ENDBRANCH   1  18
TORSDOF 5
ENDMDL
MODEL 5
REMARK VINA RESULT:      -6.0      1.571      3.982
REMARK  Name = 
REMARK  5 active torsions:
REMARK  status: ('A' for Active; 'I' for Inactive)
REMARK    1  A    between atoms: C_2  and  C_3
REMARK    2  A    between atoms: C_5  and  C_6
REMARK    3  A    between atoms: C_5  and  O_8
REMARK    4  A    between atoms: O_8  and  C_9
REMARK    5  A    between atoms: C_11  and  C_12
REMARK                            x       y       z     vdW  Elec       q    Type
REMARK                         _______ _______ _______ _____ _____    ______ ____
ROOT
ATOM      1  O   UNL     1       1.263   5.331  -4.059  0.00  0.00    -0.303 OA
ENDROOT
BRANCH   1   2
ATOM      2  C   UNL     1       0.597   6.126  -2.936  0.00  0.00    +0.271 C 
ATOM      3  C   UNL     1       1.494   5.185  -1.761  0.00  0.00    +0.241 C 
ATOM      4  O   UNL     1       0.515   4.071  -1.551  0.00  0.00    -0.215 OA
ATOM      5  C   UNL     1       0.953   6.127  -0.426  0.00  0.00    +0.220 C 
ATOM      6  O   UNL     1       2.038   7.145  -0.694  0.00  0.00    -0.217 OA
ATOM      7  C   UNL     1      -0.210   7.024  -1.312  0.00  0.00    +0.214 C 
ATOM      8  O   UNL     1      -0.920   7.428  -0.053  0.00  0.00    -0.218 OA
ATOM      9  C   UNL     1      -1.211   5.626  -1.516  0.00  0.00    +0.183 C 
ATOM     10  O   UNL     1      -0.684   5.269  -2.906  0.00  0.00    -0.326 OA
BRANCH   9  11
ATOM     11  C   UNL     1      -2.449   6.548  -2.107  0.00  0.00    +0.214 C 
ATOM     12  O   UNL     1      -3.322   5.525  -2.495  0.00  0.00    -0.218 OA
ENDBRANCH   9  11
ENDBRANCH   1   2
BRANCH   1  18
ATOM     13  C   UNL     1       0.992   5.416  -6.853  0.00  0.00    +0.183 C 
ATOM     14  C   UNL     1       1.791   4.110  -6.059  0.00  0.00    +0.217 C 
ATOM     15  O   UNL     1       2.389   3.660  -7.363  0.00  0.00    -0.218 OA
ATOM     16  C   UNL     1       3.116   5.156  -5.728  0.00  0.00    +0.238 C 
ATOM     17  O   UNL     1       3.589   4.296  -4.562  0.00  0.00    -0.215 OA
ATOM     18  C   UNL     1       2.040   6.009  -4.826  0.00  0.00    +0.252 C 
ATOM     19  O   UNL     1       1.425   6.467  -5.873  0.00  0.00    -0.327 OA
BRANCH  13  21
ATOM     20  O   UNL     1      -1.392   5.078  -7.041  0.00  0.00    -0.218 OA
ATOM     21  C   UNL     1      -0.426   5.132  -6.035  0.00  0.00    +0.214 C 
ENDBRANCH  13  21
BRANCH  18  22
ATOM     22  C   UNL     1       2.886   7.140  -4.342  0.00  0.00    +0.241 C 
ATOM     23  O   UNL     1       3.659   7.570  -5.434  0.00  0.00    -0.215 OA
ENDBRANCH  18  22
ENDBRANCH   1  18
TORSDOF 5
ENDMDL
MODEL 6
REMARK VINA RESULT:      -6.0      6.090     10.044
REMARK  Name = 
REMARK  5 active torsions:
REMARK  status: ('A' for Active; 'I' for Inactive)
REMARK    1  A    between atoms: C_2  and  C_3
REMARK    2  A    between atoms: C_5  and  C_6
REMARK    3  A    between atoms: C_5  and  O_8
REMARK    4  A    between atoms: O_8  and  C_9
REMARK    5  A    between atoms: C_11  and  C_12
REMARK                            x       y       z     vdW  Elec       q    Type
REMARK                         _______ _______ _______ _____ _____    ______ ____
ROOT
ATOM      1  O   UNL     1       4.014   6.273 -10.939  0.00  0.00    -0.303 OA
ENDROOT
BRANCH   1   2
ATOM      2  C   UNL     1       5.402   5.798 -11.370  0.00  0.00    +0.271 C 
ATOM      3  C   UNL     1       6.120   7.067 -10.398  0.00  0.00    +0.241 C 
ATOM      4  O   UNL     1       6.173   8.154 -11.427  0.00  0.00    -0.215 OA
ATOM      5  C   UNL     1       7.728   6.515 -10.663  0.00  0.00    +0.220 C 
ATOM      6  O   UNL     1       7.576   5.509  -9.546  0.00  0.00    -0.217 OA
ATOM      7  C   UNL     1       7.315   5.359 -11.860  0.00  0.00    +0.214 C 
ATOM      8  O   UNL     1       8.733   5.295 -12.348  0.00  0.00    -0.218 OA
ATOM      9  C   UNL     1       6.902   6.600 -12.995  0.00  0.00    +0.183 C 
ATOM     10  O   UNL     1       5.403   6.575 -12.701  0.00  0.00    -0.326 OA
BRANCH   9  11
ATOM     11  C   UNL     1       6.788   5.500 -14.221  0.00  0.00    +0.214 C 
ATOM     12  O   UNL     1       7.028   6.351 -15.307  0.00  0.00    -0.218 OA
ENDBRANCH   9  11
ENDBRANCH   1   2
BRANCH   1  18
ATOM     13  C   UNL     1       1.354   5.507 -11.413  0.00  0.00    +0.183 C 
ATOM     14  C   UNL     1       1.743   6.996 -10.635  0.00  0.00    +0.217 C 
ATOM     15  O   UNL     1       0.323   7.140 -10.163  0.00  0.00    -0.218 OA
ATOM     16  C   UNL     1       2.197   6.112  -9.229  0.00  0.00    +0.238 C 
ATOM     17  O   UNL     1       3.080   7.245  -8.722  0.00  0.00    -0.215 OA
ATOM     18  C   UNL     1       3.365   5.461 -10.183  0.00  0.00    +0.252 C 
ATOM     19  O   UNL     1       2.515   4.740 -10.847  0.00  0.00    -0.327 OA
BRANCH  13  21
ATOM     20  O   UNL     1       1.666   5.104 -13.773  0.00  0.00    -0.218 OA
ATOM     21  C   UNL     1       2.202   5.924 -12.780  0.00  0.00    +0.214 C 
ENDBRANCH  13  21
BRANCH  18  22
ATOM     22  C   UNL     1       4.029   4.514  -9.238  0.00  0.00    +0.241 C 
ATOM     23  O   UNL     1       3.019   3.697  -8.702  0.00  0.00    -0.215 OA
ENDBRANCH  18  22
ENDBRANCH   1  18
TORSDOF 5
ENDMDL
MODEL 7
REMARK VINA RESULT:      -6.0      1.867      3.939
REMARK  Name = 
REMARK  5 active torsions:
REMARK  status: ('A' for Active; 'I' for Inactive)
REMARK    1  A    between atoms: C_2  and  C_3
REMARK    2  A    between atoms: C_5  and  C_6
REMARK    3  A    between atoms: C_5  and  O_8
REMARK    4  A    between atoms: O_8  and  C_9
REMARK    5  A    between atoms: C_11  and  C_12
REMARK                            x       y       z     vdW  Elec       q    Type
REMARK                         _______ _______ _______ _____ _____    ______ ____
ROOT
ATOM      1  O   UNL     1       2.337   6.477  -2.854  0.00  0.00    -0.303 OA
ENDROOT
BRANCH   1   2
ATOM      2  C   UNL     1       1.491   6.468  -4.127  0.00  0.00    +0.271 C 
ATOM      3  C   UNL     1       0.050   6.267  -3.149  0.00  0.00    +0.241 C 
ATOM      4  O   UNL     1      -0.001   4.771  -3.106  0.00  0.00    -0.215 OA
ATOM      5  C   UNL     1      -1.018   6.427  -4.488  0.00  0.00    +0.220 C 
ATOM      6  O   UNL     1      -0.945   7.932  -4.378  0.00  0.00    -0.217 OA
ATOM      7  C   UNL     1       0.206   6.381  -5.688  0.00  0.00    +0.214 C 
ATOM      8  O   UNL     1      -0.793   6.045  -6.756  0.00  0.00    -0.218 OA
ATOM      9  C   UNL     1       0.535   4.712  -5.367  0.00  0.00    +0.183 C 
ATOM     10  O   UNL     1       1.710   4.972  -4.425  0.00  0.00    -0.326 OA
BRANCH   9  11
ATOM     11  C   UNL     1       1.496   4.600  -6.706  0.00  0.00    +0.214 C 
ATOM     12  O   UNL     1       2.209   3.443  -6.372  0.00  0.00    -0.218 OA
ENDBRANCH   9  11
ENDBRANCH   1   2
BRANCH   1  18
ATOM     13  C   UNL     1       4.215   5.317  -1.118  0.00  0.00    +0.183 C 
ATOM     14  C   UNL     1       3.497   6.849  -0.783  0.00  0.00    +0.217 C 
ATOM     15  O   UNL     1       4.546   7.135   0.254  0.00  0.00    -0.218 OA
ATOM     16  C   UNL     1       4.448   7.540  -2.041  0.00  0.00    +0.238 C 
ATOM     17  O   UNL     1       3.489   8.711  -2.212  0.00  0.00    -0.215 OA
ATOM     18  C   UNL     1       3.607   6.542  -3.038  0.00  0.00    +0.252 C 
ATOM     19  O   UNL     1       4.224   5.484  -2.610  0.00  0.00    -0.327 OA
BRANCH  13  21
ATOM     20  O   UNL     1       2.963   3.365  -0.446  0.00  0.00    -0.218 OA
ATOM     21  C   UNL     1       2.739   4.556  -1.138  0.00  0.00    +0.214 C 
ENDBRANCH  13  21
BRANCH  18  22
ATOM     22  C   UNL     1       4.227   6.850  -4.361  0.00  0.00    +0.241 C 
ATOM     23  O   UNL     1       4.893   5.686  -4.782  0.00  0.00    -0.215 OA
ENDBRANCH  18  22
ENDBRANCH   1  18
TORSDOF 5
ENDMDL
MODEL 8
REMARK VINA RESULT:      -6.0      4.741      7.385
REMARK  Name = 
REMARK  5 active torsions:
REMARK  status: ('A' for Active; 'I' for Inactive)
REMARK    1  A    between atoms: C_2  and  C_3
REMARK    2  A    between atoms: C_5  and  C_6
REMARK    3  A    between atoms: C_5  and  O_8
REMARK    4  A    between atoms: O_8  and  C_9
REMARK    5  A    between atoms: C_11  and  C_12
REMARK                            x       y       z     vdW  Elec       q    Type
REMARK                         _______ _______ _______ _____ _____    ______ ____
ROOT
ATOM      1  O   UNL     1       1.862   6.138  -9.250  0.00  0.00    -0.303 OA
ENDROOT
BRANCH   1   2
ATOM      2  C   UNL     1       1.578   6.548 -10.695  0.00  0.00    +0.271 C 
ATOM      3  C   UNL     1      -0.117   6.175 -10.451  0.00  0.00    +0.241 C 
ATOM      4  O   UNL     1      -0.105   4.735 -10.863  0.00  0.00    -0.215 OA
ATOM      5  C   UNL     1      -0.588   6.780 -11.990  0.00  0.00    +0.220 C 
ATOM      6  O   UNL     1      -0.640   8.184 -11.434  0.00  0.00    -0.217 OA
ATOM      7  C   UNL     1       1.007   6.995 -12.584  0.00  0.00    +0.214 C 
ATOM      8  O   UNL     1       0.518   7.044 -14.002  0.00  0.00    -0.218 OA
ATOM      9  C   UNL     1       1.269   5.285 -12.655  0.00  0.00    +0.183 C 
ATOM     10  O   UNL     1       1.971   5.187 -11.301  0.00  0.00    -0.326 OA
BRANCH   9  11
ATOM     11  C   UNL     1       2.678   5.493 -13.491  0.00  0.00    +0.214 C 
ATOM     12  O   UNL     1       2.582   4.405 -14.365  0.00  0.00    -0.218 OA
ENDBRANCH   9  11
ENDBRANCH   1   2
BRANCH   1  18
ATOM     13  C   UNL     1       3.013   4.961  -6.974  0.00  0.00    +0.183 C 
ATOM     14  C   UNL     1       1.889   6.264  -6.851  0.00  0.00    +0.217 C 
ATOM     15  O   UNL     1       2.288   6.496  -5.420  0.00  0.00    -0.218 OA
ATOM     16  C   UNL     1       3.104   7.332  -7.439  0.00  0.00    +0.238 C 
ATOM     17  O   UNL     1       2.073   8.350  -7.910  0.00  0.00    -0.215 OA
ATOM     18  C   UNL     1       3.033   6.436  -8.813  0.00  0.00    +0.252 C 
ATOM     19  O   UNL     1       3.629   5.423  -8.263  0.00  0.00    -0.327 OA
BRANCH  13  21
ATOM     20  O   UNL     1       2.694   3.198  -8.592  0.00  0.00    -0.218 OA
ATOM     21  C   UNL     1       1.910   3.999  -7.760  0.00  0.00    +0.214 C 
ENDBRANCH  13  21
BRANCH  18  22
ATOM     22  C   UNL     1       4.077   7.096  -9.654  0.00  0.00    +0.241 C 
ATOM     23  O   UNL     1       5.055   6.124  -9.929  0.00  0.00    -0.215 OA
ENDBRANCH  18  22
ENDBRANCH   1  18
TORSDOF 5
ENDMDL
MODEL 9
REMARK VINA RESULT:      -5.9      1.311      2.709
REMARK  Name = 
REMARK  5 active torsions:
REMARK  status: ('A' for Active; 'I' for Inactive)
REMARK    1  A    between atoms: C_2  and  C_3
REMARK    2  A    between atoms: C_5  and  C_6
REMARK    3  A    between atoms: C_5  and  O_8
REMARK    4  A    between atoms: O_8  and  C_9
REMARK    5  A    between atoms: C_11  and  C_12
REMARK                            x       y       z     vdW  Elec       q    Type
REMARK                         _______ _______ _______ _____ _____    ______ ____
ROOT
ATOM      1  O   UNL     1       0.762   5.868  -5.547  0.00  0.00    -0.303 OA
ENDROOT
BRANCH   1   2
ATOM      2  C   UNL     1      -0.309   5.547  -4.504  0.00  0.00    +0.271 C 
ATOM      3  C   UNL     1      -1.439   6.565  -5.376  0.00  0.00    +0.241 C 
ATOM      4  O   UNL     1      -1.163   7.868  -4.690  0.00  0.00    -0.215 OA
ATOM      5  C   UNL     1      -2.771   6.136  -4.376  0.00  0.00    +0.220 C 
ATOM      6  O   UNL     1      -2.997   4.887  -5.198  0.00  0.00    -0.217 OA
ATOM      7  C   UNL     1      -1.842   5.289  -3.210  0.00  0.00    +0.214 C 
ATOM      8  O   UNL     1      -2.948   5.381  -2.199  0.00  0.00    -0.218 OA
ATOM      9  C   UNL     1      -1.109   6.754  -2.651  0.00  0.00    +0.183 C 
ATOM     10  O   UNL     1       0.154   6.620  -3.500  0.00  0.00    -0.326 OA
BRANCH   9  11
ATOM     11  C   UNL     1      -0.446   5.977  -1.352  0.00  0.00    +0.214 C 
ATOM     12  O   UNL     1      -0.469   7.029  -0.428  0.00  0.00    -0.218 OA
ENDBRANCH   9  11
ENDBRANCH   1   2
BRANCH   1  18
ATOM     13  C   UNL     1       3.024   6.523  -7.077  0.00  0.00    +0.183 C 
ATOM     14  C   UNL     1       1.999   5.201  -7.495  0.00  0.00    +0.217 C 
ATOM     15  O   UNL     1       3.048   4.659  -8.426  0.00  0.00    -0.218 OA
ATOM     16  C   UNL     1       2.630   4.323  -6.156  0.00  0.00    +0.238 C 
ATOM     17  O   UNL     1       1.408   3.415  -6.092  0.00  0.00    -0.215 OA
ATOM     18  C   UNL     1       1.956   5.506  -5.238  0.00  0.00    +0.252 C 
ATOM     19  O   UNL     1       2.846   6.381  -5.593  0.00  0.00    -0.327 OA
BRANCH  13  21
ATOM     20  O   UNL     1       2.281   8.615  -8.027  0.00  0.00    -0.218 OA
ATOM     21  C   UNL     1       1.776   7.614  -7.196  0.00  0.00    +0.214 C 
ENDBRANCH  13  21
BRANCH  18  22
ATOM     22  C   UNL     1       2.352   5.079  -3.863  0.00  0.00    +0.241 C 
ATOM     23  O   UNL     1       3.755   5.128  -3.807  0.00  0.00    -0.215 OA
ENDBRANCH  18  22
ENDBRANCH   1  18
TORSDOF 5
ENDMDL
