MODEL 1
REMARK VINA RESULT:      -6.0      0.000      0.000
REMARK  Name = 
REMARK  4 active torsions:
REMARK  status: ('A' for Active; 'I' for Inactive)
REMARK    1  A    between atoms: C_2  and  N_4
REMARK    2  A    between atoms: N_4  and  C_5
REMARK    3  A    between atoms: C_5  and  C_6
REMARK    4  A    between atoms: C_6  and  C_8
REMARK                            x       y       z     vdW  Elec       q    Type
REMARK                         _______ _______ _______ _____ _____    ______ ____
ROOT
ATOM      1  C   UNL     1       5.407   5.940 -10.605  0.00  0.00    +0.013 A 
ATOM      2  C   UNL     1       5.615   5.371 -11.859  0.00  0.00    +0.044 A 
ATOM      3  C   UNL     1       6.924   5.150 -12.271  0.00  0.00    +0.234 A 
ATOM      4  O   UNL     1       7.218   4.872 -13.587  0.00  0.00    -0.283 OA
ATOM      5  C   UNL     1       7.965   5.621 -11.486  0.00  0.00    +0.234 A 
ATOM      6  O   UNL     1       9.179   6.026 -12.008  0.00  0.00    -0.283 OA
ATOM      7  C   UNL     1       7.730   5.731 -10.127  0.00  0.00    +0.045 A 
ATOM      8  C   UNL     1       6.429   5.716  -9.694  0.00  0.00    +0.002 A 
ENDROOT
BRANCH   1   9
ATOM      9  C   UNL     1       3.933   5.488 -10.001  0.00  0.00    +0.192 C 
ATOM     10  O   UNL     1       3.707   6.891  -9.372  0.00  0.00    -0.217 OA
BRANCH   9  11
ATOM     11  C   UNL     1       3.183   5.929 -11.445  0.00  0.00    +0.126 C 
BRANCH  11  12
ATOM     12  N   UNL     1       1.958   6.531 -11.067  0.00  0.00    -0.216 NA
BRANCH  12  14
ATOM     13  C   UNL     1      -0.302   7.127 -11.417  0.00  0.00    +0.019 C 
ATOM     14  C   UNL     1       0.786   6.151 -11.777  0.00  0.00    +0.073 C 
ATOM     15  C   UNL     1       0.383   4.765 -11.283  0.00  0.00    +0.019 C 
ENDBRANCH  12  14
ENDBRANCH  11  12
ENDBRANCH   9  11
ENDBRANCH   1   9
TORSDOF 4
ENDMDL
MODEL 2
REMARK VINA RESULT:      -6.0      2.164      2.796
REMARK  Name = 
REMARK  4 active torsions:
REMARK  status: ('A' for Active; 'I' for Inactive)
REMARK    1  A    between atoms: C_2  and  N_4
REMARK    2  A    between atoms: N_4  and  C_5
REMARK    3  A    between atoms: C_5  and  C_6
REMARK    4  A    between atoms: C_6  and  C_8
REMARK                            x       y       z     vdW  Elec       q    Type
REMARK                         _______ _______ _______ _____ _____    ______ ____
ROOT
ATOM      1  C   UNL     1       5.568   6.458 -10.852  0.00  0.00    +0.013 A 
ATOM      2  C   UNL     1       5.743   5.762 -12.046  0.00  0.00    +0.044 A 
ATOM      3  C   UNL     1       7.011   5.273 -12.341  0.00  0.00    +0.234 A 
ATOM      4  O   UNL     1       7.330   4.842 -13.609  0.00  0.00    -0.283 OA
ATOM      5  C   UNL     1       8.071   5.607 -11.511  0.00  0.00    +0.234 A 
ATOM      6  O   UNL     1       9.369   5.740 -11.965  0.00  0.00    -0.283 OA
ATOM      7  C   UNL     1       7.775   5.865 -10.185  0.00  0.00    +0.045 A 
ATOM      8  C   UNL     1       6.471   6.123  -9.853  0.00  0.00    +0.002 A 
ENDROOT
BRANCH   1   9
ATOM      9  C   UNL     1       4.001   6.333 -10.334  0.00  0.00    +0.192 C 
ATOM     10  O   UNL     1       3.598   5.520 -11.595  0.00  0.00    -0.217 OA
BRANCH   9  11
ATOM     11  C   UNL     1       4.378   4.941  -9.461  0.00  0.00    +0.126 C 
BRANCH  11  12
ATOM     12  N   UNL     1       3.172   4.550  -8.832  0.00  0.00    -0.216 NA
BRANCH  12  14
ATOM     13  C   UNL     1       4.211   5.409  -6.891  0.00  0.00    +0.019 C 
ATOM     14  C   UNL     1       2.894   5.083  -7.543  0.00  0.00    +0.073 C 
ATOM     15  C   UNL     1       2.206   3.987  -6.734  0.00  0.00    +0.019 C 
ENDBRANCH  12  14
ENDBRANCH  11  12
ENDBRANCH   9  11
ENDBRANCH   1   9
TORSDOF 4
ENDMDL
MODEL 3
REMARK VINA RESULT:      -5.9      2.970      5.790
REMARK  Name = 
REMARK  4 active torsions:
REMARK  status: ('A' for Active; 'I' for Inactive)
REMARK    1  A    between atoms: C_2  and  N_4
REMARK    2  A    between atoms: N_4  and  C_5
REMARK    3  A    between atoms: C_5  and  C_6
REMARK    4  A    between atoms: C_6  and  C_8
REMARK                            x       y       z     vdW  Elec       q    Type
REMARK                         _______ _______ _______ _____ _____    ______ ____
ROOT
ATOM      1  C   UNL     1       3.682   5.501  -9.439  0.00  0.00    +0.013 A 
ATOM      2  C   UNL     1       3.022   6.722  -9.315  0.00  0.00    +0.044 A 
ATOM      3  C   UNL     1       2.912   7.283  -8.048  0.00  0.00    +0.234 A 
ATOM      4  O   UNL     1       2.037   8.317  -7.801  0.00  0.00    -0.283 OA
ATOM      5  C   UNL     1       3.341   6.555  -6.949  0.00  0.00    +0.234 A 
ATOM      6  O   UNL     1       2.769   6.672  -5.697  0.00  0.00    -0.283 OA
ATOM      7  C   UNL     1       4.355   5.636  -7.159  0.00  0.00    +0.045 A 
ATOM      8  C   UNL     1       4.620   5.251  -8.448  0.00  0.00    +0.002 A 
ENDROOT
BRANCH   1   9
ATOM      9  C   UNL     1       4.330   5.345 -10.954  0.00  0.00    +0.192 C 
ATOM     10  O   UNL     1       3.349   6.401 -11.535  0.00  0.00    -0.217 OA
BRANCH   9  11
ATOM     11  C   UNL     1       5.496   6.509 -10.599  0.00  0.00    +0.126 C 
BRANCH  11  12
ATOM     12  N   UNL     1       6.479   6.381 -11.610  0.00  0.00    -0.216 NA
BRANCH  12  14
ATOM     13  C   UNL     1       7.925   5.522  -9.950  0.00  0.00    +0.019 C 
ATOM     14  C   UNL     1       7.527   5.443 -11.399  0.00  0.00    +0.073 C 
ATOM     15  C   UNL     1       8.711   5.881 -12.257  0.00  0.00    +0.019 C 
ENDBRANCH  12  14
ENDBRANCH  11  12
ENDBRANCH   9  11
ENDBRANCH   1   9
TORSDOF 4
ENDMDL
MODEL 4
REMARK VINA RESULT:      -5.8      3.130      5.860
REMARK  Name = 
REMARK  4 active torsions:
REMARK  status: ('A' for Active; 'I' for Inactive)
REMARK    1  A    between atoms: C_2  and  N_4
REMARK    2  A    between atoms: N_4  and  C_5
REMARK    3  A    between atoms: C_5  and  C_6
REMARK    4  A    between atoms: C_6  and  C_8
REMARK                            x       y       z     vdW  Elec       q    Type
REMARK                         _______ _______ _______ _____ _____    ______ ____
ROOT
ATOM      1  C   UNL     1       4.153   6.164  -9.079  0.00  0.00    +0.013 A 
ATOM      2  C   UNL     1       4.547   5.349  -8.020  0.00  0.00    +0.044 A 
ATOM      3  C   UNL     1       4.098   5.669  -6.744  0.00  0.00    +0.234 A 
ATOM      4  O   UNL     1       4.668   5.102  -5.626  0.00  0.00    -0.283 OA
ATOM      5  C   UNL     1       3.392   6.847  -6.554  0.00  0.00    +0.234 A 
ATOM      6  O   UNL     1       3.433   7.568  -5.376  0.00  0.00    -0.283 OA
ATOM      7  C   UNL     1       2.665   7.326  -7.629  0.00  0.00    +0.045 A 
ATOM      8  C   UNL     1       2.956   6.835  -8.875  0.00  0.00    +0.002 A 
ENDROOT
BRANCH   1   9
ATOM      9  C   UNL     1       4.147   5.309 -10.496  0.00  0.00    +0.192 C 
ATOM     10  O   UNL     1       2.978   6.162 -11.062  0.00  0.00    -0.217 OA
BRANCH   9  11
ATOM     11  C   UNL     1       5.315   6.335 -11.146  0.00  0.00    +0.126 C 
BRANCH  11  12
ATOM     12  N   UNL     1       6.338   5.486 -11.632  0.00  0.00    -0.216 NA
BRANCH  12  14
ATOM     13  C   UNL     1       7.675   6.933 -10.328  0.00  0.00    +0.019 C 
ATOM     14  C   UNL     1       7.637   5.623 -11.068  0.00  0.00    +0.073 C 
ATOM     15  C   UNL     1       8.632   5.683 -12.223  0.00  0.00    +0.019 C 
ENDBRANCH  12  14
ENDBRANCH  11  12
ENDBRANCH   9  11
ENDBRANCH   1   9
TORSDOF 4
ENDMDL
MODEL 5
REMARK VINA RESULT:      -5.7      5.032      6.647
REMARK  Name = 
REMARK  4 active torsions:
REMARK  status: ('A' for Active; 'I' for Inactive)
REMARK    1  A    between atoms: C_2  and  N_4
REMARK    2  A    between atoms: N_4  and  C_5
REMARK    3  A    between atoms: C_5  and  C_6
REMARK    4  A    between atoms: C_6  and  C_8
REMARK                            x       y       z     vdW  Elec       q    Type
REMARK                         _______ _______ _______ _____ _____    ______ ____
ROOT
ATOM      1  C   UNL     1       2.298   5.594  -5.691  0.00  0.00    +0.013 A 
ATOM      2  C   UNL     1       1.984   6.879  -6.127  0.00  0.00    +0.044 A 
ATOM      3  C   UNL     1       2.156   7.176  -7.474  0.00  0.00    +0.234 A 
ATOM      4  O   UNL     1       2.151   8.477  -7.922  0.00  0.00    -0.283 OA
ATOM      5  C   UNL     1       2.753   6.235  -8.299  0.00  0.00    +0.234 A 
ATOM      6  O   UNL     1       3.517   6.575  -9.399  0.00  0.00    -0.283 OA
ATOM      7  C   UNL     1       2.605   4.905  -7.949  0.00  0.00    +0.045 A 
ATOM      8  C   UNL     1       2.206   4.615  -6.670  0.00  0.00    +0.002 A 
ENDROOT
BRANCH   1   9
ATOM      9  C   UNL     1       1.413   5.206  -4.347  0.00  0.00    +0.192 C 
ATOM     10  O   UNL     1       1.272   6.701  -3.948  0.00  0.00    -0.217 OA
BRANCH   9  11
ATOM     11  C   UNL     1      -0.010   5.232  -5.250  0.00  0.00    +0.126 C 
BRANCH  11  12
ATOM     12  N   UNL     1      -1.030   5.602  -4.341  0.00  0.00    -0.216 NA
BRANCH  12  14
ATOM     13  C   UNL     1      -2.294   5.795  -6.328  0.00  0.00    +0.019 C 
ATOM     14  C   UNL     1      -2.217   6.176  -4.874  0.00  0.00    +0.073 C 
ATOM     15  C   UNL     1      -2.077   7.692  -4.771  0.00  0.00    +0.019 C 
ENDBRANCH  12  14
ENDBRANCH  11  12
ENDBRANCH   9  11
ENDBRANCH   1   9
TORSDOF 4
ENDMDL
MODEL 6
REMARK VINA RESULT:      -5.6      6.795      9.958
REMARK  Name = 
REMARK  4 active torsions:
REMARK  status: ('A' for Active; 'I' for Inactive)
REMARK    1  A    between atoms: C_2  and  N_4
REMARK    2  A    between atoms: N_4  and  C_5
REMARK    3  A    between atoms: C_5  and  C_6
REMARK    4  A    between atoms: C_6  and  C_8
REMARK                            x       y       z     vdW  Elec       q    Type
REMARK                         _______ _______ _______ _____ _____    ______ ____
ROOT
ATOM      1  C   UNL     1      -0.093   6.232  -5.016  0.00  0.00    +0.013 A 
ATOM      2  C   UNL     1      -0.145   5.586  -3.783  0.00  0.00    +0.044 A 
ATOM      3  C   UNL     1      -1.389   5.405  -3.189  0.00  0.00    +0.234 A 
ATOM      4  O   UNL     1      -1.499   5.048  -1.864  0.00  0.00    -0.283 OA
ATOM      5  C   UNL     1      -2.505   5.984  -3.773  0.00  0.00    +0.234 A 
ATOM      6  O   UNL     1      -3.598   6.413  -3.046  0.00  0.00    -0.283 OA
ATOM      7  C   UNL     1      -2.469   6.179  -5.143  0.00  0.00    +0.045 A 
ATOM      8  C   UNL     1      -1.252   6.127  -5.770  0.00  0.00    +0.002 A 
ENDROOT
BRANCH   1   9
ATOM      9  C   UNL     1       1.242   5.749  -5.866  0.00  0.00    +0.192 C 
ATOM     10  O   UNL     1       1.405   7.157  -6.504  0.00  0.00    -0.217 OA
BRANCH   9  11
ATOM     11  C   UNL     1       2.240   6.138  -4.564  0.00  0.00    +0.126 C 
BRANCH  11  12
ATOM     12  N   UNL     1       3.191   7.053  -5.075  0.00  0.00    -0.216 NA
BRANCH  12  14
ATOM     13  C   UNL     1       4.647   5.351  -4.323  0.00  0.00    +0.019 C 
ATOM     14  C   UNL     1       4.563   6.684  -5.018  0.00  0.00    +0.073 C 
ATOM     15  C   UNL     1       5.282   7.726  -4.167  0.00  0.00    +0.019 C 
ENDBRANCH  12  14
ENDBRANCH  11  12
ENDBRANCH   9  11
ENDBRANCH   1   9
TORSDOF 4
ENDMDL
MODEL 7
REMARK VINA RESULT:      -5.5      6.308      8.948
REMARK  Name = 
REMARK  4 active torsions:
REMARK  status: ('A' for Active; 'I' for Inactive)
REMARK    1  A    between atoms: C_2  and  N_4
REMARK    2  A    between atoms: N_4  and  C_5
REMARK    3  A    between atoms: C_5  and  C_6
REMARK    4  A    between atoms: C_6  and  C_8
REMARK                            x       y       z     vdW  Elec       q    Type
REMARK                         _______ _______ _______ _____ _____    ______ ____
ROOT
ATOM      1  C   UNL     1       0.682   5.247  -4.665  0.00  0.00    +0.013 A 
ATOM      2  C   UNL     1      -0.513   5.853  -5.047  0.00  0.00    +0.044 A 
ATOM      3  C   UNL     1      -1.512   5.993  -4.091  0.00  0.00    +0.234 A 
ATOM      4  O   UNL     1      -2.803   6.306  -4.452  0.00  0.00    -0.283 OA
ATOM      5  C   UNL     1      -1.337   5.413  -2.843  0.00  0.00    +0.234 A 
ATOM      6  O   UNL     1      -2.386   4.942  -2.078  0.00  0.00    -0.283 OA
ATOM      7  C   UNL     1      -0.036   5.262  -2.396  0.00  0.00    +0.045 A 
ATOM      8  C   UNL     1       0.977   5.355  -3.314  0.00  0.00    +0.002 A 
ENDROOT
BRANCH   1   9
ATOM      9  C   UNL     1       1.930   5.780  -5.613  0.00  0.00    +0.192 C 
ATOM     10  O   UNL     1       2.848   4.618  -5.142  0.00  0.00    -0.217 OA
BRANCH   9  11
ATOM     11  C   UNL     1       1.345   4.891  -6.921  0.00  0.00    +0.126 C 
BRANCH  11  12
ATOM     12  N   UNL     1       2.397   4.017  -7.287  0.00  0.00    -0.216 NA
BRANCH  12  14
ATOM     13  C   UNL     1       4.025   4.453  -8.943  0.00  0.00    +0.019 C 
ATOM     14  C   UNL     1       2.671   3.854  -8.673  0.00  0.00    +0.073 C 
ATOM     15  C   UNL     1       1.621   4.651  -9.442  0.00  0.00    +0.019 C 
ENDBRANCH  12  14
ENDBRANCH  11  12
ENDBRANCH   9  11
ENDBRANCH   1   9
TORSDOF 4
ENDMDL
MODEL 8
REMARK VINA RESULT:      -5.5      1.893      2.578
REMARK  Name = 
REMARK  4 active torsions:
REMARK  status: ('A' for Active; 'I' for Inactive)
REMARK    1  A    between atoms: C_2  and  N_4
REMARK    2  A    between atoms: N_4  and  C_5
REMARK    3  A    between atoms: C_5  and  C_6
REMARK    4  A    between atoms: C_6  and  C_8
REMARK                            x       y       z     vdW  Elec       q    Type
REMARK                         _______ _______ _______ _____ _____    ______ ____
ROOT
ATOM      1  C   UNL     1       3.705   6.650  -8.625  0.00  0.00    +0.013 A 
ATOM      2  C   UNL     1       3.781   6.722 -10.014  0.00  0.00    +0.044 A 
ATOM      3  C   UNL     1       4.899   6.182 -10.639  0.00  0.00    +0.234 A 
ATOM      4  O   UNL     1       5.186   6.468 -11.955  0.00  0.00    -0.283 OA
ATOM      5  C   UNL     1       5.947   5.715  -9.860  0.00  0.00    +0.234 A 
ATOM      6  O   UNL     1       7.265   5.747 -10.273  0.00  0.00    -0.283 OA
ATOM      7  C   UNL     1       5.633   5.254  -8.594  0.00  0.00    +0.045 A 
ATOM      8  C   UNL     1       4.418   5.601  -8.063  0.00  0.00    +0.002 A 
ENDROOT
BRANCH   1   9
ATOM      9  C   UNL     1       2.126   6.657  -8.130  0.00  0.00    +0.192 C 
ATOM     10  O   UNL     1       2.138   8.200  -7.951  0.00  0.00    -0.217 OA
BRANCH   9  11
ATOM     11  C   UNL     1       1.603   6.767  -9.729  0.00  0.00    +0.126 C 
BRANCH  11  12
ATOM     12  N   UNL     1       0.293   6.231  -9.737  0.00  0.00    -0.216 NA
BRANCH  12  14
ATOM     13  C   UNL     1       0.653   5.330 -11.892  0.00  0.00    +0.019 C 
ATOM     14  C   UNL     1      -0.333   6.033 -10.999  0.00  0.00    +0.073 C 
ATOM     15  C   UNL     1      -0.628   7.411 -11.584  0.00  0.00    +0.019 C 
ENDBRANCH  12  14
ENDBRANCH  11  12
ENDBRANCH   9  11
ENDBRANCH   1   9
TORSDOF 4
ENDMDL
MODEL 9
REMARK VINA RESULT:      -5.4      6.210      8.996
REMARK  Name = 
REMARK  4 active torsions:
REMARK  status: ('A' for Active; 'I' for Inactive)
REMARK    1  A    between atoms: C_2  and  N_4
REMARK    2  A    between atoms: N_4  and  C_5
REMARK    3  A    between atoms: C_5  and  C_6
REMARK    4  A    between atoms: C_6  and  C_8
REMARK                            x       y       z     vdW  Elec       q    Type
REMARK                         _______ _______ _______ _____ _____    ______ ____
ROOT
ATOM      1  C   UNL     1       0.616   4.813  -5.692  0.00  0.00    +0.013 A 
ATOM      2  C   UNL     1      -0.413   5.349  -6.464  0.00  0.00    +0.044 A 
ATOM      3  C   UNL     1      -1.549   5.815  -5.812  0.00  0.00    +0.234 A 
ATOM      4  O   UNL     1      -2.708   6.081  -6.504  0.00  0.00    -0.283 OA
ATOM      5  C   UNL     1      -1.672   5.610  -4.446  0.00  0.00    +0.234 A 
ATOM      6  O   UNL     1      -2.890   5.440  -3.817  0.00  0.00    -0.283 OA
ATOM      7  C   UNL     1      -0.501   5.524  -3.713  0.00  0.00    +0.045 A 
ATOM      8  C   UNL     1       0.668   5.290  -4.391  0.00  0.00    +0.002 A 
ENDROOT
BRANCH   1   9
ATOM      9  C   UNL     1       2.068   4.979  -6.468  0.00  0.00    +0.192 C 
ATOM     10  O   UNL     1       1.372   5.462  -7.771  0.00  0.00    -0.217 OA
BRANCH   9  11
ATOM     11  C   UNL     1       2.228   6.550  -5.878  0.00  0.00    +0.126 C 
BRANCH  11  12
ATOM     12  N   UNL     1       3.616   6.740  -5.676  0.00  0.00    -0.216 NA
BRANCH  12  14
ATOM     13  C   UNL     1       5.129   7.825  -4.221  0.00  0.00    +0.019 C 
ATOM     14  C   UNL     1       4.097   6.736  -4.338  0.00  0.00    +0.073 C 
ATOM     15  C   UNL     1       4.776   5.390  -4.101  0.00  0.00    +0.019 C 
ENDBRANCH  12  14
ENDBRANCH  11  12
ENDBRANCH   9  11
ENDBRANCH   1   9
TORSDOF 4
ENDMDL
