MODEL 1
REMARK VINA RESULT:      -6.7      0.000      0.000
REMARK  Name = 
REMARK  20 active torsions:
REMARK  status: ('A' for Active; 'I' for Inactive)
REMARK    1  A    between atoms: C_2  and  O_3
REMARK    2  A    between atoms: O_3  and  C_4
REMARK    3  A    between atoms: C_7  and  C_8
REMARK    4  A    between atoms: C_8  and  C_9
REMARK    5  A    between atoms: C_9  and  C_10
REMARK    6  A    between atoms: C_9  and  N_27
REMARK    7  A    between atoms: C_10  and  N_11
REMARK    8  A    between atoms: N_11  and  C_12
REMARK    9  A    between atoms: N_11  and  C_23
REMARK   10  A    between atoms: C_12  and  C_13
REMARK   11  A    between atoms: C_13  and  N_14
REMARK   12  A    between atoms: N_14  and  C_15
REMARK   13  A    between atoms: N_14  and  C_19
REMARK   14  A    between atoms: C_15  and  C_16
REMARK   15  A    between atoms: C_19  and  C_20
REMARK   16  A    between atoms: C_23  and  C_24
REMARK   17  A    between atoms: N_27  and  C_28
REMARK   18  A    between atoms: N_27  and  C_32
REMARK   19  A    between atoms: C_28  and  C_29
REMARK   20  A    between atoms: C_32  and  C_33
REMARK                            x       y       z     vdW  Elec       q    Type
REMARK                         _______ _______ _______ _____ _____    ______ ____
ROOT
ATOM      1  C   UNL     1       2.723   6.568  -6.748  0.00  0.00    +0.079 C 
ENDROOT
BRANCH   1   2
ATOM      2  N   UNL     1       2.505   5.927  -8.177  0.00  0.00    -0.253 NA
BRANCH   2   3
ATOM      3  C   UNL     1       3.666   6.639  -8.707  0.00  0.00    +0.188 C 
BRANCH   3   4
ATOM      4  C   UNL     1       3.999   6.494 -10.096  0.00  0.00    +0.381 C 
ATOM      5  O   UNL     1       4.421   5.204 -10.465  0.00  0.00    -0.244 OA
ATOM      6  O   UNL     1       4.833   7.371 -10.499  0.00  0.00    -0.244 OA
ENDBRANCH   3   4
ENDBRANCH   2   3
BRANCH   2   7
ATOM      7  C   UNL     1       1.418   6.654  -8.798  0.00  0.00    +0.188 C 
BRANCH   7   8
ATOM      8  C   UNL     1       0.517   5.799  -9.590  0.00  0.00    +0.381 C 
ATOM      9  O   UNL     1       0.966   4.535  -9.969  0.00  0.00    -0.244 OA
ATOM     10  O   UNL     1      -0.244   6.380 -10.415  0.00  0.00    -0.244 OA
ENDBRANCH   7   8
ENDBRANCH   2   7
ENDBRANCH   1   2
BRANCH   1  11
ATOM     11  C   UNL     1       3.973   5.529  -6.466  0.00  0.00    +0.044 C 
BRANCH  11  15
ATOM     12  C   UNL     1       4.381   6.703  -2.498  0.00  0.00    +0.139 A 
ATOM     13  C   UNL     1       4.648   7.655  -3.455  0.00  0.00    +0.037 A 
ATOM     14  C   UNL     1       4.647   7.305  -4.800  0.00  0.00    -0.001 A 
ATOM     15  C   UNL     1       4.588   5.986  -5.204  0.00  0.00    -0.021 A 
ATOM     16  C   UNL     1       4.538   5.041  -4.185  0.00  0.00    -0.001 A 
ATOM     17  C   UNL     1       4.450   5.372  -2.858  0.00  0.00    +0.037 A 
BRANCH  12  18
ATOM     18  O   UNL     1       3.788   6.970  -1.279  0.00  0.00    -0.475 OA
BRANCH  18  20
ATOM     19  C   UNL     1       5.105   7.191   0.404  0.00  0.00    +0.051 C 
ATOM     20  C   UNL     1       4.430   6.557  -0.100  0.00  0.00    +0.206 C 
ENDBRANCH  18  20
ENDBRANCH  12  18
ENDBRANCH  11  15
ENDBRANCH   1  11
BRANCH   1  21
ATOM     21  C   UNL     1       1.702   5.609  -5.915  0.00  0.00    +0.089 C 
BRANCH  21  22
ATOM     22  N   UNL     1       0.762   6.299  -5.184  0.00  0.00    -0.261 NA
BRANCH  22  23
ATOM     23  C   UNL     1      -0.366   5.368  -5.099  0.00  0.00    +0.188 C 
BRANCH  23  24
ATOM     24  C   UNL     1      -1.614   5.918  -5.673  0.00  0.00    +0.381 C 
ATOM     25  O   UNL     1      -1.846   5.553  -7.007  0.00  0.00    -0.244 OA
ATOM     26  O   UNL     1      -2.123   7.039  -5.374  0.00  0.00    -0.244 OA
ENDBRANCH  23  24
ENDBRANCH  22  23
BRANCH  22  27
ATOM     27  C   UNL     1       1.031   6.692  -3.840  0.00  0.00    +0.090 C 
BRANCH  27  28
ATOM     28  C   UNL     1       0.548   5.849  -2.741  0.00  0.00    +0.091 C 
BRANCH  28  29
ATOM     29  N   UNL     1      -0.283   6.509  -1.752  0.00  0.00    -0.252 NA
BRANCH  29  30
ATOM     30  C   UNL     1       0.459   6.765  -0.518  0.00  0.00    +0.188 C 
BRANCH  30  31
ATOM     31  C   UNL     1      -0.340   7.504   0.478  0.00  0.00    +0.381 C 
ATOM     32  O   UNL     1      -0.220   7.339   1.852  0.00  0.00    -0.244 OA
ATOM     33  O   UNL     1      -0.953   8.545   0.100  0.00  0.00    -0.244 OA
ENDBRANCH  30  31
ENDBRANCH  29  30
BRANCH  29  34
ATOM     34  C   UNL     1      -1.266   5.491  -1.379  0.00  0.00    +0.188 C 
BRANCH  34  35
ATOM     35  C   UNL     1      -2.570   5.711  -2.047  0.00  0.00    +0.381 C 
ATOM     36  O   UNL     1      -3.009   4.642  -2.836  0.00  0.00    -0.244 OA
ATOM     37  O   UNL     1      -3.120   6.842  -2.138  0.00  0.00    -0.244 OA
ENDBRANCH  34  35
ENDBRANCH  29  34
ENDBRANCH  28  29
ENDBRANCH  27  28
ENDBRANCH  22  27
ENDBRANCH  21  22
ENDBRANCH   1  21
TORSDOF 20
ENDMDL
MODEL 2
REMARK VINA RESULT:      -6.7      2.344      7.941
REMARK  Name = 
REMARK  20 active torsions:
REMARK  status: ('A' for Active; 'I' for Inactive)
REMARK    1  A    between atoms: C_2  and  O_3
REMARK    2  A    between atoms: O_3  and  C_4
REMARK    3  A    between atoms: C_7  and  C_8
REMARK    4  A    between atoms: C_8  and  C_9
REMARK    5  A    between atoms: C_9  and  C_10
REMARK    6  A    between atoms: C_9  and  N_27
REMARK    7  A    between atoms: C_10  and  N_11
REMARK    8  A    between atoms: N_11  and  C_12
REMARK    9  A    between atoms: N_11  and  C_23
REMARK   10  A    between atoms: C_12  and  C_13
REMARK   11  A    between atoms: C_13  and  N_14
REMARK   12  A    between atoms: N_14  and  C_15
REMARK   13  A    between atoms: N_14  and  C_19
REMARK   14  A    between atoms: C_15  and  C_16
REMARK   15  A    between atoms: C_19  and  C_20
REMARK   16  A    between atoms: C_23  and  C_24
REMARK   17  A    between atoms: N_27  and  C_28
REMARK   18  A    between atoms: N_27  and  C_32
REMARK   19  A    between atoms: C_28  and  C_29
REMARK   20  A    between atoms: C_32  and  C_33
REMARK                            x       y       z     vdW  Elec       q    Type
REMARK                         _______ _______ _______ _____ _____    ______ ____
ROOT
ATOM      1  C   UNL     1       1.608   5.662  -6.844  0.00  0.00    +0.079 C 
ENDROOT
BRANCH   1   2
ATOM      2  N   UNL     1       0.361   6.125  -5.987  0.00  0.00    -0.253 NA
BRANCH   2   3
ATOM      3  C   UNL     1       0.555   5.019  -5.052  0.00  0.00    +0.188 C 
BRANCH   3   4
ATOM      4  C   UNL     1       0.556   5.290  -3.643  0.00  0.00    +0.381 C 
ATOM      5  O   UNL     1      -0.638   4.951  -2.980  0.00  0.00    -0.244 OA
ATOM      6  O   UNL     1       0.894   6.489  -3.370  0.00  0.00    -0.244 OA
ENDBRANCH   3   4
ENDBRANCH   2   3
BRANCH   2   7
ATOM      7  C   UNL     1      -0.820   5.689  -6.703  0.00  0.00    +0.188 C 
BRANCH   7   8
ATOM      8  C   UNL     1      -2.080   6.094  -6.056  0.00  0.00    +0.381 C 
ATOM      9  O   UNL     1      -2.073   7.225  -5.240  0.00  0.00    -0.244 OA
ATOM     10  O   UNL     1      -2.865   5.169  -5.702  0.00  0.00    -0.244 OA
ENDBRANCH   7   8
ENDBRANCH   2   7
ENDBRANCH   1   2
BRANCH   1  11
ATOM     11  C   UNL     1       2.358   7.100  -6.541  0.00  0.00    +0.044 C 
BRANCH  11  15
ATOM     12  C   UNL     1       4.692   5.522  -3.485  0.00  0.00    +0.139 A 
ATOM     13  C   UNL     1       4.625   6.894  -3.565  0.00  0.00    +0.037 A 
ATOM     14  C   UNL     1       3.961   7.494  -4.629  0.00  0.00    -0.001 A 
ATOM     15  C   UNL     1       3.538   6.764  -5.722  0.00  0.00    -0.021 A 
ATOM     16  C   UNL     1       3.825   5.403  -5.690  0.00  0.00    -0.001 A 
ATOM     17  C   UNL     1       4.399   4.782  -4.612  0.00  0.00    +0.037 A 
BRANCH  12  18
ATOM     18  O   UNL     1       4.765   4.816  -2.299  0.00  0.00    -0.475 OA
BRANCH  18  20
ATOM     19  C   UNL     1       3.015   4.609  -1.071  0.00  0.00    +0.051 C 
ATOM     20  C   UNL     1       3.901   5.154  -1.246  0.00  0.00    +0.206 C 
ENDBRANCH  18  20
ENDBRANCH  12  18
ENDBRANCH  11  15
ENDBRANCH   1  11
BRANCH   1  21
ATOM     21  C   UNL     1       1.095   6.202  -8.294  0.00  0.00    +0.089 C 
BRANCH  21  22
ATOM     22  N   UNL     1       1.568   5.470  -9.359  0.00  0.00    -0.261 NA
BRANCH  22  23
ATOM     23  C   UNL     1       1.007   6.154 -10.528  0.00  0.00    +0.188 C 
BRANCH  23  24
ATOM     24  C   UNL     1       0.351   5.229 -11.478  0.00  0.00    +0.381 C 
ATOM     25  O   UNL     1      -0.256   4.117 -10.877  0.00  0.00    -0.244 OA
ATOM     26  O   UNL     1       0.744   4.996 -12.659  0.00  0.00    -0.244 OA
ENDBRANCH  23  24
ENDBRANCH  22  23
BRANCH  22  27
ATOM     27  C   UNL     1       2.968   5.374  -9.612  0.00  0.00    +0.090 C 
BRANCH  27  28
ATOM     28  C   UNL     1       3.717   6.589  -9.945  0.00  0.00    +0.091 C 
BRANCH  28  29
ATOM     29  N   UNL     1       4.578   6.506 -11.109  0.00  0.00    -0.252 NA
BRANCH  29  30
ATOM     30  C   UNL     1       4.316   5.291 -11.880  0.00  0.00    +0.188 C 
BRANCH  30  31
ATOM     31  C   UNL     1       4.781   5.399 -13.276  0.00  0.00    +0.381 C 
ATOM     32  O   UNL     1       6.023   4.964 -13.720  0.00  0.00    -0.244 OA
ATOM     33  O   UNL     1       3.920   5.618 -14.178  0.00  0.00    -0.244 OA
ENDBRANCH  30  31
ENDBRANCH  29  30
BRANCH  29  34
ATOM     34  C   UNL     1       5.914   6.298 -10.548  0.00  0.00    +0.188 C 
BRANCH  34  35
ATOM     35  C   UNL     1       6.831   7.417 -10.871  0.00  0.00    +0.381 C 
ATOM     36  O   UNL     1       8.012   7.438 -10.121  0.00  0.00    -0.244 OA
ATOM     37  O   UNL     1       6.486   8.421 -11.551  0.00  0.00    -0.244 OA
ENDBRANCH  34  35
ENDBRANCH  29  34
ENDBRANCH  28  29
ENDBRANCH  27  28
ENDBRANCH  22  27
ENDBRANCH  21  22
ENDBRANCH   1  21
TORSDOF 20
ENDMDL
MODEL 3
REMARK VINA RESULT:      -6.6      2.378      7.895
REMARK  Name = 
REMARK  20 active torsions:
REMARK  status: ('A' for Active; 'I' for Inactive)
REMARK    1  A    between atoms: C_2  and  O_3
REMARK    2  A    between atoms: O_3  and  C_4
REMARK    3  A    between atoms: C_7  and  C_8
REMARK    4  A    between atoms: C_8  and  C_9
REMARK    5  A    between atoms: C_9  and  C_10
REMARK    6  A    between atoms: C_9  and  N_27
REMARK    7  A    between atoms: C_10  and  N_11
REMARK    8  A    between atoms: N_11  and  C_12
REMARK    9  A    between atoms: N_11  and  C_23
REMARK   10  A    between atoms: C_12  and  C_13
REMARK   11  A    between atoms: C_13  and  N_14
REMARK   12  A    between atoms: N_14  and  C_15
REMARK   13  A    between atoms: N_14  and  C_19
REMARK   14  A    between atoms: C_15  and  C_16
REMARK   15  A    between atoms: C_19  and  C_20
REMARK   16  A    between atoms: C_23  and  C_24
REMARK   17  A    between atoms: N_27  and  C_28
REMARK   18  A    between atoms: N_27  and  C_32
REMARK   19  A    between atoms: C_28  and  C_29
REMARK   20  A    between atoms: C_32  and  C_33
REMARK                            x       y       z     vdW  Elec       q    Type
REMARK                         _______ _______ _______ _____ _____    ______ ____
ROOT
ATOM      1  C   UNL     1       1.684   5.464  -6.794  0.00  0.00    +0.079 C 
ENDROOT
BRANCH   1   2
ATOM      2  N   UNL     1       0.521   6.159  -5.979  0.00  0.00    -0.253 NA
BRANCH   2   3
ATOM      3  C   UNL     1       0.489   5.055  -5.023  0.00  0.00    +0.188 C 
BRANCH   3   4
ATOM      4  C   UNL     1       0.749   5.326  -3.637  0.00  0.00    +0.381 C 
ATOM      5  O   UNL     1      -0.273   4.920  -2.760  0.00  0.00    -0.244 OA
ATOM      6  O   UNL     1       1.066   6.543  -3.422  0.00  0.00    -0.244 OA
ENDBRANCH   3   4
ENDBRANCH   2   3
BRANCH   2   7
ATOM      7  C   UNL     1      -0.701   5.930  -6.721  0.00  0.00    +0.188 C 
BRANCH   7   8
ATOM      8  C   UNL     1      -1.916   6.017  -5.891  0.00  0.00    +0.381 C 
ATOM      9  O   UNL     1      -2.986   5.175  -6.192  0.00  0.00    -0.244 OA
ATOM     10  O   UNL     1      -2.225   7.159  -5.448  0.00  0.00    -0.244 OA
ENDBRANCH   7   8
ENDBRANCH   2   7
ENDBRANCH   1   2
BRANCH   1  11
ATOM     11  C   UNL     1       2.575   6.850  -6.719  0.00  0.00    +0.044 C 
BRANCH  11  15
ATOM     12  C   UNL     1       4.681   5.550  -3.379  0.00  0.00    +0.139 A 
ATOM     13  C   UNL     1       4.724   6.898  -3.649  0.00  0.00    +0.037 A 
ATOM     14  C   UNL     1       4.143   7.390  -4.812  0.00  0.00    -0.001 A 
ATOM     15  C   UNL     1       3.699   6.547  -5.812  0.00  0.00    -0.021 A 
ATOM     16  C   UNL     1       3.878   5.186  -5.582  0.00  0.00    -0.001 A 
ATOM     17  C   UNL     1       4.369   4.682  -4.406  0.00  0.00    +0.037 A 
BRANCH  12  18
ATOM     18  O   UNL     1       4.662   5.012  -2.105  0.00  0.00    -0.475 OA
BRANCH  18  20
ATOM     19  C   UNL     1       4.282   6.199  -0.356  0.00  0.00    +0.051 C 
ATOM     20  C   UNL     1       3.859   5.610  -1.122  0.00  0.00    +0.206 C 
ENDBRANCH  18  20
ENDBRANCH  12  18
ENDBRANCH  11  15
ENDBRANCH   1  11
BRANCH   1  21
ATOM     21  C   UNL     1       1.167   5.844  -8.292  0.00  0.00    +0.089 C 
BRANCH  21  22
ATOM     22  N   UNL     1       1.805   5.149  -9.294  0.00  0.00    -0.261 NA
BRANCH  22  23
ATOM     23  C   UNL     1       0.712   4.714 -10.167  0.00  0.00    +0.188 C 
BRANCH  23  24
ATOM     24  C   UNL     1       0.470   5.641 -11.295  0.00  0.00    +0.381 C 
ATOM     25  O   UNL     1      -0.462   6.653 -11.023  0.00  0.00    -0.244 OA
ATOM     26  O   UNL     1       0.507   5.324 -12.521  0.00  0.00    -0.244 OA
ENDBRANCH  23  24
ENDBRANCH  22  23
BRANCH  22  27
ATOM     27  C   UNL     1       2.738   5.801 -10.152  0.00  0.00    +0.090 C 
BRANCH  27  28
ATOM     28  C   UNL     1       4.155   5.430 -10.077  0.00  0.00    +0.091 C 
BRANCH  28  29
ATOM     29  N   UNL     1       4.852   5.324 -11.345  0.00  0.00    -0.252 NA
BRANCH  29  30
ATOM     30  C   UNL     1       6.063   6.143 -11.357  0.00  0.00    +0.188 C 
BRANCH  30  31
ATOM     31  C   UNL     1       7.271   5.359 -11.676  0.00  0.00    +0.381 C 
ATOM     32  O   UNL     1       7.474   4.693 -12.878  0.00  0.00    -0.244 OA
ATOM     33  O   UNL     1       8.301   5.531 -10.961  0.00  0.00    -0.244 OA
ENDBRANCH  30  31
ENDBRANCH  29  30
BRANCH  29  34
ATOM     34  C   UNL     1       3.957   5.983 -12.297  0.00  0.00    +0.188 C 
BRANCH  34  35
ATOM     35  C   UNL     1       3.922   5.280 -13.601  0.00  0.00    +0.381 C 
ATOM     36  O   UNL     1       3.150   5.911 -14.583  0.00  0.00    -0.244 OA
ATOM     37  O   UNL     1       4.311   4.091 -13.759  0.00  0.00    -0.244 OA
ENDBRANCH  34  35
ENDBRANCH  29  34
ENDBRANCH  28  29
ENDBRANCH  27  28
ENDBRANCH  22  27
ENDBRANCH  21  22
ENDBRANCH   1  21
TORSDOF 20
ENDMDL
MODEL 4
REMARK VINA RESULT:      -6.5      2.568      8.766
REMARK  Name = 
REMARK  20 active torsions:
REMARK  status: ('A' for Active; 'I' for Inactive)
REMARK    1  A    between atoms: C_2  and  O_3
REMARK    2  A    between atoms: O_3  and  C_4
REMARK    3  A    between atoms: C_7  and  C_8
REMARK    4  A    between atoms: C_8  and  C_9
REMARK    5  A    between atoms: C_9  and  C_10
REMARK    6  A    between atoms: C_9  and  N_27
REMARK    7  A    between atoms: C_10  and  N_11
REMARK    8  A    between atoms: N_11  and  C_12
REMARK    9  A    between atoms: N_11  and  C_23
REMARK   10  A    between atoms: C_12  and  C_13
REMARK   11  A    between atoms: C_13  and  N_14
REMARK   12  A    between atoms: N_14  and  C_15
REMARK   13  A    between atoms: N_14  and  C_19
REMARK   14  A    between atoms: C_15  and  C_16
REMARK   15  A    between atoms: C_19  and  C_20
REMARK   16  A    between atoms: C_23  and  C_24
REMARK   17  A    between atoms: N_27  and  C_28
REMARK   18  A    between atoms: N_27  and  C_32
REMARK   19  A    between atoms: C_28  and  C_29
REMARK   20  A    between atoms: C_32  and  C_33
REMARK                            x       y       z     vdW  Elec       q    Type
REMARK                         _______ _______ _______ _____ _____    ______ ____
ROOT
ATOM      1  C   UNL     1       2.465   6.557  -6.622  0.00  0.00    +0.079 C 
ENDROOT
BRANCH   1   2
ATOM      2  N   UNL     1       2.945   6.495  -5.116  0.00  0.00    -0.253 NA
BRANCH   2   3
ATOM      3  C   UNL     1       4.219   7.120  -5.464  0.00  0.00    +0.188 C 
BRANCH   3   4
ATOM      4  C   UNL     1       4.941   7.840  -4.453  0.00  0.00    +0.381 C 
ATOM      5  O   UNL     1       6.167   7.258  -4.084  0.00  0.00    -0.244 OA
ATOM      6  O   UNL     1       4.233   8.087  -3.421  0.00  0.00    -0.244 OA
ENDBRANCH   3   4
ENDBRANCH   2   3
BRANCH   2   7
ATOM      7  C   UNL     1       3.356   5.129  -4.866  0.00  0.00    +0.188 C 
BRANCH   7   8
ATOM      8  C   UNL     1       3.383   4.777  -3.436  0.00  0.00    +0.381 C 
ATOM      9  O   UNL     1       2.349   5.235  -2.621  0.00  0.00    -0.244 OA
ATOM     10  O   UNL     1       4.518   4.696  -2.887  0.00  0.00    -0.244 OA
ENDBRANCH   7   8
ENDBRANCH   2   7
ENDBRANCH   1   2
BRANCH   1  11
ATOM     11  C   UNL     1       1.390   5.338  -6.336  0.00  0.00    +0.044 C 
BRANCH  11  15
ATOM     12  C   UNL     1      -2.276   6.695  -4.923  0.00  0.00    +0.139 A 
ATOM     13  C   UNL     1      -2.311   5.740  -5.913  0.00  0.00    +0.037 A 
ATOM     14  C   UNL     1      -1.129   5.325  -6.516  0.00  0.00    -0.001 A 
ATOM     15  C   UNL     1       0.064   5.984  -6.300  0.00  0.00    -0.021 A 
ATOM     16  C   UNL     1       0.004   7.086  -5.453  0.00  0.00    -0.001 A 
ATOM     17  C   UNL     1      -1.133   7.456  -4.782  0.00  0.00    +0.037 A 
BRANCH  12  18
ATOM     18  O   UNL     1      -3.187   6.774  -3.886  0.00  0.00    -0.475 OA
BRANCH  18  20
ATOM     19  C   UNL     1      -2.679   5.606  -2.156  0.00  0.00    +0.051 C 
ATOM     20  C   UNL     1      -2.744   6.574  -2.569  0.00  0.00    +0.206 C 
ENDBRANCH  18  20
ENDBRANCH  12  18
ENDBRANCH  11  15
ENDBRANCH   1  11
BRANCH   1  21
ATOM     21  C   UNL     1       3.540   5.501  -7.243  0.00  0.00    +0.089 C 
BRANCH  21  22
ATOM     22  N   UNL     1       3.321   5.196  -8.567  0.00  0.00    -0.261 NA
BRANCH  22  23
ATOM     23  C   UNL     1       2.750   6.428  -9.118  0.00  0.00    +0.188 C 
BRANCH  23  24
ATOM     24  C   UNL     1       1.610   6.179 -10.029  0.00  0.00    +0.381 C 
ATOM     25  O   UNL     1       1.774   6.706 -11.318  0.00  0.00    -0.244 OA
ATOM     26  O   UNL     1       0.396   6.112  -9.675  0.00  0.00    -0.244 OA
ENDBRANCH  23  24
ENDBRANCH  22  23
BRANCH  22  27
ATOM     27  C   UNL     1       4.408   4.864  -9.427  0.00  0.00    +0.090 C 
BRANCH  27  28
ATOM     28  C   UNL     1       5.290   5.933  -9.906  0.00  0.00    +0.091 C 
BRANCH  28  29
ATOM     29  N   UNL     1       5.868   5.738 -11.222  0.00  0.00    -0.252 NA
BRANCH  29  30
ATOM     30  C   UNL     1       7.161   6.411 -11.342  0.00  0.00    +0.188 C 
BRANCH  30  31
ATOM     31  C   UNL     1       8.155   5.597 -12.065  0.00  0.00    +0.381 C 
ATOM     32  O   UNL     1       9.518   5.864 -12.082  0.00  0.00    -0.244 OA
ATOM     33  O   UNL     1       7.817   4.438 -12.445  0.00  0.00    -0.244 OA
ENDBRANCH  30  31
ENDBRANCH  29  30
BRANCH  29  34
ATOM     34  C   UNL     1       4.983   6.491 -12.112  0.00  0.00    +0.188 C 
BRANCH  34  35
ATOM     35  C   UNL     1       4.829   5.829 -13.429  0.00  0.00    +0.381 C 
ATOM     36  O   UNL     1       4.793   4.431 -13.379  0.00  0.00    -0.244 OA
ATOM     37  O   UNL     1       4.989   6.426 -14.528  0.00  0.00    -0.244 OA
ENDBRANCH  34  35
ENDBRANCH  29  34
ENDBRANCH  28  29
ENDBRANCH  27  28
ENDBRANCH  22  27
ENDBRANCH  21  22
ENDBRANCH   1  21
TORSDOF 20
ENDMDL
MODEL 5
REMARK VINA RESULT:      -6.5      1.970      6.443
REMARK  Name = 
REMARK  20 active torsions:
REMARK  status: ('A' for Active; 'I' for Inactive)
REMARK    1  A    between atoms: C_2  and  O_3
REMARK    2  A    between atoms: O_3  and  C_4
REMARK    3  A    between atoms: C_7  and  C_8
REMARK    4  A    between atoms: C_8  and  C_9
REMARK    5  A    between atoms: C_9  and  C_10
REMARK    6  A    between atoms: C_9  and  N_27
REMARK    7  A    between atoms: C_10  and  N_11
REMARK    8  A    between atoms: N_11  and  C_12
REMARK    9  A    between atoms: N_11  and  C_23
REMARK   10  A    between atoms: C_12  and  C_13
REMARK   11  A    between atoms: C_13  and  N_14
REMARK   12  A    between atoms: N_14  and  C_15
REMARK   13  A    between atoms: N_14  and  C_19
REMARK   14  A    between atoms: C_15  and  C_16
REMARK   15  A    between atoms: C_19  and  C_20
REMARK   16  A    between atoms: C_23  and  C_24
REMARK   17  A    between atoms: N_27  and  C_28
REMARK   18  A    between atoms: N_27  and  C_32
REMARK   19  A    between atoms: C_28  and  C_29
REMARK   20  A    between atoms: C_32  and  C_33
REMARK                            x       y       z     vdW  Elec       q    Type
REMARK                         _______ _______ _______ _____ _____    ______ ____
ROOT
ATOM      1  C   UNL     1       1.066   5.969  -4.634  0.00  0.00    +0.079 C 
ENDROOT
BRANCH   1   2
ATOM      2  N   UNL     1      -0.375   5.568  -4.121  0.00  0.00    -0.253 NA
BRANCH   2   3
ATOM      3  C   UNL     1      -0.908   6.873  -4.506  0.00  0.00    +0.188 C 
BRANCH   3   4
ATOM      4  C   UNL     1      -1.893   6.944  -5.548  0.00  0.00    +0.381 C 
ATOM      5  O   UNL     1      -2.943   7.847  -5.302  0.00  0.00    -0.244 OA
ATOM      6  O   UNL     1      -2.354   5.799  -5.872  0.00  0.00    -0.244 OA
ENDBRANCH   3   4
ENDBRANCH   2   3
BRANCH   2   7
ATOM      7  C   UNL     1      -0.351   5.685  -2.679  0.00  0.00    +0.188 C 
BRANCH   7   8
ATOM      8  C   UNL     1      -1.686   5.600  -2.061  0.00  0.00    +0.381 C 
ATOM      9  O   UNL     1      -1.805   5.874  -0.699  0.00  0.00    -0.244 OA
ATOM     10  O   UNL     1      -2.470   4.718  -2.512  0.00  0.00    -0.244 OA
ENDBRANCH   7   8
ENDBRANCH   2   7
ENDBRANCH   1   2
BRANCH   1  11
ATOM     11  C   UNL     1       1.107   4.625  -5.591  0.00  0.00    +0.044 C 
BRANCH  11  15
ATOM     12  C   UNL     1       3.273   6.080  -8.827  0.00  0.00    +0.139 A 
ATOM     13  C   UNL     1       2.307   6.911  -8.307  0.00  0.00    +0.037 A 
ATOM     14  C   UNL     1       1.465   6.449  -7.302  0.00  0.00    -0.001 A 
ATOM     15  C   UNL     1       1.427   5.116  -6.945  0.00  0.00    -0.021 A 
ATOM     16  C   UNL     1       2.275   4.273  -7.657  0.00  0.00    -0.001 A 
ATOM     17  C   UNL     1       3.173   4.725  -8.589  0.00  0.00    +0.037 A 
BRANCH  12  18
ATOM     18  O   UNL     1       4.480   6.517  -9.340  0.00  0.00    -0.475 OA
BRANCH  18  20
ATOM     19  C   UNL     1       5.125   6.175 -11.361  0.00  0.00    +0.051 C 
ATOM     20  C   UNL     1       4.577   6.801 -10.712  0.00  0.00    +0.206 C 
ENDBRANCH  18  20
ENDBRANCH  12  18
ENDBRANCH  11  15
ENDBRANCH   1  11
BRANCH   1  21
ATOM     21  C   UNL     1       1.933   5.209  -3.482  0.00  0.00    +0.089 C 
BRANCH  21  22
ATOM     22  N   UNL     1       3.234   5.645  -3.386  0.00  0.00    -0.261 NA
BRANCH  22  23
ATOM     23  C   UNL     1       3.179   7.022  -3.882  0.00  0.00    +0.188 C 
BRANCH  23  24
ATOM     24  C   UNL     1       4.329   7.372  -4.745  0.00  0.00    +0.381 C 
ATOM     25  O   UNL     1       4.712   6.360  -5.637  0.00  0.00    -0.244 OA
ATOM     26  O   UNL     1       5.294   8.120  -4.407  0.00  0.00    -0.244 OA
ENDBRANCH  23  24
ENDBRANCH  22  23
BRANCH  22  27
ATOM     27  C   UNL     1       3.883   5.725  -2.118  0.00  0.00    +0.090 C 
BRANCH  27  28
ATOM     28  C   UNL     1       3.125   5.393  -0.908  0.00  0.00    +0.091 C 
BRANCH  28  29
ATOM     29  N   UNL     1       2.954   6.469   0.049  0.00  0.00    -0.252 NA
BRANCH  29  30
ATOM     30  C   UNL     1       1.961   7.439  -0.411  0.00  0.00    +0.188 C 
BRANCH  30  31
ATOM     31  C   UNL     1       0.954   7.748   0.621  0.00  0.00    +0.381 C 
ATOM     32  O   UNL     1      -0.041   8.708   0.478  0.00  0.00    -0.244 OA
ATOM     33  O   UNL     1       0.784   6.917   1.560  0.00  0.00    -0.244 OA
ENDBRANCH  30  31
ENDBRANCH  29  30
BRANCH  29  34
ATOM     34  C   UNL     1       4.223   7.196  -0.003  0.00  0.00    +0.188 C 
BRANCH  34  35
ATOM     35  C   UNL     1       4.573   7.795   1.306  0.00  0.00    +0.381 C 
ATOM     36  O   UNL     1       4.588   6.892   2.375  0.00  0.00    -0.244 OA
ATOM     37  O   UNL     1       4.589   9.038   1.518  0.00  0.00    -0.244 OA
ENDBRANCH  34  35
ENDBRANCH  29  34
ENDBRANCH  28  29
ENDBRANCH  27  28
ENDBRANCH  22  27
ENDBRANCH  21  22
ENDBRANCH   1  21
TORSDOF 20
ENDMDL
MODEL 6
REMARK VINA RESULT:      -6.4      2.318      8.591
REMARK  Name = 
REMARK  20 active torsions:
REMARK  status: ('A' for Active; 'I' for Inactive)
REMARK    1  A    between atoms: C_2  and  O_3
REMARK    2  A    between atoms: O_3  and  C_4
REMARK    3  A    between atoms: C_7  and  C_8
REMARK    4  A    between atoms: C_8  and  C_9
REMARK    5  A    between atoms: C_9  and  C_10
REMARK    6  A    between atoms: C_9  and  N_27
REMARK    7  A    between atoms: C_10  and  N_11
REMARK    8  A    between atoms: N_11  and  C_12
REMARK    9  A    between atoms: N_11  and  C_23
REMARK   10  A    between atoms: C_12  and  C_13
REMARK   11  A    between atoms: C_13  and  N_14
REMARK   12  A    between atoms: N_14  and  C_15
REMARK   13  A    between atoms: N_14  and  C_19
REMARK   14  A    between atoms: C_15  and  C_16
REMARK   15  A    between atoms: C_19  and  C_20
REMARK   16  A    between atoms: C_23  and  C_24
REMARK   17  A    between atoms: N_27  and  C_28
REMARK   18  A    between atoms: N_27  and  C_32
REMARK   19  A    between atoms: C_28  and  C_29
REMARK   20  A    between atoms: C_32  and  C_33
REMARK                            x       y       z     vdW  Elec       q    Type
REMARK                         _______ _______ _______ _____ _____    ______ ____
ROOT
ATOM      1  C   UNL     1      -0.972   7.438  -1.163  0.00  0.00    +0.079 C 
ENDROOT
BRANCH   1   2
ATOM      2  N   UNL     1      -1.501   7.791   0.285  0.00  0.00    -0.253 NA
BRANCH   2   3
ATOM      3  C   UNL     1      -0.167   8.220   0.700  0.00  0.00    +0.188 C 
BRANCH   3   4
ATOM      4  C   UNL     1      -0.019   9.476   1.379  0.00  0.00    +0.381 C 
ATOM      5  O   UNL     1      -1.211  10.212   1.515  0.00  0.00    -0.244 OA
ATOM      6  O   UNL     1       0.902  10.204   0.880  0.00  0.00    -0.244 OA
ENDBRANCH   3   4
ENDBRANCH   2   3
BRANCH   2   7
ATOM      7  C   UNL     1      -1.631   6.537   0.997  0.00  0.00    +0.188 C 
BRANCH   7   8
ATOM      8  C   UNL     1      -2.304   6.671   2.302  0.00  0.00    +0.381 C 
ATOM      9  O   UNL     1      -3.280   7.655   2.446  0.00  0.00    -0.244 OA
ATOM     10  O   UNL     1      -1.610   6.433   3.330  0.00  0.00    -0.244 OA
ENDBRANCH   7   8
ENDBRANCH   2   7
ENDBRANCH   1   2
BRANCH   1  11
ATOM     11  C   UNL     1      -2.187   6.337  -1.345  0.00  0.00    +0.044 C 
BRANCH  11  15
ATOM     12  C   UNL     1      -2.676   6.216  -5.472  0.00  0.00    +0.139 A 
ATOM     13  C   UNL     1      -2.376   7.441  -4.921  0.00  0.00    +0.037 A 
ATOM     14  C   UNL     1      -2.314   7.582  -3.539  0.00  0.00    -0.001 A 
ATOM     15  C   UNL     1      -2.743   6.583  -2.690  0.00  0.00    -0.021 A 
ATOM     16  C   UNL     1      -3.246   5.439  -3.303  0.00  0.00    -0.001 A 
ATOM     17  C   UNL     1      -3.233   5.249  -4.660  0.00  0.00    +0.037 A 
BRANCH  12  18
ATOM     18  O   UNL     1      -2.221   5.785  -6.703  0.00  0.00    -0.475 OA
BRANCH  18  20
ATOM     19  C   UNL     1      -0.430   5.327  -7.798  0.00  0.00    +0.051 C 
ATOM     20  C   UNL     1      -0.873   5.419  -6.845  0.00  0.00    +0.206 C 
ENDBRANCH  18  20
ENDBRANCH  12  18
ENDBRANCH  11  15
ENDBRANCH   1  11
BRANCH   1  21
ATOM     21  C   UNL     1       0.071   6.259  -0.740  0.00  0.00    +0.089 C 
BRANCH  21  22
ATOM     22  N   UNL     1       1.101   6.080  -1.634  0.00  0.00    -0.261 NA
BRANCH  22  23
ATOM     23  C   UNL     1       1.878   4.981  -1.055  0.00  0.00    +0.188 C 
BRANCH  23  24
ATOM     24  C   UNL     1       3.327   5.274  -0.979  0.00  0.00    +0.381 C 
ATOM     25  O   UNL     1       4.136   4.146  -0.789  0.00  0.00    -0.244 OA
ATOM     26  O   UNL     1       3.833   6.330  -0.495  0.00  0.00    -0.244 OA
ENDBRANCH  23  24
ENDBRANCH  22  23
BRANCH  22  27
ATOM     27  C   UNL     1       0.838   5.690  -2.980  0.00  0.00    +0.090 C 
BRANCH  27  28
ATOM     28  C   UNL     1       1.350   6.520  -4.075  0.00  0.00    +0.091 C 
BRANCH  28  29
ATOM     29  N   UNL     1       2.677   6.189  -4.557  0.00  0.00    -0.252 NA
BRANCH  29  30
ATOM     30  C   UNL     1       3.660   7.188  -4.139  0.00  0.00    +0.188 C 
BRANCH  30  31
ATOM     31  C   UNL     1       5.033   6.648  -4.107  0.00  0.00    +0.381 C 
ATOM     32  O   UNL     1       6.173   7.426  -3.956  0.00  0.00    -0.244 OA
ATOM     33  O   UNL     1       5.184   5.407  -3.910  0.00  0.00    -0.244 OA
ENDBRANCH  30  31
ENDBRANCH  29  30
BRANCH  29  34
ATOM     34  C   UNL     1       2.580   6.360  -6.007  0.00  0.00    +0.188 C 
BRANCH  34  35
ATOM     35  C   UNL     1       3.050   5.160  -6.739  0.00  0.00    +0.381 C 
ATOM     36  O   UNL     1       2.457   3.960  -6.334  0.00  0.00    -0.244 OA
ATOM     37  O   UNL     1       4.081   5.152  -7.465  0.00  0.00    -0.244 OA
ENDBRANCH  34  35
ENDBRANCH  29  34
ENDBRANCH  28  29
ENDBRANCH  27  28
ENDBRANCH  22  27
ENDBRANCH  21  22
ENDBRANCH   1  21
TORSDOF 20
ENDMDL
MODEL 7
REMARK VINA RESULT:      -6.4      1.433      2.230
REMARK  Name = 
REMARK  20 active torsions:
REMARK  status: ('A' for Active; 'I' for Inactive)
REMARK    1  A    between atoms: C_2  and  O_3
REMARK    2  A    between atoms: O_3  and  C_4
REMARK    3  A    between atoms: C_7  and  C_8
REMARK    4  A    between atoms: C_8  and  C_9
REMARK    5  A    between atoms: C_9  and  C_10
REMARK    6  A    between atoms: C_9  and  N_27
REMARK    7  A    between atoms: C_10  and  N_11
REMARK    8  A    between atoms: N_11  and  C_12
REMARK    9  A    between atoms: N_11  and  C_23
REMARK   10  A    between atoms: C_12  and  C_13
REMARK   11  A    between atoms: C_13  and  N_14
REMARK   12  A    between atoms: N_14  and  C_15
REMARK   13  A    between atoms: N_14  and  C_19
REMARK   14  A    between atoms: C_15  and  C_16
REMARK   15  A    between atoms: C_19  and  C_20
REMARK   16  A    between atoms: C_23  and  C_24
REMARK   17  A    between atoms: N_27  and  C_28
REMARK   18  A    between atoms: N_27  and  C_32
REMARK   19  A    between atoms: C_28  and  C_29
REMARK   20  A    between atoms: C_32  and  C_33
REMARK                            x       y       z     vdW  Elec       q    Type
REMARK                         _______ _______ _______ _____ _____    ______ ____
ROOT
ATOM      1  C   UNL     1       3.105   6.697  -5.079  0.00  0.00    +0.079 C 
ENDROOT
BRANCH   1   2
ATOM      2  N   UNL     1       3.565   6.560  -6.586  0.00  0.00    -0.253 NA
BRANCH   2   3
ATOM      3  C   UNL     1       2.177   6.533  -7.039  0.00  0.00    +0.188 C 
BRANCH   3   4
ATOM      4  C   UNL     1       1.774   7.408  -8.103  0.00  0.00    +0.381 C 
ATOM      5  O   UNL     1       2.096   6.948  -9.393  0.00  0.00    -0.244 OA
ATOM      6  O   UNL     1       2.182   8.605  -7.941  0.00  0.00    -0.244 OA
ENDBRANCH   3   4
ENDBRANCH   2   3
BRANCH   2   7
ATOM      7  C   UNL     1       3.955   5.179  -6.778  0.00  0.00    +0.188 C 
BRANCH   7   8
ATOM      8  C   UNL     1       4.454   4.894  -8.134  0.00  0.00    +0.381 C 
ATOM      9  O   UNL     1       3.789   3.935  -8.898  0.00  0.00    -0.244 OA
ATOM     10  O   UNL     1       5.703   4.964  -8.311  0.00  0.00    -0.244 OA
ENDBRANCH   7   8
ENDBRANCH   2   7
ENDBRANCH   1   2
BRANCH   1  11
ATOM     11  C   UNL     1       4.136   5.484  -4.646  0.00  0.00    +0.044 C 
BRANCH  11  15
ATOM     12  C   UNL     1       4.222   6.544  -0.628  0.00  0.00    +0.139 A 
ATOM     13  C   UNL     1       4.672   7.485  -1.524  0.00  0.00    +0.037 A 
ATOM     14  C   UNL     1       4.783   7.161  -2.871  0.00  0.00    -0.001 A 
ATOM     15  C   UNL     1       4.651   5.861  -3.316  0.00  0.00    -0.021 A 
ATOM     16  C   UNL     1       4.410   4.905  -2.334  0.00  0.00    -0.001 A 
ATOM     17  C   UNL     1       4.211   5.219  -1.015  0.00  0.00    +0.037 A 
BRANCH  12  18
ATOM     18  O   UNL     1       3.529   6.842   0.531  0.00  0.00    -0.475 OA
BRANCH  18  20
ATOM     19  C   UNL     1       5.236   7.404   1.707  0.00  0.00    +0.051 C 
ATOM     20  C   UNL     1       4.194   7.502   1.576  0.00  0.00    +0.206 C 
ENDBRANCH  18  20
ENDBRANCH  12  18
ENDBRANCH  11  15
ENDBRANCH   1  11
BRANCH   1  21
ATOM     21  C   UNL     1       1.854   5.653  -5.131  0.00  0.00    +0.089 C 
BRANCH  21  22
ATOM     22  N   UNL     1       0.814   5.987  -4.294  0.00  0.00    -0.261 NA
BRANCH  22  23
ATOM     23  C   UNL     1      -0.371   5.478  -4.989  0.00  0.00    +0.188 C 
BRANCH  23  24
ATOM     24  C   UNL     1      -1.422   6.505  -5.167  0.00  0.00    +0.381 C 
ATOM     25  O   UNL     1      -2.327   6.232  -6.202  0.00  0.00    -0.244 OA
ATOM     26  O   UNL     1      -1.274   7.745  -4.956  0.00  0.00    -0.244 OA
ENDBRANCH  23  24
ENDBRANCH  22  23
BRANCH  22  27
ATOM     27  C   UNL     1       0.740   5.451  -2.975  0.00  0.00    +0.090 C 
BRANCH  27  28
ATOM     28  C   UNL     1       0.839   6.360  -1.829  0.00  0.00    +0.091 C 
BRANCH  28  29
ATOM     29  N   UNL     1      -0.409   6.678  -1.161  0.00  0.00    -0.252 NA
BRANCH  29  30
ATOM     30  C   UNL     1      -0.214   6.849   0.279  0.00  0.00    +0.188 C 
BRANCH  30  31
ATOM     31  C   UNL     1      -1.128   7.851   0.856  0.00  0.00    +0.381 C 
ATOM     32  O   UNL     1      -1.093   9.206   0.551  0.00  0.00    -0.244 OA
ATOM     33  O   UNL     1      -2.183   7.443   1.424  0.00  0.00    -0.244 OA
ENDBRANCH  30  31
ENDBRANCH  29  30
BRANCH  29  34
ATOM     34  C   UNL     1      -1.196   5.450  -1.278  0.00  0.00    +0.188 C 
BRANCH  34  35
ATOM     35  C   UNL     1      -2.522   5.698  -1.891  0.00  0.00    +0.381 C 
ATOM     36  O   UNL     1      -2.971   4.682  -2.741  0.00  0.00    -0.244 OA
ATOM     37  O   UNL     1      -3.087   6.826  -1.886  0.00  0.00    -0.244 OA
ENDBRANCH  34  35
ENDBRANCH  29  34
ENDBRANCH  28  29
ENDBRANCH  27  28
ENDBRANCH  22  27
ENDBRANCH  21  22
ENDBRANCH   1  21
TORSDOF 20
ENDMDL
MODEL 8
REMARK VINA RESULT:      -6.3      4.198     10.897
REMARK  Name = 
REMARK  20 active torsions:
REMARK  status: ('A' for Active; 'I' for Inactive)
REMARK    1  A    between atoms: C_2  and  O_3
REMARK    2  A    between atoms: O_3  and  C_4
REMARK    3  A    between atoms: C_7  and  C_8
REMARK    4  A    between atoms: C_8  and  C_9
REMARK    5  A    between atoms: C_9  and  C_10
REMARK    6  A    between atoms: C_9  and  N_27
REMARK    7  A    between atoms: C_10  and  N_11
REMARK    8  A    between atoms: N_11  and  C_12
REMARK    9  A    between atoms: N_11  and  C_23
REMARK   10  A    between atoms: C_12  and  C_13
REMARK   11  A    between atoms: C_13  and  N_14
REMARK   12  A    between atoms: N_14  and  C_15
REMARK   13  A    between atoms: N_14  and  C_19
REMARK   14  A    between atoms: C_15  and  C_16
REMARK   15  A    between atoms: C_19  and  C_20
REMARK   16  A    between atoms: C_23  and  C_24
REMARK   17  A    between atoms: N_27  and  C_28
REMARK   18  A    between atoms: N_27  and  C_32
REMARK   19  A    between atoms: C_28  and  C_29
REMARK   20  A    between atoms: C_32  and  C_33
REMARK                            x       y       z     vdW  Elec       q    Type
REMARK                         _______ _______ _______ _____ _____    ______ ____
ROOT
ATOM      1  C   UNL     1       1.490   5.825  -9.407  0.00  0.00    +0.079 C 
ENDROOT
BRANCH   1   2
ATOM      2  N   UNL     1       1.282   5.007  -8.070  0.00  0.00    -0.253 NA
BRANCH   2   3
ATOM      3  C   UNL     1       0.106   5.806  -7.729  0.00  0.00    +0.188 C 
BRANCH   3   4
ATOM      4  C   UNL     1      -0.866   5.262  -6.824  0.00  0.00    +0.381 C 
ATOM      5  O   UNL     1      -2.175   5.739  -7.016  0.00  0.00    -0.244 OA
ATOM      6  O   UNL     1      -0.523   5.377  -5.601  0.00  0.00    -0.244 OA
ENDBRANCH   3   4
ENDBRANCH   2   3
BRANCH   2   7
ATOM      7  C   UNL     1       2.252   5.509  -7.120  0.00  0.00    +0.188 C 
BRANCH   7   8
ATOM      8  C   UNL     1       2.709   4.492  -6.156  0.00  0.00    +0.381 C 
ATOM      9  O   UNL     1       2.094   3.241  -6.170  0.00  0.00    -0.244 OA
ATOM     10  O   UNL     1       3.083   4.906  -5.022  0.00  0.00    -0.244 OA
ENDBRANCH   7   8
ENDBRANCH   2   7
ENDBRANCH   1   2
BRANCH   1  11
ATOM     11  C   UNL     1       0.570   4.730 -10.229  0.00  0.00    +0.044 C 
BRANCH  11  15
ATOM     12  C   UNL     1       0.723   6.775 -13.845  0.00  0.00    +0.139 A 
ATOM     13  C   UNL     1       0.178   7.450 -12.776  0.00  0.00    +0.037 A 
ATOM     14  C   UNL     1      -0.014   6.792 -11.567  0.00  0.00    -0.001 A 
ATOM     15  C   UNL     1       0.135   5.424 -11.456  0.00  0.00    -0.021 A 
ATOM     16  C   UNL     1       0.478   4.754 -12.627  0.00  0.00    -0.001 A 
ATOM     17  C   UNL     1       0.755   5.396 -13.805  0.00  0.00    +0.037 A 
BRANCH  12  18
ATOM     18  O   UNL     1       1.483   7.370 -14.834  0.00  0.00    -0.475 OA
BRANCH  18  20
ATOM     19  C   UNL     1       0.133   8.077 -16.349  0.00  0.00    +0.051 C 
ATOM     20  C   UNL     1       0.891   8.337 -15.664  0.00  0.00    +0.206 C 
ENDBRANCH  18  20
ENDBRANCH  12  18
ENDBRANCH  11  15
ENDBRANCH   1  11
BRANCH   1  21
ATOM     21  C   UNL     1       2.858   5.093  -9.906  0.00  0.00    +0.089 C 
BRANCH  21  22
ATOM     22  N   UNL     1       3.648   5.879 -10.714  0.00  0.00    -0.261 NA
BRANCH  22  23
ATOM     23  C   UNL     1       4.553   6.546  -9.776  0.00  0.00    +0.188 C 
BRANCH  23  24
ATOM     24  C   UNL     1       5.724   5.717  -9.414  0.00  0.00    +0.381 C 
ATOM     25  O   UNL     1       5.528   4.898  -8.293  0.00  0.00    -0.244 OA
ATOM     26  O   UNL     1       6.934   6.056  -9.569  0.00  0.00    -0.244 OA
ENDBRANCH  23  24
ENDBRANCH  22  23
BRANCH  22  27
ATOM     27  C   UNL     1       4.492   5.290 -11.701  0.00  0.00    +0.090 C 
BRANCH  27  28
ATOM     28  C   UNL     1       4.280   5.626 -13.113  0.00  0.00    +0.091 C 
BRANCH  28  29
ATOM     29  N   UNL     1       5.476   5.877 -13.893  0.00  0.00    -0.252 NA
BRANCH  29  30
ATOM     30  C   UNL     1       6.465   6.632 -13.125  0.00  0.00    +0.188 C 
BRANCH  30  31
ATOM     31  C   UNL     1       7.724   5.886 -12.939  0.00  0.00    +0.381 C 
ATOM     32  O   UNL     1       8.817   6.366 -12.228  0.00  0.00    -0.244 OA
ATOM     33  O   UNL     1       7.722   4.642 -13.172  0.00  0.00    -0.244 OA
ENDBRANCH  30  31
ENDBRANCH  29  30
BRANCH  29  34
ATOM     34  C   UNL     1       5.034   6.808 -14.931  0.00  0.00    +0.188 C 
BRANCH  34  35
ATOM     35  C   UNL     1       6.142   7.200 -15.833  0.00  0.00    +0.381 C 
ATOM     36  O   UNL     1       6.925   6.134 -16.292  0.00  0.00    -0.244 OA
ATOM     37  O   UNL     1       6.537   8.390 -15.971  0.00  0.00    -0.244 OA
ENDBRANCH  34  35
ENDBRANCH  29  34
ENDBRANCH  28  29
ENDBRANCH  27  28
ENDBRANCH  22  27
ENDBRANCH  21  22
ENDBRANCH   1  21
TORSDOF 20
ENDMDL
MODEL 9
REMARK VINA RESULT:      -6.3      4.279      9.728
REMARK  Name = 
REMARK  20 active torsions:
REMARK  status: ('A' for Active; 'I' for Inactive)
REMARK    1  A    between atoms: C_2  and  O_3
REMARK    2  A    between atoms: O_3  and  C_4
REMARK    3  A    between atoms: C_7  and  C_8
REMARK    4  A    between atoms: C_8  and  C_9
REMARK    5  A    between atoms: C_9  and  C_10
REMARK    6  A    between atoms: C_9  and  N_27
REMARK    7  A    between atoms: C_10  and  N_11
REMARK    8  A    between atoms: N_11  and  C_12
REMARK    9  A    between atoms: N_11  and  C_23
REMARK   10  A    between atoms: C_12  and  C_13
REMARK   11  A    between atoms: C_13  and  N_14
REMARK   12  A    between atoms: N_14  and  C_15
REMARK   13  A    between atoms: N_14  and  C_19
REMARK   14  A    between atoms: C_15  and  C_16
REMARK   15  A    between atoms: C_19  and  C_20
REMARK   16  A    between atoms: C_23  and  C_24
REMARK   17  A    between atoms: N_27  and  C_28
REMARK   18  A    between atoms: N_27  and  C_32
REMARK   19  A    between atoms: C_28  and  C_29
REMARK   20  A    between atoms: C_32  and  C_33
REMARK                            x       y       z     vdW  Elec       q    Type
REMARK                         _______ _______ _______ _____ _____    ______ ____
ROOT
ATOM      1  C   UNL     1       1.841   5.336 -10.723  0.00  0.00    +0.079 C 
ENDROOT
BRANCH   1   2
ATOM      2  N   UNL     1       0.827   5.665 -11.891  0.00  0.00    -0.253 NA
BRANCH   2   3
ATOM      3  C   UNL     1       1.221   4.458 -12.614  0.00  0.00    +0.188 C 
BRANCH   3   4
ATOM      4  C   UNL     1       1.212   4.472 -14.049  0.00  0.00    +0.381 C 
ATOM      5  O   UNL     1       0.027   3.987 -14.632  0.00  0.00    -0.244 OA
ATOM      6  O   UNL     1       2.229   3.894 -14.556  0.00  0.00    -0.244 OA
ENDBRANCH   3   4
ENDBRANCH   2   3
BRANCH   2   7
ATOM      7  C   UNL     1       1.443   6.696 -12.699  0.00  0.00    +0.188 C 
BRANCH   7   8
ATOM      8  C   UNL     1       0.503   7.747 -13.124  0.00  0.00    +0.381 C 
ATOM      9  O   UNL     1      -0.610   8.006 -12.324  0.00  0.00    -0.244 OA
ATOM     10  O   UNL     1       0.328   7.890 -14.368  0.00  0.00    -0.244 OA
ENDBRANCH   7   8
ENDBRANCH   2   7
ENDBRANCH   1   2
BRANCH   1  11
ATOM     11  C   UNL     1       1.103   6.453  -9.758  0.00  0.00    +0.044 C 
BRANCH  11  15
ATOM     12  C   UNL     1      -0.383   5.653  -5.959  0.00  0.00    +0.139 A 
ATOM     13  C   UNL     1       0.978   5.824  -6.066  0.00  0.00    +0.037 A 
ATOM     14  C   UNL     1       1.560   5.978  -7.320  0.00  0.00    -0.001 A 
ATOM     15  C   UNL     1       0.846   5.761  -8.481  0.00  0.00    -0.021 A 
ATOM     16  C   UNL     1      -0.481   5.374  -8.314  0.00  0.00    -0.001 A 
ATOM     17  C   UNL     1      -1.093   5.303  -7.090  0.00  0.00    +0.037 A 
BRANCH  12  18
ATOM     18  O   UNL     1      -1.135   6.062  -4.874  0.00  0.00    -0.475 OA
BRANCH  18  20
ATOM     19  C   UNL     1      -2.000   8.002  -4.554  0.00  0.00    +0.051 C 
ATOM     20  C   UNL     1      -1.124   7.417  -4.506  0.00  0.00    +0.206 C 
ENDBRANCH  18  20
ENDBRANCH  12  18
ENDBRANCH  11  15
ENDBRANCH   1  11
BRANCH   1  21
ATOM     21  C   UNL     1       3.001   6.408 -11.125  0.00  0.00    +0.089 C 
BRANCH  21  22
ATOM     22  N   UNL     1       4.277   5.894 -11.072  0.00  0.00    -0.261 NA
BRANCH  22  23
ATOM     23  C   UNL     1       4.237   4.979  -9.929  0.00  0.00    +0.188 C 
BRANCH  23  24
ATOM     24  C   UNL     1       5.339   5.207  -8.968  0.00  0.00    +0.381 C 
ATOM     25  O   UNL     1       4.922   5.371  -7.639  0.00  0.00    -0.244 OA
ATOM     26  O   UNL     1       6.416   5.822  -9.225  0.00  0.00    -0.244 OA
ENDBRANCH  23  24
ENDBRANCH  22  23
BRANCH  22  27
ATOM     27  C   UNL     1       4.798   5.127 -12.154  0.00  0.00    +0.090 C 
BRANCH  27  28
ATOM     28  C   UNL     1       4.967   5.765 -13.464  0.00  0.00    +0.091 C 
BRANCH  28  29
ATOM     29  N   UNL     1       6.285   6.304 -13.742  0.00  0.00    -0.252 NA
BRANCH  29  30
ATOM     30  C   UNL     1       6.622   6.182 -15.160  0.00  0.00    +0.188 C 
BRANCH  30  31
ATOM     31  C   UNL     1       6.796   7.493 -15.812  0.00  0.00    +0.381 C 
ATOM     32  O   UNL     1       7.687   7.735 -16.850  0.00  0.00    -0.244 OA
ATOM     33  O   UNL     1       5.901   8.371 -15.639  0.00  0.00    -0.244 OA
ENDBRANCH  30  31
ENDBRANCH  29  30
BRANCH  29  34
ATOM     34  C   UNL     1       7.196   5.376 -13.071  0.00  0.00    +0.188 C 
BRANCH  34  35
ATOM     35  C   UNL     1       8.216   6.088 -12.265  0.00  0.00    +0.381 C 
ATOM     36  O   UNL     1       7.749   7.236 -11.614  0.00  0.00    -0.244 OA
ATOM     37  O   UNL     1       9.454   5.864 -12.359  0.00  0.00    -0.244 OA
ENDBRANCH  34  35
ENDBRANCH  29  34
ENDBRANCH  28  29
ENDBRANCH  27  28
ENDBRANCH  22  27
ENDBRANCH  21  22
ENDBRANCH   1  21
TORSDOF 20
ENDMDL
