MODEL 1
REMARK VINA RESULT:      -8.1      0.000      0.000
REMARK  Name = 
REMARK  7 active torsions:
REMARK  status: ('A' for Active; 'I' for Inactive)
REMARK    1  A    between atoms: C_2  and  C_3
REMARK    2  A    between atoms: C_2  and  N_12
REMARK    3  A    between atoms: C_3  and  C_4
REMARK    4  A    between atoms: C_4  and  C_5
REMARK    5  A    between atoms: N_12  and  C_13
REMARK    6  A    between atoms: C_13  and  C_14
REMARK    7  A    between atoms: C_14  and  C_15
REMARK                            x       y       z     vdW  Elec       q    Type
REMARK                         _______ _______ _______ _____ _____    ______ ____
ROOT
ATOM      1  C   UNL     1       1.650   7.049  -8.889  0.00  0.00    +0.019 C 
ATOM      2  C   UNL     1       1.393   5.454  -9.316  0.00  0.00    +0.073 C 
ENDROOT
BRANCH   2   3
ATOM      3  N   UNL     1       2.309   4.942  -8.106  0.00  0.00    -0.219 NA
BRANCH   3   4
ATOM      4  C   UNL     1       3.354   4.200  -8.812  0.00  0.00    +0.093 C 
BRANCH   4   5
ATOM      5  C   UNL     1       4.627   4.952  -8.565  0.00  0.00    +0.045 C 
BRANCH   5   6
ATOM      6  C   UNL     1       5.224   5.543  -9.772  0.00  0.00    -0.017 A 
ATOM      7  C   UNL     1       4.738   5.336 -11.057  0.00  0.00    +0.041 A 
ATOM      8  C   UNL     1       5.617   5.331 -12.132  0.00  0.00    +0.234 A 
ATOM      9  O   UNL     1       5.172   4.971 -13.399  0.00  0.00    -0.283 OA
ATOM     10  C   UNL     1       6.995   5.377 -11.953  0.00  0.00    +0.234 A 
ATOM     11  O   UNL     1       7.862   4.567 -12.692  0.00  0.00    -0.283 OA
ATOM     12  C   UNL     1       7.407   5.952 -10.756  0.00  0.00    +0.045 A 
ATOM     13  C   UNL     1       6.506   6.074  -9.705  0.00  0.00    -0.001 A 
ENDBRANCH   5   6
ENDBRANCH   4   5
ENDBRANCH   3   4
ENDBRANCH   2   3
BRANCH   2  14
ATOM     14  C   UNL     1       0.021   5.379  -8.362  0.00  0.00    +0.022 C 
BRANCH  14  15
ATOM     15  C   UNL     1       0.597   5.878  -7.061  0.00  0.00    +0.028 C 
BRANCH  15  16
ATOM     16  C   UNL     1      -0.527   5.924  -6.089  0.00  0.00    -0.022 A 
ATOM     17  C   UNL     1      -1.820   5.681  -6.499  0.00  0.00    -0.001 A 
ATOM     18  C   UNL     1      -2.759   5.382  -5.528  0.00  0.00    +0.042 A 
ATOM     19  C   UNL     1      -2.388   5.454  -4.191  0.00  0.00    +0.196 A 
ATOM     20  O   UNL     1      -3.198   4.936  -3.194  0.00  0.00    -0.287 OA
ATOM     21  C   UNL     1      -1.276   6.206  -3.833  0.00  0.00    +0.042 A 
ATOM     22  C   UNL     1      -0.303   6.395  -4.807  0.00  0.00    -0.001 A 
ENDBRANCH  15  16
ENDBRANCH  14  15
ENDBRANCH   2  14
TORSDOF 7
ENDMDL
MODEL 2
REMARK VINA RESULT:      -7.9      1.462      9.279
REMARK  Name = 
REMARK  7 active torsions:
REMARK  status: ('A' for Active; 'I' for Inactive)
REMARK    1  A    between atoms: C_2  and  C_3
REMARK    2  A    between atoms: C_2  and  N_12
REMARK    3  A    between atoms: C_3  and  C_4
REMARK    4  A    between atoms: C_4  and  C_5
REMARK    5  A    between atoms: N_12  and  C_13
REMARK    6  A    between atoms: C_13  and  C_14
REMARK    7  A    between atoms: C_14  and  C_15
REMARK                            x       y       z     vdW  Elec       q    Type
REMARK                         _______ _______ _______ _____ _____    ______ ____
ROOT
ATOM      1  C   UNL     1       1.908   6.984  -8.886  0.00  0.00    +0.019 C 
ATOM      2  C   UNL     1       2.693   6.031  -7.760  0.00  0.00    +0.073 C 
ENDROOT
BRANCH   2   3
ATOM      3  N   UNL     1       1.538   4.925  -7.832  0.00  0.00    -0.219 NA
BRANCH   3   4
ATOM      4  C   UNL     1       0.339   5.751  -7.974  0.00  0.00    +0.093 C 
BRANCH   4   5
ATOM      5  C   UNL     1      -0.715   5.088  -7.139  0.00  0.00    +0.045 C 
BRANCH   5   6
ATOM      6  C   UNL     1      -0.884   5.675  -5.801  0.00  0.00    -0.017 A 
ATOM      7  C   UNL     1      -0.094   5.348  -4.707  0.00  0.00    +0.041 A 
ATOM      8  C   UNL     1      -0.640   5.382  -3.430  0.00  0.00    +0.234 A 
ATOM      9  O   UNL     1       0.088   4.909  -2.344  0.00  0.00    -0.283 OA
ATOM     10  C   UNL     1      -1.998   5.589  -3.218  0.00  0.00    +0.234 A 
ATOM     11  O   UNL     1      -2.721   4.841  -2.284  0.00  0.00    -0.283 OA
ATOM     12  C   UNL     1      -2.649   6.269  -4.241  0.00  0.00    +0.045 A 
ATOM     13  C   UNL     1      -2.062   6.348  -5.499  0.00  0.00    -0.001 A 
ENDBRANCH   5   6
ENDBRANCH   4   5
ENDBRANCH   3   4
ENDBRANCH   2   3
BRANCH   2  14
ATOM     14  C   UNL     1       3.564   5.259  -8.962  0.00  0.00    +0.022 C 
BRANCH  14  15
ATOM     15  C   UNL     1       3.774   6.422  -9.899  0.00  0.00    +0.028 C 
BRANCH  15  16
ATOM     16  C   UNL     1       5.233   6.487 -10.174  0.00  0.00    -0.022 A 
ATOM     17  C   UNL     1       6.124   5.759  -9.415  0.00  0.00    -0.001 A 
ATOM     18  C   UNL     1       7.397   5.569  -9.921  0.00  0.00    +0.042 A 
ATOM     19  C   UNL     1       7.754   6.211 -11.101  0.00  0.00    +0.196 A 
ATOM     20  O   UNL     1       8.912   5.872 -11.779  0.00  0.00    -0.287 OA
ATOM     21  C   UNL     1       7.031   7.323 -11.515  0.00  0.00    +0.042 A 
ATOM     22  C   UNL     1       5.719   7.424 -11.069  0.00  0.00    -0.001 A 
ENDBRANCH  15  16
ENDBRANCH  14  15
ENDBRANCH   2  14
TORSDOF 7
ENDMDL
MODEL 3
REMARK VINA RESULT:      -7.8      3.756      7.146
REMARK  Name = 
REMARK  7 active torsions:
REMARK  status: ('A' for Active; 'I' for Inactive)
REMARK    1  A    between atoms: C_2  and  C_3
REMARK    2  A    between atoms: C_2  and  N_12
REMARK    3  A    between atoms: C_3  and  C_4
REMARK    4  A    between atoms: C_4  and  C_5
REMARK    5  A    between atoms: N_12  and  C_13
REMARK    6  A    between atoms: C_13  and  C_14
REMARK    7  A    between atoms: C_14  and  C_15
REMARK                            x       y       z     vdW  Elec       q    Type
REMARK                         _______ _______ _______ _____ _____    ______ ____
ROOT
ATOM      1  C   UNL     1       2.654   7.016  -8.062  0.00  0.00    +0.019 C 
ATOM      2  C   UNL     1       2.921   5.543  -7.319  0.00  0.00    +0.073 C 
ENDROOT
BRANCH   2   3
ATOM      3  N   UNL     1       1.554   4.953  -7.909  0.00  0.00    -0.219 NA
BRANCH   3   4
ATOM      4  C   UNL     1       1.341   5.802  -9.081  0.00  0.00    +0.093 C 
BRANCH   4   5
ATOM      5  C   UNL     1       0.468   5.008 -10.006  0.00  0.00    +0.045 C 
BRANCH   5   6
ATOM      6  C   UNL     1       0.631   5.346 -11.428  0.00  0.00    -0.017 A 
ATOM      7  C   UNL     1       0.167   4.552 -12.470  0.00  0.00    +0.041 A 
ATOM      8  C   UNL     1       0.856   4.529 -13.676  0.00  0.00    +0.234 A 
ATOM      9  O   UNL     1       0.498   3.626 -14.671  0.00  0.00    -0.283 OA
ATOM     10  C   UNL     1       2.084   5.162 -13.831  0.00  0.00    +0.234 A 
ATOM     11  O   UNL     1       3.146   4.555 -14.508  0.00  0.00    -0.283 OA
ATOM     12  C   UNL     1       2.311   6.214 -12.952  0.00  0.00    +0.045 A 
ATOM     13  C   UNL     1       1.550   6.321 -11.793  0.00  0.00    -0.001 A 
ENDBRANCH   5   6
ENDBRANCH   4   5
ENDBRANCH   3   4
ENDBRANCH   2   3
BRANCH   2  14
ATOM     14  C   UNL     1       3.780   4.987  -8.642  0.00  0.00    +0.022 C 
BRANCH  14  15
ATOM     15  C   UNL     1       5.143   5.534  -8.299  0.00  0.00    +0.028 C 
BRANCH  15  16
ATOM     16  C   UNL     1       5.891   5.646  -9.579  0.00  0.00    -0.022 A 
ATOM     17  C   UNL     1       7.260   5.800  -9.581  0.00  0.00    -0.001 A 
ATOM     18  C   UNL     1       7.937   5.541 -10.758  0.00  0.00    +0.042 A 
ATOM     19  C   UNL     1       7.204   5.254 -11.904  0.00  0.00    +0.196 A 
ATOM     20  O   UNL     1       7.817   4.752 -13.039  0.00  0.00    -0.287 OA
ATOM     21  C   UNL     1       5.870   5.638 -11.972  0.00  0.00    +0.042 A 
ATOM     22  C   UNL     1       5.195   5.786 -10.767  0.00  0.00    -0.001 A 
ENDBRANCH  15  16
ENDBRANCH  14  15
ENDBRANCH   2  14
TORSDOF 7
ENDMDL
MODEL 4
REMARK VINA RESULT:      -7.8      3.508      4.853
REMARK  Name = 
REMARK  7 active torsions:
REMARK  status: ('A' for Active; 'I' for Inactive)
REMARK    1  A    between atoms: C_2  and  C_3
REMARK    2  A    between atoms: C_2  and  N_12
REMARK    3  A    between atoms: C_3  and  C_4
REMARK    4  A    between atoms: C_4  and  C_5
REMARK    5  A    between atoms: N_12  and  C_13
REMARK    6  A    between atoms: C_13  and  C_14
REMARK    7  A    between atoms: C_14  and  C_15
REMARK                            x       y       z     vdW  Elec       q    Type
REMARK                         _______ _______ _______ _____ _____    ______ ____
ROOT
ATOM      1  C   UNL     1       2.116   4.398  -7.573  0.00  0.00    +0.019 C 
ATOM      2  C   UNL     1       2.015   6.026  -7.205  0.00  0.00    +0.073 C 
ENDROOT
BRANCH   2   3
ATOM      3  N   UNL     1       3.610   6.163  -7.198  0.00  0.00    -0.219 NA
BRANCH   3   4
ATOM      4  C   UNL     1       4.007   5.109  -8.132  0.00  0.00    +0.093 C 
BRANCH   4   5
ATOM      5  C   UNL     1       5.455   5.355  -8.433  0.00  0.00    +0.045 C 
BRANCH   5   6
ATOM      6  C   UNL     1       5.716   5.820  -9.804  0.00  0.00    -0.017 A 
ATOM      7  C   UNL     1       4.985   5.410 -10.912  0.00  0.00    +0.041 A 
ATOM      8  C   UNL     1       5.607   5.323 -12.151  0.00  0.00    +0.234 A 
ATOM      9  O   UNL     1       4.935   4.768 -13.235  0.00  0.00    -0.283 OA
ATOM     10  C   UNL     1       6.980   5.487 -12.297  0.00  0.00    +0.234 A 
ATOM     11  O   UNL     1       7.740   4.648 -13.116  0.00  0.00    -0.283 OA
ATOM     12  C   UNL     1       7.583   6.244 -11.299  0.00  0.00    +0.045 A 
ATOM     13  C   UNL     1       6.925   6.443 -10.091  0.00  0.00    -0.001 A 
ENDBRANCH   5   6
ENDBRANCH   4   5
ENDBRANCH   3   4
ENDBRANCH   2   3
BRANCH   2  14
ATOM     14  C   UNL     1       1.946   6.427  -8.827  0.00  0.00    +0.022 C 
BRANCH  14  15
ATOM     15  C   UNL     1       0.546   5.959  -9.138  0.00  0.00    +0.028 C 
BRANCH  15  16
ATOM     16  C   UNL     1       0.407   5.990 -10.617  0.00  0.00    -0.022 A 
ATOM     17  C   UNL     1      -0.031   7.129 -11.258  0.00  0.00    -0.001 A 
ATOM     18  C   UNL     1       0.195   7.232 -12.618  0.00  0.00    +0.042 A 
ATOM     19  C   UNL     1       0.742   6.145 -13.292  0.00  0.00    +0.196 A 
ATOM     20  O   UNL     1       1.214   6.270 -14.587  0.00  0.00    -0.287 OA
ATOM     21  C   UNL     1       0.656   4.880 -12.723  0.00  0.00    +0.042 A 
ATOM     22  C   UNL     1       0.535   4.817 -11.341  0.00  0.00    -0.001 A 
ENDBRANCH  15  16
ENDBRANCH  14  15
ENDBRANCH   2  14
TORSDOF 7
ENDMDL
MODEL 5
REMARK VINA RESULT:      -7.8      4.582      7.918
REMARK  Name = 
REMARK  7 active torsions:
REMARK  status: ('A' for Active; 'I' for Inactive)
REMARK    1  A    between atoms: C_2  and  C_3
REMARK    2  A    between atoms: C_2  and  N_12
REMARK    3  A    between atoms: C_3  and  C_4
REMARK    4  A    between atoms: C_4  and  C_5
REMARK    5  A    between atoms: N_12  and  C_13
REMARK    6  A    between atoms: C_13  and  C_14
REMARK    7  A    between atoms: C_14  and  C_15
REMARK                            x       y       z     vdW  Elec       q    Type
REMARK                         _______ _______ _______ _____ _____    ______ ____
ROOT
ATOM      1  C   UNL     1       4.647   5.370  -8.046  0.00  0.00    +0.019 C 
ATOM      2  C   UNL     1       3.295   5.809  -7.167  0.00  0.00    +0.073 C 
ENDROOT
BRANCH   2   3
ATOM      3  N   UNL     1       2.620   4.378  -7.416  0.00  0.00    -0.219 NA
BRANCH   3   4
ATOM      4  C   UNL     1       1.848   4.191  -6.188  0.00  0.00    +0.093 C 
BRANCH   4   5
ATOM      5  C   UNL     1       0.574   4.956  -6.386  0.00  0.00    +0.045 C 
BRANCH   5   6
ATOM      6  C   UNL     1       0.037   5.563  -5.158  0.00  0.00    -0.017 A 
ATOM      7  C   UNL     1       0.493   5.260  -3.882  0.00  0.00    +0.041 A 
ATOM      8  C   UNL     1      -0.387   5.308  -2.808  0.00  0.00    +0.234 A 
ATOM      9  O   UNL     1       0.013   4.859  -1.554  0.00  0.00    -0.283 OA
ATOM     10  C   UNL     1      -1.752   5.506  -2.986  0.00  0.00    +0.234 A 
ATOM     11  O   UNL     1      -2.702   4.765  -2.277  0.00  0.00    -0.283 OA
ATOM     12  C   UNL     1      -2.095   6.163  -4.161  0.00  0.00    +0.045 A 
ATOM     13  C   UNL     1      -1.182   6.228  -5.207  0.00  0.00    -0.001 A 
ENDBRANCH   5   6
ENDBRANCH   4   5
ENDBRANCH   3   4
ENDBRANCH   2   3
BRANCH   2  14
ATOM     14  C   UNL     1       3.998   5.275  -5.746  0.00  0.00    +0.022 C 
BRANCH  14  15
ATOM     15  C   UNL     1       4.500   6.592  -5.209  0.00  0.00    +0.028 C 
BRANCH  15  16
ATOM     16  C   UNL     1       4.282   6.562  -3.739  0.00  0.00    -0.022 A 
ATOM     17  C   UNL     1       4.261   7.730  -3.008  0.00  0.00    -0.001 A 
ATOM     18  C   UNL     1       3.709   7.689  -1.741  0.00  0.00    +0.042 A 
ATOM     19  C   UNL     1       3.310   6.463  -1.222  0.00  0.00    +0.196 A 
ATOM     20  O   UNL     1       2.536   6.387  -0.076  0.00  0.00    -0.287 OA
ATOM     21  C   UNL     1       3.838   5.294  -1.758  0.00  0.00    +0.042 A 
ATOM     22  C   UNL     1       4.287   5.350  -3.071  0.00  0.00    -0.001 A 
ENDBRANCH  15  16
ENDBRANCH  14  15
ENDBRANCH   2  14
TORSDOF 7
ENDMDL
MODEL 6
REMARK VINA RESULT:      -7.2      3.060      7.629
REMARK  Name = 
REMARK  7 active torsions:
REMARK  status: ('A' for Active; 'I' for Inactive)
REMARK    1  A    between atoms: C_2  and  C_3
REMARK    2  A    between atoms: C_2  and  N_12
REMARK    3  A    between atoms: C_3  and  C_4
REMARK    4  A    between atoms: C_4  and  C_5
REMARK    5  A    between atoms: N_12  and  C_13
REMARK    6  A    between atoms: C_13  and  C_14
REMARK    7  A    between atoms: C_14  and  C_15
REMARK                            x       y       z     vdW  Elec       q    Type
REMARK                         _______ _______ _______ _____ _____    ______ ____
ROOT
ATOM      1  C   UNL     1       4.879   7.933  -4.002  0.00  0.00    +0.019 C 
ATOM      2  C   UNL     1       4.686   6.402  -3.360  0.00  0.00    +0.073 C 
ENDROOT
BRANCH   2   3
ATOM      3  N   UNL     1       3.138   6.681  -3.058  0.00  0.00    -0.219 NA
BRANCH   3   4
ATOM      4  C   UNL     1       2.639   5.335  -2.774  0.00  0.00    +0.093 C 
BRANCH   4   5
ATOM      5  C   UNL     1       1.144   5.446  -2.775  0.00  0.00    +0.045 C 
BRANCH   5   6
ATOM      6  C   UNL     1       0.572   5.881  -4.058  0.00  0.00    -0.017 A 
ATOM      7  C   UNL     1      -0.337   6.924  -4.186  0.00  0.00    +0.041 A 
ATOM      8  C   UNL     1      -1.295   6.882  -5.192  0.00  0.00    +0.234 A 
ATOM      9  O   UNL     1      -2.306   7.835  -5.237  0.00  0.00    -0.283 OA
ATOM     10  C   UNL     1      -1.473   5.756  -5.989  0.00  0.00    +0.234 A 
ATOM     11  O   UNL     1      -2.745   5.275  -6.310  0.00  0.00    -0.283 OA
ATOM     12  C   UNL     1      -0.355   4.937  -6.096  0.00  0.00    +0.045 A 
ATOM     13  C   UNL     1       0.671   5.046  -5.164  0.00  0.00    -0.001 A 
ENDBRANCH   5   6
ENDBRANCH   4   5
ENDBRANCH   3   4
ENDBRANCH   2   3
BRANCH   2  14
ATOM     14  C   UNL     1       4.321   5.774  -4.866  0.00  0.00    +0.022 C 
BRANCH  14  15
ATOM     15  C   UNL     1       3.971   7.051  -5.588  0.00  0.00    +0.028 C 
BRANCH  15  16
ATOM     16  C   UNL     1       3.293   6.654  -6.850  0.00  0.00    -0.022 A 
ATOM     17  C   UNL     1       2.232   7.385  -7.338  0.00  0.00    -0.001 A 
ATOM     18  C   UNL     1       1.877   7.203  -8.662  0.00  0.00    +0.042 A 
ATOM     19  C   UNL     1       2.521   6.217  -9.400  0.00  0.00    +0.196 A 
ATOM     20  O   UNL     1       2.387   6.150 -10.776  0.00  0.00    -0.287 OA
ATOM     21  C   UNL     1       3.168   5.183  -8.734  0.00  0.00    +0.042 A 
ATOM     22  C   UNL     1       3.604   5.441  -7.441  0.00  0.00    -0.001 A 
ENDBRANCH  15  16
ENDBRANCH  14  15
ENDBRANCH   2  14
TORSDOF 7
ENDMDL
MODEL 7
REMARK VINA RESULT:      -7.2      4.185      5.496
REMARK  Name = 
REMARK  7 active torsions:
REMARK  status: ('A' for Active; 'I' for Inactive)
REMARK    1  A    between atoms: C_2  and  C_3
REMARK    2  A    between atoms: C_2  and  N_12
REMARK    3  A    between atoms: C_3  and  C_4
REMARK    4  A    between atoms: C_4  and  C_5
REMARK    5  A    between atoms: N_12  and  C_13
REMARK    6  A    between atoms: C_13  and  C_14
REMARK    7  A    between atoms: C_14  and  C_15
REMARK                            x       y       z     vdW  Elec       q    Type
REMARK                         _______ _______ _______ _____ _____    ______ ____
ROOT
ATOM      1  C   UNL     1       0.923   6.290  -9.140  0.00  0.00    +0.019 C 
ATOM      2  C   UNL     1       1.897   5.020  -8.656  0.00  0.00    +0.073 C 
ENDROOT
BRANCH   2   3
ATOM      3  N   UNL     1       2.858   6.013  -7.848  0.00  0.00    -0.219 NA
BRANCH   3   4
ATOM      4  C   UNL     1       4.020   5.163  -7.589  0.00  0.00    +0.093 C 
BRANCH   4   5
ATOM      5  C   UNL     1       4.767   5.823  -6.468  0.00  0.00    +0.045 C 
BRANCH   5   6
ATOM      6  C   UNL     1       3.960   6.057  -5.261  0.00  0.00    -0.017 A 
ATOM      7  C   UNL     1       3.895   7.276  -4.597  0.00  0.00    +0.041 A 
ATOM      8  C   UNL     1       3.705   7.300  -3.222  0.00  0.00    +0.234 A 
ATOM      9  O   UNL     1       3.795   8.499  -2.523  0.00  0.00    -0.283 OA
ATOM     10  C   UNL     1       3.726   6.139  -2.457  0.00  0.00    +0.234 A 
ATOM     11  O   UNL     1       4.391   6.076  -1.229  0.00  0.00    -0.283 OA
ATOM     12  C   UNL     1       3.411   4.979  -3.155  0.00  0.00    +0.045 A 
ATOM     13  C   UNL     1       3.481   4.968  -4.543  0.00  0.00    -0.001 A 
ENDBRANCH   5   6
ENDBRANCH   4   5
ENDBRANCH   3   4
ENDBRANCH   2   3
BRANCH   2  14
ATOM     14  C   UNL     1       0.953   4.763  -7.299  0.00  0.00    +0.022 C 
BRANCH  14  15
ATOM     15  C   UNL     1       0.531   6.184  -7.019  0.00  0.00    +0.028 C 
BRANCH  15  16
ATOM     16  C   UNL     1      -0.356   6.137  -5.828  0.00  0.00    -0.022 A 
ATOM     17  C   UNL     1      -1.723   6.033  -5.974  0.00  0.00    -0.001 A 
ATOM     18  C   UNL     1      -2.461   5.636  -4.874  0.00  0.00    +0.042 A 
ATOM     19  C   UNL     1      -1.814   5.476  -3.654  0.00  0.00    +0.196 A 
ATOM     20  O   UNL     1      -2.440   4.852  -2.588  0.00  0.00    -0.287 OA
ATOM     21  C   UNL     1      -0.590   6.100  -3.446  0.00  0.00    +0.042 A 
ATOM     22  C   UNL     1       0.170   6.388  -4.573  0.00  0.00    -0.001 A 
ENDBRANCH  15  16
ENDBRANCH  14  15
ENDBRANCH   2  14
TORSDOF 7
ENDMDL
MODEL 8
REMARK VINA RESULT:      -7.1      1.774      2.375
REMARK  Name = 
REMARK  7 active torsions:
REMARK  status: ('A' for Active; 'I' for Inactive)
REMARK    1  A    between atoms: C_2  and  C_3
REMARK    2  A    between atoms: C_2  and  N_12
REMARK    3  A    between atoms: C_3  and  C_4
REMARK    4  A    between atoms: C_4  and  C_5
REMARK    5  A    between atoms: N_12  and  C_13
REMARK    6  A    between atoms: C_13  and  C_14
REMARK    7  A    between atoms: C_14  and  C_15
REMARK                            x       y       z     vdW  Elec       q    Type
REMARK                         _______ _______ _______ _____ _____    ______ ____
ROOT
ATOM      1  C   UNL     1       3.726   6.100  -4.173  0.00  0.00    +0.019 C 
ATOM      2  C   UNL     1       3.323   6.414  -5.764  0.00  0.00    +0.073 C 
ENDROOT
BRANCH   2   3
ATOM      3  N   UNL     1       4.587   5.583  -6.289  0.00  0.00    -0.219 NA
BRANCH   3   4
ATOM      4  C   UNL     1       4.358   5.567  -7.735  0.00  0.00    +0.093 C 
BRANCH   4   5
ATOM      5  C   UNL     1       5.611   5.009  -8.340  0.00  0.00    +0.045 C 
BRANCH   5   6
ATOM      6  C   UNL     1       6.000   5.639  -9.611  0.00  0.00    -0.017 A 
ATOM      7  C   UNL     1       5.202   5.647 -10.748  0.00  0.00    +0.041 A 
ATOM      8  C   UNL     1       5.795   5.636 -12.004  0.00  0.00    +0.234 A 
ATOM      9  O   UNL     1       5.015   5.486 -13.145  0.00  0.00    -0.283 OA
ATOM     10  C   UNL     1       7.165   5.468 -12.167  0.00  0.00    +0.234 A 
ATOM     11  O   UNL     1       7.693   4.630 -13.154  0.00  0.00    -0.283 OA
ATOM     12  C   UNL     1       7.932   5.843 -11.070  0.00  0.00    +0.045 A 
ATOM     13  C   UNL     1       7.332   5.974  -9.822  0.00  0.00    -0.001 A 
ENDBRANCH   5   6
ENDBRANCH   4   5
ENDBRANCH   3   4
ENDBRANCH   2   3
BRANCH   2  14
ATOM     14  C   UNL     1       2.351   5.055  -5.828  0.00  0.00    +0.022 C 
BRANCH  14  15
ATOM     15  C   UNL     1       1.723   5.136  -4.459  0.00  0.00    +0.028 C 
BRANCH  15  16
ATOM     16  C   UNL     1       0.304   5.526  -4.664  0.00  0.00    -0.022 A 
ATOM     17  C   UNL     1      -0.491   5.875  -3.594  0.00  0.00    -0.001 A 
ATOM     18  C   UNL     1      -1.662   6.562  -3.856  0.00  0.00    +0.042 A 
ATOM     19  C   UNL     1      -2.039   6.764  -5.179  0.00  0.00    +0.196 A 
ATOM     20  O   UNL     1      -3.057   7.644  -5.506  0.00  0.00    -0.287 OA
ATOM     21  C   UNL     1      -1.509   5.947  -6.169  0.00  0.00    +0.042 A 
ATOM     22  C   UNL     1      -0.278   5.358  -5.909  0.00  0.00    -0.001 A 
ENDBRANCH  15  16
ENDBRANCH  14  15
ENDBRANCH   2  14
TORSDOF 7
ENDMDL
MODEL 9
REMARK VINA RESULT:      -7.1      1.623      2.119
REMARK  Name = 
REMARK  7 active torsions:
REMARK  status: ('A' for Active; 'I' for Inactive)
REMARK    1  A    between atoms: C_2  and  C_3
REMARK    2  A    between atoms: C_2  and  N_12
REMARK    3  A    between atoms: C_3  and  C_4
REMARK    4  A    between atoms: C_4  and  C_5
REMARK    5  A    between atoms: N_12  and  C_13
REMARK    6  A    between atoms: C_13  and  C_14
REMARK    7  A    between atoms: C_14  and  C_15
REMARK                            x       y       z     vdW  Elec       q    Type
REMARK                         _______ _______ _______ _____ _____    ______ ____
ROOT
ATOM      1  C   UNL     1       0.211   6.588 -10.856  0.00  0.00    +0.019 C 
ATOM      2  C   UNL     1       0.650   4.981 -11.004  0.00  0.00    +0.073 C 
ENDROOT
BRANCH   2   3
ATOM      3  N   UNL     1       2.030   5.247 -10.238  0.00  0.00    -0.219 NA
BRANCH   3   4
ATOM      4  C   UNL     1       2.800   5.975 -11.247  0.00  0.00    +0.093 C 
BRANCH   4   5
ATOM      5  C   UNL     1       3.979   6.554 -10.523  0.00  0.00    +0.045 C 
BRANCH   5   6
ATOM      6  C   UNL     1       5.159   6.777 -11.371  0.00  0.00    -0.017 A 
ATOM      7  C   UNL     1       5.523   5.947 -12.424  0.00  0.00    +0.041 A 
ATOM      8  C   UNL     1       6.866   5.789 -12.742  0.00  0.00    +0.234 A 
ATOM      9  O   UNL     1       7.257   4.846 -13.686  0.00  0.00    -0.283 OA
ATOM     10  C   UNL     1       7.876   6.319 -11.946  0.00  0.00    +0.234 A 
ATOM     11  O   UNL     1       9.027   5.590 -11.633  0.00  0.00    -0.283 OA
ATOM     12  C   UNL     1       7.495   7.411 -11.175  0.00  0.00    +0.045 A 
ATOM     13  C   UNL     1       6.147   7.655 -10.943  0.00  0.00    -0.001 A 
ENDBRANCH   5   6
ENDBRANCH   4   5
ENDBRANCH   3   4
ENDBRANCH   2   3
BRANCH   2  14
ATOM     14  C   UNL     1      -0.120   4.599  -9.570  0.00  0.00    +0.022 C 
BRANCH  14  15
ATOM     15  C   UNL     1       0.338   5.761  -8.725  0.00  0.00    +0.028 C 
BRANCH  15  16
ATOM     16  C   UNL     1      -0.131   5.492  -7.341  0.00  0.00    -0.022 A 
ATOM     17  C   UNL     1       0.740   5.019  -6.383  0.00  0.00    -0.001 A 
ATOM     18  C   UNL     1       0.362   5.127  -5.057  0.00  0.00    +0.042 A 
ATOM     19  C   UNL     1      -0.914   5.593  -4.759  0.00  0.00    +0.196 A 
ATOM     20  O   UNL     1      -1.261   5.951  -3.467  0.00  0.00    -0.287 OA
ATOM     21  C   UNL     1      -1.903   5.536  -5.732  0.00  0.00    +0.042 A 
ATOM     22  C   UNL     1      -1.485   5.536  -7.057  0.00  0.00    -0.001 A 
ENDBRANCH  15  16
ENDBRANCH  14  15
ENDBRANCH   2  14
TORSDOF 7
ENDMDL
