MODEL 1
REMARK VINA RESULT:      -8.2      0.000      0.000
REMARK  Name = 
REMARK  7 active torsions:
REMARK  status: ('A' for Active; 'I' for Inactive)
REMARK    1  A    between atoms: C_2  and  C_3
REMARK    2  A    between atoms: C_6  and  C_7
REMARK    3  A    between atoms: C_7  and  C_8
REMARK    4  A    between atoms: C_8  and  O_9
REMARK    5  A    between atoms: O_9  and  C_10
REMARK    6  A    between atoms: C_13  and  C_14
REMARK    7  A    between atoms: C_14  and  C_15
REMARK                            x       y       z     vdW  Elec       q    Type
REMARK                         _______ _______ _______ _____ _____    ______ ____
ROOT
ATOM      1  C   UNL     1       2.074   5.420  -8.753  0.00  0.00    +0.139 A 
ATOM      2  C   UNL     1       1.749   5.762 -10.058  0.00  0.00    +0.037 A 
ATOM      3  C   UNL     1       2.835   5.904 -10.915  0.00  0.00    -0.001 A 
ATOM      4  C   UNL     1       3.950   6.583 -10.434  0.00  0.00    -0.021 A 
ATOM      5  C   UNL     1       4.168   6.433  -9.068  0.00  0.00    -0.001 A 
ATOM      6  C   UNL     1       3.374   5.597  -8.292  0.00  0.00    +0.037 A 
ENDROOT
BRANCH   4   7
ATOM      7  C   UNL     1       5.172   6.737 -11.256  0.00  0.00    +0.047 C 
BRANCH   7   8
ATOM      8  C   UNL     1       6.021   5.388 -11.156  0.00  0.00    +0.139 C 
ATOM      9  C   UNL     1       6.353   5.327 -12.688  0.00  0.00    +0.259 C 
ATOM     10  O   UNL     1       5.466   4.779 -13.414  0.00  0.00    -0.272 OA
ATOM     11  N   UNL     1       7.710   4.874 -12.776  0.00  0.00    -0.135 NA
ATOM     12  C   UNL     1       8.485   5.975 -12.283  0.00  0.00    +0.299 C 
ATOM     13  O   UNL     1       9.746   5.983 -12.422  0.00  0.00    -0.261 OA
ATOM     14  S   UNL     1       7.647   6.310 -10.725  0.00  0.00    -0.046 S 
ENDBRANCH   7   8
ENDBRANCH   4   7
BRANCH   1  15
ATOM     15  O   UNL     1       1.084   4.952  -7.882  0.00  0.00    -0.475 OA
BRANCH  15  16
ATOM     16  C   UNL     1       0.390   5.903  -7.084  0.00  0.00    +0.212 C 
BRANCH  16  17
ATOM     17  C   UNL     1      -1.063   5.489  -6.870  0.00  0.00    +0.093 C 
BRANCH  17  21
ATOM     18  C   UNL     1      -1.909   6.721  -2.906  0.00  0.00    -0.003 A 
ATOM     19  C   UNL     1      -0.920   5.811  -3.222  0.00  0.00    +0.094 A 
ATOM     20  N   UNL     1      -0.655   5.443  -4.487  0.00  0.00    -0.248 NA
ATOM     21  C   UNL     1      -1.398   5.930  -5.489  0.00  0.00    +0.063 A 
ATOM     22  C   UNL     1      -2.287   6.970  -5.245  0.00  0.00    +0.015 A 
ATOM     23  C   UNL     1      -2.514   7.396  -3.960  0.00  0.00    -0.002 A 
BRANCH  18  25
ATOM     24  C   UNL     1      -1.764   6.143  -0.701  0.00  0.00    +0.005 C 
ATOM     25  C   UNL     1      -2.477   6.853  -1.537  0.00  0.00    +0.028 C 
ENDBRANCH  18  25
ENDBRANCH  17  21
ENDBRANCH  16  17
ENDBRANCH  15  16
ENDBRANCH   1  15
TORSDOF 7
ENDMDL
MODEL 2
REMARK VINA RESULT:      -8.2      5.022      7.892
REMARK  Name = 
REMARK  7 active torsions:
REMARK  status: ('A' for Active; 'I' for Inactive)
REMARK    1  A    between atoms: C_2  and  C_3
REMARK    2  A    between atoms: C_6  and  C_7
REMARK    3  A    between atoms: C_7  and  C_8
REMARK    4  A    between atoms: C_8  and  O_9
REMARK    5  A    between atoms: O_9  and  C_10
REMARK    6  A    between atoms: C_13  and  C_14
REMARK    7  A    between atoms: C_14  and  C_15
REMARK                            x       y       z     vdW  Elec       q    Type
REMARK                         _______ _______ _______ _____ _____    ______ ____
ROOT
ATOM      1  C   UNL     1       3.661   5.509  -5.785  0.00  0.00    +0.139 A 
ATOM      2  C   UNL     1       4.095   4.658  -4.778  0.00  0.00    +0.037 A 
ATOM      3  C   UNL     1       4.239   5.254  -3.530  0.00  0.00    -0.001 A 
ATOM      4  C   UNL     1       4.837   6.510  -3.481  0.00  0.00    -0.021 A 
ATOM      5  C   UNL     1       4.595   7.304  -4.597  0.00  0.00    -0.001 A 
ATOM      6  C   UNL     1       3.752   6.886  -5.619  0.00  0.00    +0.037 A 
ENDROOT
BRANCH   4   7
ATOM      7  C   UNL     1       4.985   7.243  -2.203  0.00  0.00    +0.047 C 
BRANCH   7   8
ATOM      8  C   UNL     1       3.622   7.105  -1.381  0.00  0.00    +0.139 C 
ATOM      9  C   UNL     1       4.314   6.613  -0.061  0.00  0.00    +0.259 C 
ATOM     10  O   UNL     1       4.541   5.364   0.000  0.00  0.00    -0.272 OA
ATOM     11  N   UNL     1       3.607   7.252   1.011  0.00  0.00    -0.135 NA
ATOM     12  C   UNL     1       3.975   8.634   0.904  0.00  0.00    +0.299 C 
ATOM     13  O   UNL     1       3.686   9.445   1.836  0.00  0.00    -0.261 OA
ATOM     14  S   UNL     1       3.633   8.943  -0.835  0.00  0.00    -0.046 S 
ENDBRANCH   7   8
ENDBRANCH   4   7
BRANCH   1  15
ATOM     15  O   UNL     1       3.187   4.983  -6.992  0.00  0.00    -0.475 OA
BRANCH  15  16
ATOM     16  C   UNL     1       1.873   4.438  -7.015  0.00  0.00    +0.212 C 
BRANCH  16  17
ATOM     17  C   UNL     1       0.905   5.359  -7.752  0.00  0.00    +0.093 C 
BRANCH  17  21
ATOM     18  C   UNL     1      -1.954   6.549  -4.862  0.00  0.00    -0.003 A 
ATOM     19  C   UNL     1      -0.654   7.015  -4.878  0.00  0.00    +0.094 A 
ATOM     20  N   UNL     1       0.235   6.638  -5.813  0.00  0.00    -0.248 NA
ATOM     21  C   UNL     1      -0.119   5.742  -6.742  0.00  0.00    +0.063 A 
ATOM     22  C   UNL     1      -1.453   5.374  -6.873  0.00  0.00    +0.015 A 
ATOM     23  C   UNL     1      -2.380   5.809  -5.958  0.00  0.00    -0.002 A 
BRANCH  18  25
ATOM     24  C   UNL     1      -3.127   5.427  -3.256  0.00  0.00    +0.005 C 
ATOM     25  C   UNL     1      -2.826   6.634  -3.659  0.00  0.00    +0.028 C 
ENDBRANCH  18  25
ENDBRANCH  17  21
ENDBRANCH  16  17
ENDBRANCH  15  16
ENDBRANCH   1  15
TORSDOF 7
ENDMDL
MODEL 3
REMARK VINA RESULT:      -8.1      1.490      2.024
REMARK  Name = 
REMARK  7 active torsions:
REMARK  status: ('A' for Active; 'I' for Inactive)
REMARK    1  A    between atoms: C_2  and  C_3
REMARK    2  A    between atoms: C_6  and  C_7
REMARK    3  A    between atoms: C_7  and  C_8
REMARK    4  A    between atoms: C_8  and  O_9
REMARK    5  A    between atoms: O_9  and  C_10
REMARK    6  A    between atoms: C_13  and  C_14
REMARK    7  A    between atoms: C_14  and  C_15
REMARK                            x       y       z     vdW  Elec       q    Type
REMARK                         _______ _______ _______ _____ _____    ______ ____
ROOT
ATOM      1  C   UNL     1       1.381   5.699  -8.412  0.00  0.00    +0.139 A 
ATOM      2  C   UNL     1       2.012   6.923  -8.578  0.00  0.00    +0.037 A 
ATOM      3  C   UNL     1       3.275   6.858  -9.158  0.00  0.00    -0.001 A 
ATOM      4  C   UNL     1       4.134   5.856  -8.718  0.00  0.00    -0.021 A 
ATOM      5  C   UNL     1       3.495   4.682  -8.329  0.00  0.00    -0.001 A 
ATOM      6  C   UNL     1       2.122   4.523  -8.464  0.00  0.00    +0.037 A 
ENDROOT
BRANCH   4   7
ATOM      7  C   UNL     1       5.477   5.677  -9.313  0.00  0.00    +0.047 C 
BRANCH   7   8
ATOM      8  C   UNL     1       5.626   6.691 -10.539  0.00  0.00    +0.139 C 
ATOM      9  C   UNL     1       7.188   6.567 -10.624  0.00  0.00    +0.259 C 
ATOM     10  O   UNL     1       7.837   7.330  -9.843  0.00  0.00    -0.272 OA
ATOM     11  N   UNL     1       7.503   6.562 -12.024  0.00  0.00    -0.135 NA
ATOM     12  C   UNL     1       7.014   5.298 -12.493  0.00  0.00    +0.299 C 
ATOM     13  O   UNL     1       7.321   4.885 -13.652  0.00  0.00    -0.261 OA
ATOM     14  S   UNL     1       5.332   5.325 -11.852  0.00  0.00    -0.046 S 
ENDBRANCH   7   8
ENDBRANCH   4   7
BRANCH   1  15
ATOM     15  O   UNL     1       0.011   5.647  -8.133  0.00  0.00    -0.475 OA
BRANCH  15  16
ATOM     16  C   UNL     1      -0.391   5.438  -6.785  0.00  0.00    +0.212 C 
BRANCH  16  17
ATOM     17  C   UNL     1      -1.899   5.608  -6.625  0.00  0.00    +0.093 C 
BRANCH  17  21
ATOM     18  C   UNL     1      -2.484   6.841  -2.614  0.00  0.00    -0.003 A 
ATOM     19  C   UNL     1      -1.939   7.657  -3.586  0.00  0.00    +0.094 A 
ATOM     20  N   UNL     1      -1.775   7.254  -4.858  0.00  0.00    -0.248 NA
ATOM     21  C   UNL     1      -2.102   6.003  -5.205  0.00  0.00    +0.063 A 
ATOM     22  C   UNL     1      -2.807   5.203  -4.314  0.00  0.00    +0.015 A 
ATOM     23  C   UNL     1      -3.035   5.635  -3.031  0.00  0.00    -0.002 A 
BRANCH  18  25
ATOM     24  C   UNL     1      -1.289   6.445  -0.709  0.00  0.00    +0.005 C 
ATOM     25  C   UNL     1      -2.326   7.104  -1.159  0.00  0.00    +0.028 C 
ENDBRANCH  18  25
ENDBRANCH  17  21
ENDBRANCH  16  17
ENDBRANCH  15  16
ENDBRANCH   1  15
TORSDOF 7
ENDMDL
MODEL 4
REMARK VINA RESULT:      -8.1      2.628      3.456
REMARK  Name = 
REMARK  7 active torsions:
REMARK  status: ('A' for Active; 'I' for Inactive)
REMARK    1  A    between atoms: C_2  and  C_3
REMARK    2  A    between atoms: C_6  and  C_7
REMARK    3  A    between atoms: C_7  and  C_8
REMARK    4  A    between atoms: C_8  and  O_9
REMARK    5  A    between atoms: O_9  and  C_10
REMARK    6  A    between atoms: C_13  and  C_14
REMARK    7  A    between atoms: C_14  and  C_15
REMARK                            x       y       z     vdW  Elec       q    Type
REMARK                         _______ _______ _______ _____ _____    ______ ____
ROOT
ATOM      1  C   UNL     1       1.895   5.227  -9.099  0.00  0.00    +0.139 A 
ATOM      2  C   UNL     1       1.732   6.358  -9.885  0.00  0.00    +0.037 A 
ATOM      3  C   UNL     1       2.770   6.606 -10.778  0.00  0.00    -0.001 A 
ATOM      4  C   UNL     1       4.071   6.448 -10.312  0.00  0.00    -0.021 A 
ATOM      5  C   UNL     1       4.218   5.458  -9.345  0.00  0.00    -0.001 A 
ATOM      6  C   UNL     1       3.154   4.651  -8.963  0.00  0.00    +0.037 A 
ENDROOT
BRANCH   4   7
ATOM      7  C   UNL     1       5.237   6.640 -11.203  0.00  0.00    +0.047 C 
BRANCH   7   8
ATOM      8  C   UNL     1       6.096   5.292 -11.207  0.00  0.00    +0.139 C 
ATOM      9  C   UNL     1       6.404   5.337 -12.745  0.00  0.00    +0.259 C 
ATOM     10  O   UNL     1       5.509   4.833 -13.493  0.00  0.00    -0.272 OA
ATOM     11  N   UNL     1       7.763   4.899 -12.884  0.00  0.00    -0.135 NA
ATOM     12  C   UNL     1       8.539   5.970 -12.328  0.00  0.00    +0.299 C 
ATOM     13  O   UNL     1       9.797   5.995 -12.486  0.00  0.00    -0.261 OA
ATOM     14  S   UNL     1       7.723   6.194 -10.740  0.00  0.00    -0.046 S 
ENDBRANCH   7   8
ENDBRANCH   4   7
BRANCH   1  15
ATOM     15  O   UNL     1       0.808   4.699  -8.394  0.00  0.00    -0.475 OA
BRANCH  15  16
ATOM     16  C   UNL     1       0.407   5.351  -7.194  0.00  0.00    +0.212 C 
BRANCH  16  17
ATOM     17  C   UNL     1       0.906   4.600  -5.964  0.00  0.00    +0.093 C 
BRANCH  17  21
ATOM     18  C   UNL     1       4.489   6.526  -4.780  0.00  0.00    -0.003 A 
ATOM     19  C   UNL     1       4.261   5.175  -4.604  0.00  0.00    +0.094 A 
ATOM     20  N   UNL     1       3.123   4.578  -5.000  0.00  0.00    -0.248 NA
ATOM     21  C   UNL     1       2.144   5.311  -5.544  0.00  0.00    +0.063 A 
ATOM     22  C   UNL     1       2.387   6.633  -5.898  0.00  0.00    +0.015 A 
ATOM     23  C   UNL     1       3.574   7.231  -5.553  0.00  0.00    -0.002 A 
BRANCH  18  25
ATOM     24  C   UNL     1       5.216   7.303  -2.760  0.00  0.00    +0.005 C 
ATOM     25  C   UNL     1       5.533   7.272  -4.028  0.00  0.00    +0.028 C 
ENDBRANCH  18  25
ENDBRANCH  17  21
ENDBRANCH  16  17
ENDBRANCH  15  16
ENDBRANCH   1  15
TORSDOF 7
ENDMDL
MODEL 5
REMARK VINA RESULT:      -8.0      2.570      3.673
REMARK  Name = 
REMARK  7 active torsions:
REMARK  status: ('A' for Active; 'I' for Inactive)
REMARK    1  A    between atoms: C_2  and  C_3
REMARK    2  A    between atoms: C_6  and  C_7
REMARK    3  A    between atoms: C_7  and  C_8
REMARK    4  A    between atoms: C_8  and  O_9
REMARK    5  A    between atoms: O_9  and  C_10
REMARK    6  A    between atoms: C_13  and  C_14
REMARK    7  A    between atoms: C_14  and  C_15
REMARK                            x       y       z     vdW  Elec       q    Type
REMARK                         _______ _______ _______ _____ _____    ______ ____
ROOT
ATOM      1  C   UNL     1       1.645   5.603  -8.500  0.00  0.00    +0.139 A 
ATOM      2  C   UNL     1       2.344   6.793  -8.360  0.00  0.00    +0.037 A 
ATOM      3  C   UNL     1       3.589   6.818  -8.980  0.00  0.00    -0.001 A 
ATOM      4  C   UNL     1       4.396   5.692  -8.849  0.00  0.00    -0.021 A 
ATOM      5  C   UNL     1       3.696   4.492  -8.760  0.00  0.00    -0.001 A 
ATOM      6  C   UNL     1       2.313   4.446  -8.885  0.00  0.00    +0.037 A 
ENDROOT
BRANCH   4   7
ATOM      7  C   UNL     1       5.714   5.606  -9.516  0.00  0.00    +0.047 C 
BRANCH   7   8
ATOM      8  C   UNL     1       5.734   6.646 -10.729  0.00  0.00    +0.139 C 
ATOM      9  C   UNL     1       7.295   6.631 -10.890  0.00  0.00    +0.259 C 
ATOM     10  O   UNL     1       7.928   7.426 -10.127  0.00  0.00    -0.272 OA
ATOM     11  N   UNL     1       7.542   6.668 -12.302  0.00  0.00    -0.135 NA
ATOM     12  C   UNL     1       7.118   5.380 -12.771  0.00  0.00    +0.299 C 
ATOM     13  O   UNL     1       7.397   5.006 -13.950  0.00  0.00    -0.261 OA
ATOM     14  S   UNL     1       5.471   5.282 -12.051  0.00  0.00    -0.046 S 
ENDBRANCH   7   8
ENDBRANCH   4   7
BRANCH   1  15
ATOM     15  O   UNL     1       0.280   5.551  -8.198  0.00  0.00    -0.475 OA
BRANCH  15  16
ATOM     16  C   UNL     1      -0.113   5.718  -6.840  0.00  0.00    +0.212 C 
BRANCH  16  17
ATOM     17  C   UNL     1       0.421   4.586  -5.968  0.00  0.00    +0.093 C 
BRANCH  17  21
ATOM     18  C   UNL     1       3.580   6.306  -3.727  0.00  0.00    -0.003 A 
ATOM     19  C   UNL     1       2.277   6.760  -3.672  0.00  0.00    +0.094 A 
ATOM     20  N   UNL     1       1.284   6.192  -4.379  0.00  0.00    -0.248 NA
ATOM     21  C   UNL     1       1.557   5.177  -5.209  0.00  0.00    +0.063 A 
ATOM     22  C   UNL     1       2.809   4.576  -5.174  0.00  0.00    +0.015 A 
ATOM     23  C   UNL     1       3.810   5.113  -4.404  0.00  0.00    -0.002 A 
BRANCH  18  25
ATOM     24  C   UNL     1       5.285   7.706  -4.316  0.00  0.00    +0.005 C 
ATOM     25  C   UNL     1       4.739   7.124  -3.280  0.00  0.00    +0.028 C 
ENDBRANCH  18  25
ENDBRANCH  17  21
ENDBRANCH  16  17
ENDBRANCH  15  16
ENDBRANCH   1  15
TORSDOF 7
ENDMDL
MODEL 6
REMARK VINA RESULT:      -8.0      3.372     10.482
REMARK  Name = 
REMARK  7 active torsions:
REMARK  status: ('A' for Active; 'I' for Inactive)
REMARK    1  A    between atoms: C_2  and  C_3
REMARK    2  A    between atoms: C_6  and  C_7
REMARK    3  A    between atoms: C_7  and  C_8
REMARK    4  A    between atoms: C_8  and  O_9
REMARK    5  A    between atoms: O_9  and  C_10
REMARK    6  A    between atoms: C_13  and  C_14
REMARK    7  A    between atoms: C_14  and  C_15
REMARK                            x       y       z     vdW  Elec       q    Type
REMARK                         _______ _______ _______ _____ _____    ______ ____
ROOT
ATOM      1  C   UNL     1       3.414   5.856  -7.201  0.00  0.00    +0.139 A 
ATOM      2  C   UNL     1       2.780   7.088  -7.128  0.00  0.00    +0.037 A 
ATOM      3  C   UNL     1       1.535   7.070  -6.507  0.00  0.00    -0.001 A 
ATOM      4  C   UNL     1       0.670   6.028  -6.830  0.00  0.00    -0.021 A 
ATOM      5  C   UNL     1       1.306   4.827  -7.130  0.00  0.00    -0.001 A 
ATOM      6  C   UNL     1       2.684   4.686  -7.022  0.00  0.00    +0.037 A 
ENDROOT
BRANCH   4   7
ATOM      7  C   UNL     1      -0.654   5.898  -6.182  0.00  0.00    +0.047 C 
BRANCH   7   8
ATOM      8  C   UNL     1      -0.688   6.857  -4.905  0.00  0.00    +0.139 C 
ATOM      9  C   UNL     1      -2.251   6.834  -4.764  0.00  0.00    +0.259 C 
ATOM     10  O   UNL     1      -2.873   7.678  -5.483  0.00  0.00    -0.272 OA
ATOM     11  N   UNL     1      -2.516   6.781  -3.356  0.00  0.00    -0.135 NA
ATOM     12  C   UNL     1      -2.099   5.465  -2.966  0.00  0.00    +0.299 C 
ATOM     13  O   UNL     1      -2.393   5.016  -1.817  0.00  0.00    -0.261 OA
ATOM     14  S   UNL     1      -0.443   5.410  -3.670  0.00  0.00    -0.046 S 
ENDBRANCH   7   8
ENDBRANCH   4   7
BRANCH   1  15
ATOM     15  O   UNL     1       4.776   5.786  -7.514  0.00  0.00    -0.475 OA
BRANCH  15  16
ATOM     16  C   UNL     1       5.143   5.330  -8.811  0.00  0.00    +0.212 C 
BRANCH  16  17
ATOM     17  C   UNL     1       6.642   5.484  -9.047  0.00  0.00    +0.093 C 
BRANCH  17  21
ATOM     18  C   UNL     1       6.962   6.370 -13.178  0.00  0.00    -0.003 A 
ATOM     19  C   UNL     1       5.798   6.537 -12.455  0.00  0.00    +0.094 A 
ATOM     20  N   UNL     1       5.719   6.266 -11.140  0.00  0.00    -0.248 NA
ATOM     21  C   UNL     1       6.784   5.768 -10.501  0.00  0.00    +0.063 A 
ATOM     22  C   UNL     1       8.020   5.741 -11.137  0.00  0.00    +0.015 A 
ATOM     23  C   UNL     1       8.119   6.080 -12.463  0.00  0.00    -0.002 A 
BRANCH  18  25
ATOM     24  C   UNL     1       6.470   7.379 -15.166  0.00  0.00    +0.005 C 
ATOM     25  C   UNL     1       6.985   6.288 -14.663  0.00  0.00    +0.028 C 
ENDBRANCH  18  25
ENDBRANCH  17  21
ENDBRANCH  16  17
ENDBRANCH  15  16
ENDBRANCH   1  15
TORSDOF 7
ENDMDL
MODEL 7
REMARK VINA RESULT:      -8.0      3.482     10.291
REMARK  Name = 
REMARK  7 active torsions:
REMARK  status: ('A' for Active; 'I' for Inactive)
REMARK    1  A    between atoms: C_2  and  C_3
REMARK    2  A    between atoms: C_6  and  C_7
REMARK    3  A    between atoms: C_7  and  C_8
REMARK    4  A    between atoms: C_8  and  O_9
REMARK    5  A    between atoms: O_9  and  C_10
REMARK    6  A    between atoms: C_13  and  C_14
REMARK    7  A    between atoms: C_14  and  C_15
REMARK                            x       y       z     vdW  Elec       q    Type
REMARK                         _______ _______ _______ _____ _____    ______ ____
ROOT
ATOM      1  C   UNL     1       1.637   4.835  -8.215  0.00  0.00    +0.139 A 
ATOM      2  C   UNL     1       0.490   5.121  -8.941  0.00  0.00    +0.037 A 
ATOM      3  C   UNL     1      -0.543   5.691  -8.205  0.00  0.00    -0.001 A 
ATOM      4  C   UNL     1      -0.811   5.154  -6.950  0.00  0.00    -0.021 A 
ATOM      5  C   UNL     1       0.307   4.651  -6.290  0.00  0.00    -0.001 A 
ATOM      6  C   UNL     1       1.583   4.770  -6.827  0.00  0.00    +0.037 A 
ENDROOT
BRANCH   4   7
ATOM      7  C   UNL     1      -1.856   5.728  -6.073  0.00  0.00    +0.047 C 
BRANCH   7   8
ATOM      8  C   UNL     1      -1.244   5.911  -4.609  0.00  0.00    +0.139 C 
ATOM      9  C   UNL     1      -1.761   7.382  -4.432  0.00  0.00    +0.259 C 
ATOM     10  O   UNL     1      -1.009   8.284  -4.918  0.00  0.00    -0.272 OA
ATOM     11  N   UNL     1      -2.187   7.484  -3.067  0.00  0.00    -0.135 NA
ATOM     12  C   UNL     1      -3.370   6.675  -3.003  0.00  0.00    +0.299 C 
ATOM     13  O   UNL     1      -4.118   6.718  -1.980  0.00  0.00    -0.261 OA
ATOM     14  S   UNL     1      -2.778   5.148  -3.748  0.00  0.00    -0.046 S 
ENDBRANCH   7   8
ENDBRANCH   4   7
BRANCH   1  15
ATOM     15  O   UNL     1       2.836   4.553  -8.879  0.00  0.00    -0.475 OA
BRANCH  15  16
ATOM     16  C   UNL     1       3.946   5.414  -8.652  0.00  0.00    +0.212 C 
BRANCH  16  17
ATOM     17  C   UNL     1       3.841   6.683  -9.493  0.00  0.00    +0.093 C 
BRANCH  17  21
ATOM     18  C   UNL     1       6.887   6.302 -12.414  0.00  0.00    -0.003 A 
ATOM     19  C   UNL     1       6.021   5.278 -12.084  0.00  0.00    +0.094 A 
ATOM     20  N   UNL     1       5.050   5.422 -11.165  0.00  0.00    -0.248 NA
ATOM     21  C   UNL     1       4.932   6.578 -10.500  0.00  0.00    +0.063 A 
ATOM     22  C   UNL     1       5.661   7.687 -10.911  0.00  0.00    +0.015 A 
ATOM     23  C   UNL     1       6.610   7.562 -11.895  0.00  0.00    -0.002 A 
BRANCH  18  25
ATOM     24  C   UNL     1       9.120   5.863 -12.233  0.00  0.00    +0.005 C 
ATOM     25  C   UNL     1       8.178   6.072 -13.116  0.00  0.00    +0.028 C 
ENDBRANCH  18  25
ENDBRANCH  17  21
ENDBRANCH  16  17
ENDBRANCH  15  16
ENDBRANCH   1  15
TORSDOF 7
ENDMDL
MODEL 8
REMARK VINA RESULT:      -7.9      5.007     10.048
REMARK  Name = 
REMARK  7 active torsions:
REMARK  status: ('A' for Active; 'I' for Inactive)
REMARK    1  A    between atoms: C_2  and  C_3
REMARK    2  A    between atoms: C_6  and  C_7
REMARK    3  A    between atoms: C_7  and  C_8
REMARK    4  A    between atoms: C_8  and  O_9
REMARK    5  A    between atoms: O_9  and  C_10
REMARK    6  A    between atoms: C_13  and  C_14
REMARK    7  A    between atoms: C_14  and  C_15
REMARK                            x       y       z     vdW  Elec       q    Type
REMARK                         _______ _______ _______ _____ _____    ______ ____
ROOT
ATOM      1  C   UNL     1       3.074   5.484  -5.729  0.00  0.00    +0.139 A 
ATOM      2  C   UNL     1       4.388   5.161  -5.420  0.00  0.00    +0.037 A 
ATOM      3  C   UNL     1       4.798   5.533  -4.143  0.00  0.00    -0.001 A 
ATOM      4  C   UNL     1       4.424   6.794  -3.689  0.00  0.00    -0.021 A 
ATOM      5  C   UNL     1       3.197   7.237  -4.173  0.00  0.00    -0.001 A 
ATOM      6  C   UNL     1       2.394   6.431  -4.969  0.00  0.00    +0.037 A 
ENDROOT
BRANCH   4   7
ATOM      7  C   UNL     1       4.771   7.255  -2.326  0.00  0.00    +0.047 C 
BRANCH   7   8
ATOM      8  C   UNL     1       3.488   7.075  -1.391  0.00  0.00    +0.139 C 
ATOM      9  C   UNL     1       4.270   6.370  -0.228  0.00  0.00    +0.259 C 
ATOM     10  O   UNL     1       4.419   5.115  -0.357  0.00  0.00    -0.272 OA
ATOM     11  N   UNL     1       3.714   6.889   0.988  0.00  0.00    -0.135 NA
ATOM     12  C   UNL     1       4.159   8.252   1.028  0.00  0.00    +0.299 C 
ATOM     13  O   UNL     1       4.017   8.940   2.084  0.00  0.00    -0.261 OA
ATOM     14  S   UNL     1       3.672   8.817  -0.610  0.00  0.00    -0.046 S 
ENDBRANCH   7   8
ENDBRANCH   4   7
BRANCH   1  15
ATOM     15  O   UNL     1       2.451   4.905  -6.839  0.00  0.00    -0.475 OA
BRANCH  15  16
ATOM     16  C   UNL     1       3.238   4.667  -8.000  0.00  0.00    +0.212 C 
BRANCH  16  17
ATOM     17  C   UNL     1       3.131   5.826  -8.987  0.00  0.00    +0.093 C 
BRANCH  17  21
ATOM     18  C   UNL     1       7.010   6.439 -10.576  0.00  0.00    -0.003 A 
ATOM     19  C   UNL     1       5.893   7.120 -11.020  0.00  0.00    +0.094 A 
ATOM     20  N   UNL     1       4.672   6.923 -10.493  0.00  0.00    -0.248 NA
ATOM     21  C   UNL     1       4.504   6.004  -9.534  0.00  0.00    +0.063 A 
ATOM     22  C   UNL     1       5.614   5.418  -8.937  0.00  0.00    +0.015 A 
ATOM     23  C   UNL     1       6.871   5.666  -9.429  0.00  0.00    -0.002 A 
BRANCH  18  25
ATOM     24  C   UNL     1       8.051   5.614 -12.433  0.00  0.00    +0.005 C 
ATOM     25  C   UNL     1       8.265   6.344 -11.369  0.00  0.00    +0.028 C 
ENDBRANCH  18  25
ENDBRANCH  17  21
ENDBRANCH  16  17
ENDBRANCH  15  16
ENDBRANCH   1  15
TORSDOF 7
ENDMDL
MODEL 9
REMARK VINA RESULT:      -7.9      4.310      8.692
REMARK  Name = 
REMARK  7 active torsions:
REMARK  status: ('A' for Active; 'I' for Inactive)
REMARK    1  A    between atoms: C_2  and  C_3
REMARK    2  A    between atoms: C_6  and  C_7
REMARK    3  A    between atoms: C_7  and  C_8
REMARK    4  A    between atoms: C_8  and  O_9
REMARK    5  A    between atoms: O_9  and  C_10
REMARK    6  A    between atoms: C_13  and  C_14
REMARK    7  A    between atoms: C_14  and  C_15
REMARK                            x       y       z     vdW  Elec       q    Type
REMARK                         _______ _______ _______ _____ _____    ______ ____
ROOT
ATOM      1  C   UNL     1       0.871   6.274  -7.599  0.00  0.00    +0.139 A 
ATOM      2  C   UNL     1       0.608   5.317  -6.630  0.00  0.00    +0.037 A 
ATOM      3  C   UNL     1       0.969   5.679  -5.336  0.00  0.00    -0.001 A 
ATOM      4  C   UNL     1       2.198   6.308  -5.163  0.00  0.00    -0.021 A 
ATOM      5  C   UNL     1       2.590   7.105  -6.234  0.00  0.00    -0.001 A 
ATOM      6  C   UNL     1       1.763   7.307  -7.332  0.00  0.00    +0.037 A 
ENDROOT
BRANCH   4   7
ATOM      7  C   UNL     1       2.644   6.775  -3.831  0.00  0.00    +0.047 C 
BRANCH   7   8
ATOM      8  C   UNL     1       2.487   5.569  -2.795  0.00  0.00    +0.139 C 
ATOM      9  C   UNL     1       4.029   5.324  -2.644  0.00  0.00    +0.259 C 
ATOM     10  O   UNL     1       4.548   4.570  -3.525  0.00  0.00    -0.272 OA
ATOM     11  N   UNL     1       4.244   5.031  -1.256  0.00  0.00    -0.135 NA
ATOM     12  C   UNL     1       4.010   6.280  -0.590  0.00  0.00    +0.299 C 
ATOM     13  O   UNL     1       4.322   6.421   0.631  0.00  0.00    -0.261 OA
ATOM     14  S   UNL     1       2.409   6.736  -1.275  0.00  0.00    -0.046 S 
ENDBRANCH   7   8
ENDBRANCH   4   7
BRANCH   1  15
ATOM     15  O   UNL     1       0.288   6.169  -8.867  0.00  0.00    -0.475 OA
BRANCH  15  16
ATOM     16  C   UNL     1       1.148   6.113  -9.998  0.00  0.00    +0.212 C 
BRANCH  16  17
ATOM     17  C   UNL     1       1.873   4.773 -10.075  0.00  0.00    +0.093 C 
BRANCH  17  21
ATOM     18  C   UNL     1       5.951   5.778  -9.515  0.00  0.00    -0.003 A 
ATOM     19  C   UNL     1       5.177   6.290 -10.538  0.00  0.00    +0.094 A 
ATOM     20  N   UNL     1       3.880   5.972 -10.691  0.00  0.00    -0.248 NA
ATOM     21  C   UNL     1       3.311   5.091  -9.860  0.00  0.00    +0.063 A 
ATOM     22  C   UNL     1       3.992   4.679  -8.720  0.00  0.00    +0.015 A 
ATOM     23  C   UNL     1       5.297   5.054  -8.524  0.00  0.00    -0.002 A 
BRANCH  18  25
ATOM     24  C   UNL     1       7.846   6.826 -10.237  0.00  0.00    +0.005 C 
ATOM     25  C   UNL     1       7.438   5.798  -9.540  0.00  0.00    +0.028 C 
ENDBRANCH  18  25
ENDBRANCH  17  21
ENDBRANCH  16  17
ENDBRANCH  15  16
ENDBRANCH   1  15
TORSDOF 7
ENDMDL
