MODEL 1
REMARK VINA RESULT:      -8.6      0.000      0.000
REMARK  Name = 
REMARK  0 active torsions:
REMARK  status: ('A' for Active; 'I' for Inactive)
REMARK                            x       y       z     vdW  Elec       q    Type
REMARK                         _______ _______ _______ _____ _____    ______ ____
ROOT
ATOM      1  C   UNL     1       4.061   5.655  -6.021  0.00  0.00    +0.090 C 
ATOM      2  N   UNL     1       3.589   6.743  -6.356  0.00  0.00    -0.271 NA
ATOM      3  C   UNL     1       2.323   6.847  -5.632  0.00  0.00    +0.077 C 
ATOM      4  C   UNL     1       1.596   5.757  -6.598  0.00  0.00    +0.047 C 
ATOM      5  C   UNL     1       1.714   6.921  -7.836  0.00  0.00    +0.047 C 
ATOM      6  C   UNL     1       1.483   5.849  -9.002  0.00  0.00    +0.014 A 
ATOM      7  C   UNL     1       0.248   5.220  -9.153  0.00  0.00    +0.141 A 
ATOM      8  O   UNL     1      -0.845   5.110  -8.279  0.00  0.00    -0.454 OA
ATOM      9  C   UNL     1      -0.859   5.389  -6.909  0.00  0.00    +0.141 A 
ATOM     10  C   UNL     1      -2.129   5.435  -6.354  0.00  0.00    +0.038 A 
ATOM     11  C   UNL     1      -2.273   6.135  -5.157  0.00  0.00    +0.015 A 
ATOM     12  C   UNL     1      -1.382   7.149  -4.803  0.00  0.00    +0.058 A 
ATOM     13  C   UNL     1      -0.061   6.899  -5.177  0.00  0.00    +0.010 A 
ATOM     14 CL   UNL     1      -1.955   8.779  -4.426  0.00  0.00    -0.082 Cl
ATOM     15  C   UNL     1      -0.121   4.843 -10.438  0.00  0.00    +0.037 A 
ATOM     16  C   UNL     1       0.354   5.543 -11.540  0.00  0.00    +0.003 A 
ATOM     17  C   UNL     1       1.221   6.606 -11.319  0.00  0.00    -0.000 A 
ATOM     18  C   UNL     1       1.916   6.561 -10.117  0.00  0.00    -0.001 A 
ATOM     19  C   UNL     1       0.100   6.187  -6.294  0.00  0.00    +0.015 A 
ATOM     20  C   UNL     1       3.322   6.726  -7.765  0.00  0.00    +0.077 C 
ENDROOT
TORSDOF 0
ENDMDL
MODEL 2
REMARK VINA RESULT:      -8.4      1.226      1.598
REMARK  Name = 
REMARK  0 active torsions:
REMARK  status: ('A' for Active; 'I' for Inactive)
REMARK                            x       y       z     vdW  Elec       q    Type
REMARK                         _______ _______ _______ _____ _____    ______ ____
ROOT
ATOM      1  C   UNL     1       3.900   4.993  -3.998  0.00  0.00    +0.090 C 
ATOM      2  N   UNL     1       3.689   6.150  -4.365  0.00  0.00    -0.271 NA
ATOM      3  C   UNL     1       2.255   6.357  -4.161  0.00  0.00    +0.077 C 
ATOM      4  C   UNL     1       1.864   5.430  -5.441  0.00  0.00    +0.047 C 
ATOM      5  C   UNL     1       2.547   6.652  -6.411  0.00  0.00    +0.047 C 
ATOM      6  C   UNL     1       2.690   5.697  -7.687  0.00  0.00    +0.014 A 
ATOM      7  C   UNL     1       1.558   5.233  -8.356  0.00  0.00    +0.141 A 
ATOM      8  O   UNL     1       0.208   5.197  -7.972  0.00  0.00    -0.454 OA
ATOM      9  C   UNL     1      -0.306   5.384  -6.686  0.00  0.00    +0.141 A 
ATOM     10  C   UNL     1      -1.683   5.545  -6.645  0.00  0.00    +0.038 A 
ATOM     11  C   UNL     1      -2.214   6.174  -5.520  0.00  0.00    +0.015 A 
ATOM     12  C   UNL     1      -1.444   7.047  -4.751  0.00  0.00    +0.058 A 
ATOM     13  C   UNL     1      -0.107   6.666  -4.628  0.00  0.00    +0.010 A 
ATOM     14 CL   UNL     1      -1.975   8.706  -4.442  0.00  0.00    -0.082 Cl
ATOM     15  C   UNL     1       1.679   4.991  -9.719  0.00  0.00    +0.037 A 
ATOM     16  C   UNL     1       2.599   5.702 -10.480  0.00  0.00    +0.003 A 
ATOM     17  C   UNL     1       3.403   6.635  -9.837  0.00  0.00    -0.000 A 
ATOM     18  C   UNL     1       3.577   6.425  -8.476  0.00  0.00    -0.001 A 
ATOM     19  C   UNL     1       0.409   6.017  -5.673  0.00  0.00    +0.015 A 
ATOM     20  C   UNL     1       3.982   6.260  -5.765  0.00  0.00    +0.077 C 
ENDROOT
TORSDOF 0
ENDMDL
MODEL 3
REMARK VINA RESULT:      -8.4      3.705      6.614
REMARK  Name = 
REMARK  0 active torsions:
REMARK  status: ('A' for Active; 'I' for Inactive)
REMARK                            x       y       z     vdW  Elec       q    Type
REMARK                         _______ _______ _______ _____ _____    ______ ____
ROOT
ATOM      1  C   UNL     1       0.787   4.816 -10.477  0.00  0.00    +0.090 C 
ATOM      2  N   UNL     1       1.054   5.999 -10.260  0.00  0.00    -0.271 NA
ATOM      3  C   UNL     1       2.405   6.187 -10.786  0.00  0.00    +0.077 C 
ATOM      4  C   UNL     1       3.079   5.369  -9.550  0.00  0.00    +0.047 C 
ATOM      5  C   UNL     1       2.601   6.668  -8.558  0.00  0.00    +0.047 C 
ATOM      6  C   UNL     1       2.752   5.822  -7.207  0.00  0.00    +0.014 A 
ATOM      7  C   UNL     1       4.010   5.413  -6.764  0.00  0.00    +0.141 A 
ATOM      8  O   UNL     1       5.245   5.344  -7.427  0.00  0.00    -0.454 OA
ATOM      9  C   UNL     1       5.466   5.422  -8.805  0.00  0.00    +0.141 A 
ATOM     10  C   UNL     1       6.799   5.578  -9.156  0.00  0.00    +0.038 A 
ATOM     11  C   UNL     1       7.065   6.111 -10.416  0.00  0.00    +0.015 A 
ATOM     12  C   UNL     1       6.133   6.919 -11.068  0.00  0.00    +0.058 A 
ATOM     13  C   UNL     1       4.808   6.530 -10.867  0.00  0.00    +0.010 A 
ATOM     14 CL   UNL     1       6.557   8.545 -11.618  0.00  0.00    -0.082 Cl
ATOM     15  C   UNL     1       4.190   5.284  -5.392  0.00  0.00    +0.037 A 
ATOM     16  C   UNL     1       3.444   6.057  -4.510  0.00  0.00    +0.003 A 
ATOM     17  C   UNL     1       2.505   6.935  -5.037  0.00  0.00    -0.000 A 
ATOM     18  C   UNL     1       2.045   6.614  -6.307  0.00  0.00    -0.001 A 
ATOM     19  C   UNL     1       4.540   5.970  -9.686  0.00  0.00    +0.015 A 
ATOM     20  C   UNL     1       1.067   6.226  -8.843  0.00  0.00    +0.077 C 
ENDROOT
TORSDOF 0
ENDMDL
MODEL 4
REMARK VINA RESULT:      -8.1      2.581      5.305
REMARK  Name = 
REMARK  0 active torsions:
REMARK  status: ('A' for Active; 'I' for Inactive)
REMARK                            x       y       z     vdW  Elec       q    Type
REMARK                         _______ _______ _______ _____ _____    ______ ____
ROOT
ATOM      1  C   UNL     1      -1.722   5.379  -4.209  0.00  0.00    +0.090 C 
ATOM      2  N   UNL     1      -1.324   6.419  -4.736  0.00  0.00    -0.271 NA
ATOM      3  C   UNL     1      -1.156   6.088  -6.151  0.00  0.00    +0.077 C 
ATOM      4  C   UNL     1       0.190   5.219  -5.863  0.00  0.00    +0.047 C 
ATOM      5  C   UNL     1       0.940   6.696  -5.466  0.00  0.00    +0.047 C 
ATOM      6  C   UNL     1       2.146   5.988  -4.687  0.00  0.00    +0.014 A 
ATOM      7  C   UNL     1       3.088   5.227  -5.380  0.00  0.00    +0.141 A 
ATOM      8  O   UNL     1       3.064   4.681  -6.672  0.00  0.00    -0.454 OA
ATOM      9  C   UNL     1       1.950   4.541  -7.506  0.00  0.00    +0.141 A 
ATOM     10  C   UNL     1       2.262   4.204  -8.815  0.00  0.00    +0.038 A 
ATOM     11  C   UNL     1       1.306   4.488  -9.788  0.00  0.00    +0.015 A 
ATOM     12  C   UNL     1       0.357   5.492  -9.595  0.00  0.00    +0.058 A 
ATOM     13  C   UNL     1      -0.101   5.594  -8.281  0.00  0.00    +0.010 A 
ATOM     14 CL   UNL     1       0.178   6.817 -10.752  0.00  0.00    -0.082 Cl
ATOM     15  C   UNL     1       4.376   5.184  -4.862  0.00  0.00    +0.037 A 
ATOM     16  C   UNL     1       4.869   6.247  -4.114  0.00  0.00    +0.003 A 
ATOM     17  C   UNL     1       4.033   7.332  -3.883  0.00  0.00    -0.000 A 
ATOM     18  C   UNL     1       2.674   7.058  -3.970  0.00  0.00    -0.001 A 
ATOM     19  C   UNL     1       0.783   5.278  -7.333  0.00  0.00    +0.015 A 
ATOM     20  C   UNL     1      -0.048   6.769  -4.183  0.00  0.00    +0.077 C 
ENDROOT
TORSDOF 0
ENDMDL
MODEL 5
REMARK VINA RESULT:      -8.0      2.811      4.085
REMARK  Name = 
REMARK  0 active torsions:
REMARK  status: ('A' for Active; 'I' for Inactive)
REMARK                            x       y       z     vdW  Elec       q    Type
REMARK                         _______ _______ _______ _____ _____    ______ ____
ROOT
ATOM      1  C   UNL     1       1.215   4.768  -1.115  0.00  0.00    +0.090 C 
ATOM      2  N   UNL     1       1.218   5.931  -1.525  0.00  0.00    -0.271 NA
ATOM      3  C   UNL     1       0.002   6.054  -2.327  0.00  0.00    +0.077 C 
ATOM      4  C   UNL     1       0.628   5.176  -3.546  0.00  0.00    +0.047 C 
ATOM      5  C   UNL     1       1.693   6.479  -3.808  0.00  0.00    +0.047 C 
ATOM      6  C   UNL     1       2.717   5.600  -4.668  0.00  0.00    +0.014 A 
ATOM      7  C   UNL     1       2.353   5.114  -5.924  0.00  0.00    +0.141 A 
ATOM      8  O   UNL     1       1.096   4.990  -6.537  0.00  0.00    -0.454 OA
ATOM      9  C   UNL     1      -0.154   5.083  -5.920  0.00  0.00    +0.141 A 
ATOM     10  C   UNL     1      -1.217   5.172  -6.807  0.00  0.00    +0.038 A 
ATOM     11  C   UNL     1      -2.405   5.715  -6.320  0.00  0.00    +0.015 A 
ATOM     12  C   UNL     1      -2.407   6.585  -5.230  0.00  0.00    +0.058 A 
ATOM     13  C   UNL     1      -1.467   6.267  -4.249  0.00  0.00    +0.010 A 
ATOM     14 CL   UNL     1      -3.126   8.196  -5.346  0.00  0.00    -0.082 Cl
ATOM     15  C   UNL     1       3.366   4.949  -6.860  0.00  0.00    +0.037 A 
ATOM     16  C   UNL     1       4.505   5.744  -6.811  0.00  0.00    +0.003 A 
ATOM     17  C   UNL     1       4.608   6.682  -5.792  0.00  0.00    -0.000 A 
ATOM     18  C   UNL     1       3.847   6.412  -4.661  0.00  0.00    -0.001 A 
ATOM     19  C   UNL     1      -0.342   5.699  -4.687  0.00  0.00    +0.015 A 
ATOM     20  C   UNL     1       2.359   6.128  -2.372  0.00  0.00    +0.077 C 
ENDROOT
TORSDOF 0
ENDMDL
MODEL 6
REMARK VINA RESULT:      -7.9      4.246      6.586
REMARK  Name = 
REMARK  0 active torsions:
REMARK  status: ('A' for Active; 'I' for Inactive)
REMARK                            x       y       z     vdW  Elec       q    Type
REMARK                         _______ _______ _______ _____ _____    ______ ____
ROOT
ATOM      1  C   UNL     1       2.762   4.406  -8.168  0.00  0.00    +0.090 C 
ATOM      2  N   UNL     1       2.878   5.612  -8.393  0.00  0.00    -0.271 NA
ATOM      3  C   UNL     1       2.141   5.839  -9.636  0.00  0.00    +0.077 C 
ATOM      4  C   UNL     1       3.295   5.128 -10.537  0.00  0.00    +0.047 C 
ATOM      5  C   UNL     1       4.286   6.455 -10.138  0.00  0.00    +0.047 C 
ATOM      6  C   UNL     1       5.636   5.695 -10.543  0.00  0.00    +0.014 A 
ATOM      7  C   UNL     1       5.899   5.378 -11.876  0.00  0.00    +0.141 A 
ATOM      8  O   UNL     1       5.056   5.335 -12.998  0.00  0.00    -0.454 OA
ATOM      9  C   UNL     1       3.658   5.347 -13.002  0.00  0.00    +0.141 A 
ATOM     10  C   UNL     1       3.098   5.551 -14.255  0.00  0.00    +0.038 A 
ATOM     11  C   UNL     1       1.788   6.026 -14.293  0.00  0.00    +0.015 A 
ATOM     12  C   UNL     1       1.250   6.746 -13.226  0.00  0.00    +0.058 A 
ATOM     13  C   UNL     1       1.672   6.301 -11.973  0.00  0.00    +0.010 A 
ATOM     14 CL   UNL     1       0.564   8.358 -13.464  0.00  0.00    -0.082 Cl
ATOM     15  C   UNL     1       7.230   5.337 -12.269  0.00  0.00    +0.037 A 
ATOM     16  C   UNL     1       8.179   6.119 -11.621  0.00  0.00    +0.003 A 
ATOM     17  C   UNL     1       7.762   6.916 -10.563  0.00  0.00    -0.000 A 
ATOM     18  C   UNL     1       6.595   6.500  -9.934  0.00  0.00    -0.001 A 
ATOM     19  C   UNL     1       2.906   5.796 -11.922  0.00  0.00    +0.015 A 
ATOM     20  C   UNL     1       4.263   5.918  -8.608  0.00  0.00    +0.077 C 
ENDROOT
TORSDOF 0
ENDMDL
MODEL 7
REMARK VINA RESULT:      -7.8      3.047      5.430
REMARK  Name = 
REMARK  0 active torsions:
REMARK  status: ('A' for Active; 'I' for Inactive)
REMARK                            x       y       z     vdW  Elec       q    Type
REMARK                         _______ _______ _______ _____ _____    ______ ____
ROOT
ATOM      1  C   UNL     1       4.469   6.661  -2.491  0.00  0.00    +0.090 C 
ATOM      2  N   UNL     1       4.064   5.587  -2.941  0.00  0.00    -0.271 NA
ATOM      3  C   UNL     1       4.320   5.657  -4.380  0.00  0.00    +0.077 C 
ATOM      4  C   UNL     1       3.097   6.704  -4.621  0.00  0.00    +0.047 C 
ATOM      5  C   UNL     1       2.050   5.420  -4.227  0.00  0.00    +0.047 C 
ATOM      6  C   UNL     1       0.809   6.389  -3.939  0.00  0.00    +0.014 A 
ATOM      7  C   UNL     1       0.207   7.099  -4.977  0.00  0.00    +0.141 A 
ATOM      8  O   UNL     1       0.649   7.382  -6.279  0.00  0.00    -0.454 OA
ATOM      9  C   UNL     1       1.947   7.239  -6.777  0.00  0.00    +0.141 A 
ATOM     10  C   UNL     1       2.040   7.351  -8.157  0.00  0.00    +0.038 A 
ATOM     11  C   UNL     1       3.159   6.785  -8.765  0.00  0.00    +0.015 A 
ATOM     12  C   UNL     1       3.858   5.740  -8.159  0.00  0.00    +0.058 A 
ATOM     13  C   UNL     1       3.940   5.844  -6.770  0.00  0.00    +0.010 A 
ATOM     14 CL   UNL     1       4.121   4.207  -8.999  0.00  0.00    -0.082 Cl
ATOM     15  C   UNL     1      -1.148   7.378  -4.856  0.00  0.00    +0.037 A 
ATOM     16  C   UNL     1      -1.976   6.538  -4.121  0.00  0.00    +0.003 A 
ATOM     17  C   UNL     1      -1.406   5.434  -3.499  0.00  0.00    -0.000 A 
ATOM     18  C   UNL     1      -0.046   5.539  -3.241  0.00  0.00    -0.001 A 
ATOM     19  C   UNL     1       2.902   6.429  -6.170  0.00  0.00    +0.015 A 
ATOM     20  C   UNL     1       2.650   5.489  -2.722  0.00  0.00    +0.077 C 
ENDROOT
TORSDOF 0
ENDMDL
MODEL 8
REMARK VINA RESULT:      -7.7      3.268      5.531
REMARK  Name = 
REMARK  0 active torsions:
REMARK  status: ('A' for Active; 'I' for Inactive)
REMARK                            x       y       z     vdW  Elec       q    Type
REMARK                         _______ _______ _______ _____ _____    ______ ____
ROOT
ATOM      1  C   UNL     1       1.827   4.531  -7.307  0.00  0.00    +0.090 C 
ATOM      2  N   UNL     1       1.868   5.704  -6.929  0.00  0.00    -0.271 NA
ATOM      3  C   UNL     1       2.677   5.682  -5.711  0.00  0.00    +0.077 C 
ATOM      4  C   UNL     1       1.482   5.000  -4.841  0.00  0.00    +0.047 C 
ATOM      5  C   UNL     1       0.645   6.473  -5.018  0.00  0.00    +0.047 C 
ATOM      6  C   UNL     1      -0.769   5.830  -4.634  0.00  0.00    +0.014 A 
ATOM      7  C   UNL     1      -1.015   5.377  -3.338  0.00  0.00    +0.141 A 
ATOM      8  O   UNL     1      -0.139   5.092  -2.279  0.00  0.00    -0.454 OA
ATOM      9  C   UNL     1       1.249   4.941  -2.351  0.00  0.00    +0.141 A 
ATOM     10  C   UNL     1       1.880   4.916  -1.116  0.00  0.00    +0.038 A 
ATOM     11  C   UNL     1       3.239   5.226  -1.093  0.00  0.00    +0.015 A 
ATOM     12  C   UNL     1       3.817   6.010  -2.091  0.00  0.00    +0.058 A 
ATOM     13  C   UNL     1       3.294   5.782  -3.364  0.00  0.00    +0.010 A 
ATOM     14 CL   UNL     1       4.705   7.487  -1.696  0.00  0.00    -0.082 Cl
ATOM     15  C   UNL     1      -2.324   5.440  -2.879  0.00  0.00    +0.037 A 
ATOM     16  C   UNL     1      -3.196   6.404  -3.372  0.00  0.00    +0.003 A 
ATOM     17  C   UNL     1      -2.728   7.276  -4.347  0.00  0.00    -0.000 A 
ATOM     18  C   UNL     1      -1.647   6.812  -5.085  0.00  0.00    -0.001 A 
ATOM     19  C   UNL     1       2.006   5.434  -3.408  0.00  0.00    +0.015 A 
ATOM     20  C   UNL     1       0.541   6.139  -6.601  0.00  0.00    +0.077 C 
ENDROOT
TORSDOF 0
ENDMDL
MODEL 9
REMARK VINA RESULT:      -7.7      3.275      4.104
REMARK  Name = 
REMARK  0 active torsions:
REMARK  status: ('A' for Active; 'I' for Inactive)
REMARK                            x       y       z     vdW  Elec       q    Type
REMARK                         _______ _______ _______ _____ _____    ______ ____
ROOT
ATOM      1  C   UNL     1       6.313   5.330 -11.251  0.00  0.00    +0.090 C 
ATOM      2  N   UNL     1       5.823   6.372 -10.813  0.00  0.00    -0.271 NA
ATOM      3  C   UNL     1       5.697   6.155  -9.372  0.00  0.00    +0.077 C 
ATOM      4  C   UNL     1       4.437   5.142  -9.559  0.00  0.00    +0.047 C 
ATOM      5  C   UNL     1       3.547   6.500 -10.074  0.00  0.00    +0.047 C 
ATOM      6  C   UNL     1       2.408   5.615 -10.767  0.00  0.00    +0.014 A 
ATOM      7  C   UNL     1       1.548   4.835  -9.995  0.00  0.00    +0.141 A 
ATOM      8  O   UNL     1       1.634   4.412  -8.659  0.00  0.00    -0.454 OA
ATOM      9  C   UNL     1       2.761   4.453  -7.834  0.00  0.00    +0.141 A 
ATOM     10  C   UNL     1       2.492   4.207  -6.496  0.00  0.00    +0.038 A 
ATOM     11  C   UNL     1       3.425   4.666  -5.567  0.00  0.00    +0.015 A 
ATOM     12  C   UNL     1       4.273   5.733  -5.864  0.00  0.00    +0.058 A 
ATOM     13  C   UNL     1       4.710   5.759  -7.189  0.00  0.00    +0.010 A 
ATOM     14 CL   UNL     1       4.334   7.168  -4.833  0.00  0.00    -0.082 Cl
ATOM     15  C   UNL     1       0.266   4.625 -10.486  0.00  0.00    +0.037 A 
ATOM     16  C   UNL     1      -0.331   5.565 -11.318  0.00  0.00    +0.003 A 
ATOM     17  C   UNL     1       0.397   6.698 -11.658  0.00  0.00    -0.000 A 
ATOM     18  C   UNL     1       1.776   6.562 -11.569  0.00  0.00    -0.001 A 
ATOM     19  C   UNL     1       3.853   5.277  -8.091  0.00  0.00    +0.015 A 
ATOM     20  C   UNL     1       4.515   6.549 -11.375  0.00  0.00    +0.077 C 
ENDROOT
TORSDOF 0
ENDMDL
