MODEL 1
REMARK VINA RESULT:      -7.2      0.000      0.000
REMARK  Name = 
REMARK  3 active torsions:
REMARK  status: ('A' for Active; 'I' for Inactive)
REMARK    1  A    between atoms: C_4  and  C_5
REMARK    2  A    between atoms: C_13  and  C_14
REMARK    3  A    between atoms: C_14  and  C_15
REMARK                            x       y       z     vdW  Elec       q    Type
REMARK                         _______ _______ _______ _____ _____    ______ ____
ROOT
ATOM      1  C   UNL     1       4.520   5.519  -6.297  0.00  0.00    +0.031 C 
ATOM      2  C   UNL     1       4.394   5.371  -7.777  0.00  0.00    -0.026 A 
ATOM      3  C   UNL     1       3.165   5.016  -8.319  0.00  0.00    -0.015 A 
ATOM      4  C   UNL     1       2.857   5.493  -9.586  0.00  0.00    +0.013 A 
ATOM      5  C   UNL     1       1.551   5.129 -10.195  0.00  0.00    +0.034 C 
ATOM      6  C   UNL     1       3.883   5.976 -10.389  0.00  0.00    +0.187 A 
ATOM      7  O   UNL     1       3.639   6.114 -11.740  0.00  0.00    -0.287 OA
ATOM      8  C   UNL     1       5.193   5.864  -9.944  0.00  0.00    +0.015 A 
ATOM      9  C   UNL     1       5.477   5.500  -8.633  0.00  0.00    -0.006 A 
ENDROOT
BRANCH   8  10
ATOM     10  C   UNL     1       6.330   6.340 -10.791  0.00  0.00    +0.022 C 
ATOM     11  C   UNL     1       6.137   7.776 -11.193  0.00  0.00    +0.004 C 
ATOM     12  C   UNL     1       7.557   6.294  -9.887  0.00  0.00    +0.004 C 
ATOM     13  C   UNL     1       6.479   5.439 -11.988  0.00  0.00    +0.004 C 
ENDBRANCH   8  10
BRANCH   3  14
ATOM     14  C   UNL     1       2.161   4.400  -7.428  0.00  0.00    +0.146 C 
BRANCH  14  15
ATOM     15  C   UNL     1       1.132   5.443  -7.124  0.00  0.00    +0.336 C 
ATOM     16  N   UNL     1      -0.292   5.300  -7.176  0.00  0.00    -0.030 NA
ATOM     17  C   UNL     1      -0.885   5.930  -5.999  0.00  0.00    +0.308 C 
ATOM     18  C   UNL     1       0.258   6.847  -5.580  0.00  0.00    +0.318 C 
ATOM     19  N   UNL     1       1.312   6.600  -6.558  0.00  0.00    -0.061 NA
ENDBRANCH  14  15
ENDBRANCH   3  14
TORSDOF 3
ENDMDL
MODEL 2
REMARK VINA RESULT:      -7.2      3.284      6.927
REMARK  Name = 
REMARK  3 active torsions:
REMARK  status: ('A' for Active; 'I' for Inactive)
REMARK    1  A    between atoms: C_4  and  C_5
REMARK    2  A    between atoms: C_13  and  C_14
REMARK    3  A    between atoms: C_14  and  C_15
REMARK                            x       y       z     vdW  Elec       q    Type
REMARK                         _______ _______ _______ _____ _____    ______ ____
ROOT
ATOM      1  C   UNL     1       2.001   7.697  -7.839  0.00  0.00    +0.031 C 
ATOM      2  C   UNL     1       1.566   6.992  -6.597  0.00  0.00    -0.026 A 
ATOM      3  C   UNL     1       2.528   6.547  -5.699  0.00  0.00    -0.015 A 
ATOM      4  C   UNL     1       2.188   6.512  -4.353  0.00  0.00    +0.013 A 
ATOM      5  C   UNL     1       3.194   6.038  -3.368  0.00  0.00    +0.034 C 
ATOM      6  C   UNL     1       0.845   6.564  -4.000  0.00  0.00    +0.187 A 
ATOM      7  O   UNL     1       0.496   6.181  -2.721  0.00  0.00    -0.287 OA
ATOM      8  C   UNL     1      -0.114   6.537  -5.002  0.00  0.00    +0.015 A 
ATOM      9  C   UNL     1       0.237   6.694  -6.337  0.00  0.00    -0.006 A 
ENDROOT
BRANCH   8  10
ATOM     10  C   UNL     1      -1.572   6.556  -4.665  0.00  0.00    +0.022 C 
ATOM     11  C   UNL     1      -1.998   7.922  -4.201  0.00  0.00    +0.004 C 
ATOM     12  C   UNL     1      -2.297   6.288  -5.979  0.00  0.00    +0.004 C 
ATOM     13  C   UNL     1      -1.865   5.500  -3.633  0.00  0.00    +0.004 C 
ENDBRANCH   8  10
BRANCH   3  14
ATOM     14  C   UNL     1       3.918   6.406  -6.178  0.00  0.00    +0.146 C 
BRANCH  14  15
ATOM     15  C   UNL     1       3.956   5.231  -7.104  0.00  0.00    +0.336 C 
ATOM     16  N   UNL     1       3.018   4.152  -7.177  0.00  0.00    -0.030 NA
ATOM     17  C   UNL     1       2.722   3.862  -8.578  0.00  0.00    +0.308 C 
ATOM     18  C   UNL     1       3.930   4.507  -9.247  0.00  0.00    +0.318 C 
ATOM     19  N   UNL     1       4.713   5.063  -8.148  0.00  0.00    -0.061 NA
ENDBRANCH  14  15
ENDBRANCH   3  14
TORSDOF 3
ENDMDL
MODEL 3
REMARK VINA RESULT:      -7.1      2.972      4.113
REMARK  Name = 
REMARK  3 active torsions:
REMARK  status: ('A' for Active; 'I' for Inactive)
REMARK    1  A    between atoms: C_4  and  C_5
REMARK    2  A    between atoms: C_13  and  C_14
REMARK    3  A    between atoms: C_14  and  C_15
REMARK                            x       y       z     vdW  Elec       q    Type
REMARK                         _______ _______ _______ _____ _____    ______ ____
ROOT
ATOM      1  C   UNL     1       5.236   7.473  -4.345  0.00  0.00    +0.031 C 
ATOM      2  C   UNL     1       4.271   6.804  -5.266  0.00  0.00    -0.026 A 
ATOM      3  C   UNL     1       2.915   6.838  -4.967  0.00  0.00    -0.015 A 
ATOM      4  C   UNL     1       2.020   6.835  -6.029  0.00  0.00    +0.013 A 
ATOM      5  C   UNL     1       0.563   6.868  -5.742  0.00  0.00    +0.034 C 
ATOM      6  C   UNL     1       2.469   6.442  -7.284  0.00  0.00    +0.187 A 
ATOM      7  O   UNL     1       1.526   6.105  -8.234  0.00  0.00    -0.287 OA
ATOM      8  C   UNL     1       3.764   5.959  -7.412  0.00  0.00    +0.015 A 
ATOM      9  C   UNL     1       4.682   6.080  -6.376  0.00  0.00    -0.006 A 
ENDROOT
BRANCH   8  10
ATOM     10  C   UNL     1       4.276   5.492  -8.738  0.00  0.00    +0.022 C 
ATOM     11  C   UNL     1       4.073   6.544  -9.793  0.00  0.00    +0.004 C 
ATOM     12  C   UNL     1       5.782   5.331  -8.558  0.00  0.00    +0.004 C 
ATOM     13  C   UNL     1       3.610   4.194  -9.108  0.00  0.00    +0.004 C 
ENDBRANCH   8  10
BRANCH   3  14
ATOM     14  C   UNL     1       2.514   7.152  -3.582  0.00  0.00    +0.146 C 
BRANCH  14  15
ATOM     15  C   UNL     1       2.354   5.853  -2.856  0.00  0.00    +0.336 C 
ATOM     16  N   UNL     1       3.393   4.995  -2.372  0.00  0.00    -0.030 NA
ATOM     17  C   UNL     1       3.055   4.536  -1.027  0.00  0.00    +0.308 C 
ATOM     18  C   UNL     1       1.553   4.793  -1.025  0.00  0.00    +0.318 C 
ATOM     19  N   UNL     1       1.268   5.356  -2.341  0.00  0.00    -0.061 NA
ENDBRANCH  14  15
ENDBRANCH   3  14
TORSDOF 3
ENDMDL
MODEL 4
REMARK VINA RESULT:      -7.0      2.562      6.734
REMARK  Name = 
REMARK  3 active torsions:
REMARK  status: ('A' for Active; 'I' for Inactive)
REMARK    1  A    between atoms: C_4  and  C_5
REMARK    2  A    between atoms: C_13  and  C_14
REMARK    3  A    between atoms: C_14  and  C_15
REMARK                            x       y       z     vdW  Elec       q    Type
REMARK                         _______ _______ _______ _____ _____    ______ ____
ROOT
ATOM      1  C   UNL     1       0.329   5.403  -9.568  0.00  0.00    +0.031 C 
ATOM      2  C   UNL     1       0.455   5.321  -8.083  0.00  0.00    -0.026 A 
ATOM      3  C   UNL     1       1.688   5.008  -7.525  0.00  0.00    -0.015 A 
ATOM      4  C   UNL     1       1.988   5.544  -6.279  0.00  0.00    +0.013 A 
ATOM      5  C   UNL     1       3.298   5.225  -5.655  0.00  0.00    +0.034 C 
ATOM      6  C   UNL     1       0.954   6.047  -5.499  0.00  0.00    +0.187 A 
ATOM      7  O   UNL     1       1.194   6.248  -4.155  0.00  0.00    -0.287 OA
ATOM      8  C   UNL     1      -0.353   5.897  -5.940  0.00  0.00    +0.015 A 
ATOM      9  C   UNL     1      -0.631   5.473  -7.234  0.00  0.00    -0.006 A 
ENDROOT
BRANCH   8  10
ATOM     10  C   UNL     1      -1.499   6.394  -5.116  0.00  0.00    +0.022 C 
ATOM     11  C   UNL     1      -1.333   7.852  -4.788  0.00  0.00    +0.004 C 
ATOM     12  C   UNL     1      -2.726   6.278  -6.013  0.00  0.00    +0.004 C 
ATOM     13  C   UNL     1      -1.627   5.553  -3.873  0.00  0.00    +0.004 C 
ENDBRANCH   8  10
BRANCH   3  14
ATOM     14  C   UNL     1       2.702   4.368  -8.387  0.00  0.00    +0.146 C 
BRANCH  14  15
ATOM     15  C   UNL     1       3.730   5.404  -8.715  0.00  0.00    +0.336 C 
ATOM     16  N   UNL     1       5.154   5.262  -8.664  0.00  0.00    -0.030 NA
ATOM     17  C   UNL     1       5.745   5.867  -9.855  0.00  0.00    +0.308 C 
ATOM     18  C   UNL     1       4.601   6.776 -10.289  0.00  0.00    +0.318 C 
ATOM     19  N   UNL     1       3.549   6.550  -9.303  0.00  0.00    -0.061 NA
ENDBRANCH  14  15
ENDBRANCH   3  14
TORSDOF 3
ENDMDL
MODEL 5
REMARK VINA RESULT:      -6.9      2.894      5.249
REMARK  Name = 
REMARK  3 active torsions:
REMARK  status: ('A' for Active; 'I' for Inactive)
REMARK    1  A    between atoms: C_4  and  C_5
REMARK    2  A    between atoms: C_13  and  C_14
REMARK    3  A    between atoms: C_14  and  C_15
REMARK                            x       y       z     vdW  Elec       q    Type
REMARK                         _______ _______ _______ _____ _____    ______ ____
ROOT
ATOM      1  C   UNL     1       5.359   5.068  -8.277  0.00  0.00    +0.031 C 
ATOM      2  C   UNL     1       4.344   5.385  -7.229  0.00  0.00    -0.026 A 
ATOM      3  C   UNL     1       3.056   4.883  -7.361  0.00  0.00    -0.015 A 
ATOM      4  C   UNL     1       2.351   4.600  -6.198  0.00  0.00    +0.013 A 
ATOM      5  C   UNL     1       0.969   4.065  -6.306  0.00  0.00    +0.034 C 
ATOM      6  C   UNL     1       2.789   5.148  -4.998  0.00  0.00    +0.187 A 
ATOM      7  O   UNL     1       1.912   5.160  -3.933  0.00  0.00    -0.287 OA
ATOM      8  C   UNL     1       3.846   6.047  -5.018  0.00  0.00    +0.015 A 
ATOM      9  C   UNL     1       4.616   6.227  -6.161  0.00  0.00    -0.006 A 
ENDROOT
BRANCH   8  10
ATOM     10  C   UNL     1       4.327   6.687  -3.754  0.00  0.00    +0.022 C 
ATOM     11  C   UNL     1       4.622   5.650  -2.705  0.00  0.00    +0.004 C 
ATOM     12  C   UNL     1       5.654   7.345  -4.111  0.00  0.00    +0.004 C 
ATOM     13  C   UNL     1       3.310   7.690  -3.278  0.00  0.00    +0.004 C 
ENDBRANCH   8  10
BRANCH   3  14
ATOM     14  C   UNL     1       2.619   4.423  -8.694  0.00  0.00    +0.146 C 
BRANCH  14  15
ATOM     15  C   UNL     1       2.146   5.625  -9.450  0.00  0.00    +0.336 C 
ATOM     16  N   UNL     1       2.609   6.088 -10.723  0.00  0.00    -0.030 NA
ATOM     17  C   UNL     1       1.464   6.474 -11.545  0.00  0.00    +0.308 C 
ATOM     18  C   UNL     1       0.409   6.663 -10.462  0.00  0.00    +0.318 C 
ATOM     19  N   UNL     1       1.097   6.355  -9.212  0.00  0.00    -0.061 NA
ENDBRANCH  14  15
ENDBRANCH   3  14
TORSDOF 3
ENDMDL
MODEL 6
REMARK VINA RESULT:      -6.8      5.617      8.315
REMARK  Name = 
REMARK  3 active torsions:
REMARK  status: ('A' for Active; 'I' for Inactive)
REMARK    1  A    between atoms: C_4  and  C_5
REMARK    2  A    between atoms: C_13  and  C_14
REMARK    3  A    between atoms: C_14  and  C_15
REMARK                            x       y       z     vdW  Elec       q    Type
REMARK                         _______ _______ _______ _____ _____    ______ ____
ROOT
ATOM      1  C   UNL     1       5.159   8.027  -4.282  0.00  0.00    +0.031 C 
ATOM      2  C   UNL     1       4.457   7.651  -3.020  0.00  0.00    -0.026 A 
ATOM      3  C   UNL     1       4.320   6.307  -2.697  0.00  0.00    -0.015 A 
ATOM      4  C   UNL     1       4.296   5.967  -1.350  0.00  0.00    +0.013 A 
ATOM      5  C   UNL     1       4.148   4.538  -0.972  0.00  0.00    +0.034 C 
ATOM      6  C   UNL     1       4.048   6.960  -0.411  0.00  0.00    +0.187 A 
ATOM      7  O   UNL     1       3.681   6.573   0.861  0.00  0.00    -0.287 OA
ATOM      8  C   UNL     1       3.722   8.235  -0.853  0.00  0.00    +0.015 A 
ATOM      9  C   UNL     1       3.867   8.591  -2.188  0.00  0.00    -0.006 A 
ENDROOT
BRANCH   8  10
ATOM     10  C   UNL     1       3.413   9.326   0.123  0.00  0.00    +0.022 C 
ATOM     11  C   UNL     1       4.442   9.374   1.218  0.00  0.00    +0.004 C 
ATOM     12  C   UNL     1       3.543  10.625  -0.664  0.00  0.00    +0.004 C 
ATOM     13  C   UNL     1       2.023   9.135   0.670  0.00  0.00    +0.004 C 
ENDBRANCH   8  10
BRANCH   3  14
ATOM     14  C   UNL     1       4.485   5.310  -3.772  0.00  0.00    +0.146 C 
BRANCH  14  15
ATOM     15  C   UNL     1       3.135   5.066  -4.369  0.00  0.00    +0.336 C 
ATOM     16  N   UNL     1       1.883   5.609  -3.936  0.00  0.00    -0.030 NA
ATOM     17  C   UNL     1       1.115   6.044  -5.100  0.00  0.00    +0.308 C 
ATOM     18  C   UNL     1       1.811   5.244  -6.195  0.00  0.00    +0.318 C 
ATOM     19  N   UNL     1       2.855   4.495  -5.504  0.00  0.00    -0.061 NA
ENDBRANCH  14  15
ENDBRANCH   3  14
TORSDOF 3
ENDMDL
MODEL 7
REMARK VINA RESULT:      -6.8      4.827      6.967
REMARK  Name = 
REMARK  3 active torsions:
REMARK  status: ('A' for Active; 'I' for Inactive)
REMARK    1  A    between atoms: C_4  and  C_5
REMARK    2  A    between atoms: C_13  and  C_14
REMARK    3  A    between atoms: C_14  and  C_15
REMARK                            x       y       z     vdW  Elec       q    Type
REMARK                         _______ _______ _______ _____ _____    ______ ____
ROOT
ATOM      1  C   UNL     1       1.169   4.926  -1.132  0.00  0.00    +0.031 C 
ATOM      2  C   UNL     1       1.800   5.382  -2.404  0.00  0.00    -0.026 A 
ATOM      3  C   UNL     1       3.164   5.192  -2.590  0.00  0.00    -0.015 A 
ATOM      4  C   UNL     1       3.617   4.987  -3.887  0.00  0.00    +0.013 A 
ATOM      5  C   UNL     1       5.070   4.783  -4.118  0.00  0.00    +0.034 C 
ATOM      6  C   UNL     1       2.789   5.332  -4.948  0.00  0.00    +0.187 A 
ATOM      7  O   UNL     1       3.358   5.460  -6.199  0.00  0.00    -0.287 OA
ATOM      8  C   UNL     1       1.587   5.972  -4.681  0.00  0.00    +0.015 A 
ATOM      9  C   UNL     1       1.092   6.060  -3.386  0.00  0.00    -0.006 A 
ENDROOT
BRANCH   8  10
ATOM     10  C   UNL     1       0.682   6.392  -5.796  0.00  0.00    +0.022 C 
ATOM     11  C   UNL     1       0.072   5.196  -6.473  0.00  0.00    +0.004 C 
ATOM     12  C   UNL     1      -0.458   7.153  -5.129  0.00  0.00    +0.004 C 
ATOM     13  C   UNL     1       1.444   7.255  -6.766  0.00  0.00    +0.004 C 
ENDBRANCH   8  10
BRANCH   3  14
ATOM     14  C   UNL     1       4.001   4.942  -1.400  0.00  0.00    +0.146 C 
BRANCH  14  15
ATOM     15  C   UNL     1       4.257   6.263  -0.745  0.00  0.00    +0.336 C 
ATOM     16  N   UNL     1       4.483   7.522  -1.389  0.00  0.00    -0.030 NA
ATOM     17  C   UNL     1       3.718   8.561  -0.704  0.00  0.00    +0.308 C 
ATOM     18  C   UNL     1       3.474   7.875   0.635  0.00  0.00    +0.318 C 
ATOM     19  N   UNL     1       4.118   6.571   0.510  0.00  0.00    -0.061 NA
ENDBRANCH  14  15
ENDBRANCH   3  14
TORSDOF 3
ENDMDL
MODEL 8
REMARK VINA RESULT:      -6.7      4.730      7.626
REMARK  Name = 
REMARK  3 active torsions:
REMARK  status: ('A' for Active; 'I' for Inactive)
REMARK    1  A    between atoms: C_4  and  C_5
REMARK    2  A    between atoms: C_13  and  C_14
REMARK    3  A    between atoms: C_14  and  C_15
REMARK                            x       y       z     vdW  Elec       q    Type
REMARK                         _______ _______ _______ _____ _____    ______ ____
ROOT
ATOM      1  C   UNL     1       1.369   4.678  -1.127  0.00  0.00    +0.031 C 
ATOM      2  C   UNL     1       1.149   5.489  -2.360  0.00  0.00    -0.026 A 
ATOM      3  C   UNL     1       2.188   5.629  -3.272  0.00  0.00    -0.015 A 
ATOM      4  C   UNL     1       1.854   5.774  -4.613  0.00  0.00    +0.013 A 
ATOM      5  C   UNL     1       2.942   5.929  -5.613  0.00  0.00    +0.034 C 
ATOM      6  C   UNL     1       0.553   6.132  -4.946  0.00  0.00    +0.187 A 
ATOM      7  O   UNL     1       0.318   6.612  -6.218  0.00  0.00    -0.287 OA
ATOM      8  C   UNL     1      -0.338   6.441  -3.928  0.00  0.00    +0.015 A 
ATOM      9  C   UNL     1      -0.032   6.176  -2.599  0.00  0.00    -0.006 A 
ENDROOT
BRANCH   8  10
ATOM     10  C   UNL     1      -1.738   6.865  -4.243  0.00  0.00    +0.022 C 
ATOM     11  C   UNL     1      -2.307   6.048  -5.370  0.00  0.00    +0.004 C 
ATOM     12  C   UNL     1      -2.554   6.530  -2.999  0.00  0.00    +0.004 C 
ATOM     13  C   UNL     1      -1.762   8.338  -4.553  0.00  0.00    +0.004 C 
ENDBRANCH   8  10
BRANCH   3  14
ATOM     14  C   UNL     1       3.562   5.341  -2.815  0.00  0.00    +0.146 C 
BRANCH  14  15
ATOM     15  C   UNL     1       4.082   6.577  -2.153  0.00  0.00    +0.336 C 
ATOM     16  N   UNL     1       4.048   7.916  -2.661  0.00  0.00    -0.030 NA
ATOM     17  C   UNL     1       3.645   8.829  -1.594  0.00  0.00    +0.308 C 
ATOM     18  C   UNL     1       3.956   7.969  -0.374  0.00  0.00    +0.318 C 
ATOM     19  N   UNL     1       4.472   6.718  -0.920  0.00  0.00    -0.061 NA
ENDBRANCH  14  15
ENDBRANCH   3  14
TORSDOF 3
ENDMDL
MODEL 9
REMARK VINA RESULT:      -6.7      3.838      7.270
REMARK  Name = 
REMARK  3 active torsions:
REMARK  status: ('A' for Active; 'I' for Inactive)
REMARK    1  A    between atoms: C_4  and  C_5
REMARK    2  A    between atoms: C_13  and  C_14
REMARK    3  A    between atoms: C_14  and  C_15
REMARK                            x       y       z     vdW  Elec       q    Type
REMARK                         _______ _______ _______ _____ _____    ______ ____
ROOT
ATOM      1  C   UNL     1       0.247   6.874  -5.946  0.00  0.00    +0.031 C 
ATOM      2  C   UNL     1       1.316   6.539  -4.960  0.00  0.00    -0.026 A 
ATOM      3  C   UNL     1       2.640   6.816  -5.276  0.00  0.00    -0.015 A 
ATOM      4  C   UNL     1       3.500   7.131  -4.233  0.00  0.00    +0.013 A 
ATOM      5  C   UNL     1       4.923   7.430  -4.538  0.00  0.00    +0.034 C 
ATOM      6  C   UNL     1       3.124   6.813  -2.933  0.00  0.00    +0.187 A 
ATOM      7  O   UNL     1       4.102   6.801  -1.960  0.00  0.00    -0.287 OA
ATOM      8  C   UNL     1       1.956   6.092  -2.731  0.00  0.00    +0.015 A 
ATOM      9  C   UNL     1       1.048   5.890  -3.763  0.00  0.00    -0.006 A 
ENDROOT
BRANCH   8  10
ATOM     10  C   UNL     1       1.531   5.698  -1.352  0.00  0.00    +0.022 C 
ATOM     11  C   UNL     1       1.643   6.859  -0.402  0.00  0.00    +0.004 C 
ATOM     12  C   UNL     1       0.049   5.359  -1.464  0.00  0.00    +0.004 C 
ATOM     13  C   UNL     1       2.346   4.519  -0.891  0.00  0.00    +0.004 C 
ENDBRANCH   8  10
BRANCH   3  14
ATOM     14  C   UNL     1       2.988   7.032  -6.695  0.00  0.00    +0.146 C 
BRANCH  14  15
ATOM     15  C   UNL     1       3.422   5.714  -7.255  0.00  0.00    +0.336 C 
ATOM     16  N   UNL     1       2.663   4.501  -7.310  0.00  0.00    -0.030 NA
ATOM     17  C   UNL     1       2.835   3.881  -8.622  0.00  0.00    +0.308 C 
ATOM     18  C   UNL     1       4.118   4.567  -9.077  0.00  0.00    +0.318 C 
ATOM     19  N   UNL     1       4.472   5.462  -7.980  0.00  0.00    -0.061 NA
ENDBRANCH  14  15
ENDBRANCH   3  14
TORSDOF 3
ENDMDL
