MODEL 1
REMARK VINA RESULT:      -6.8      0.000      0.000
REMARK  Name = 
REMARK  4 active torsions:
REMARK  status: ('A' for Active; 'I' for Inactive)
REMARK    1  A    between atoms: N_2  and  C_4
REMARK    2  A    between atoms: C_4  and  C_5
REMARK    3  A    between atoms: C_5  and  C_6
REMARK    4  A    between atoms: C_5  and  C_13
REMARK                            x       y       z     vdW  Elec       q    Type
REMARK                         _______ _______ _______ _____ _____    ______ ____
ROOT
ATOM      1  C   UNL     1       3.587   6.757  -9.635  0.00  0.00    +0.066 C 
ENDROOT
BRANCH   1   2
ATOM      2  C   UNL     1       2.776   5.705 -10.609  0.00  0.00    +0.132 C 
ATOM      3  C   UNL     1       1.960   4.814  -9.760  0.00  0.00    +0.031 C 
ATOM      4  C   UNL     1       0.477   4.848 -10.042  0.00  0.00    +0.003 C 
ATOM      5  C   UNL     1       0.311   4.668 -11.536  0.00  0.00    +0.000 C 
ATOM      6  C   UNL     1       0.992   5.804 -12.254  0.00  0.00    +0.003 C 
ATOM      7  C   UNL     1       1.818   6.667 -11.305  0.00  0.00    +0.031 C 
ATOM      8  O   UNL     1       3.589   5.175 -11.521  0.00  0.00    -0.225 OA
ENDBRANCH   1   2
BRANCH   1   9
ATOM      9  C   UNL     1       5.054   6.458 -10.258  0.00  0.00    -0.019 A 
ATOM     10  C   UNL     1       5.569   7.599 -10.872  0.00  0.00    -0.001 A 
ATOM     11  C   UNL     1       6.887   7.536 -11.316  0.00  0.00    +0.042 A 
ATOM     12  C   UNL     1       7.658   6.428 -11.031  0.00  0.00    +0.196 A 
ATOM     13  O   UNL     1       8.710   5.994 -11.832  0.00  0.00    -0.287 OA
ATOM     14  C   UNL     1       7.232   5.680  -9.945  0.00  0.00    +0.042 A 
ATOM     15  C   UNL     1       5.970   5.885  -9.394  0.00  0.00    -0.001 A 
ENDBRANCH   1   9
BRANCH   1  16
ATOM     16  C   UNL     1       3.772   5.640  -8.424  0.00  0.00    +0.079 C 
BRANCH  16  18
ATOM     17  C   UNL     1       2.791   7.119  -7.214  0.00  0.00    +0.090 C 
ATOM     18  N   UNL     1       3.652   6.527  -7.270  0.00  0.00    -0.270 NA
ATOM     19  C   UNL     1       4.031   5.734  -6.106  0.00  0.00    +0.090 C 
ENDBRANCH  16  18
ENDBRANCH   1  16
TORSDOF 4
ENDMDL
MODEL 2
REMARK VINA RESULT:      -6.7      3.822      5.792
REMARK  Name = 
REMARK  4 active torsions:
REMARK  status: ('A' for Active; 'I' for Inactive)
REMARK    1  A    between atoms: N_2  and  C_4
REMARK    2  A    between atoms: C_4  and  C_5
REMARK    3  A    between atoms: C_5  and  C_6
REMARK    4  A    between atoms: C_5  and  C_13
REMARK                            x       y       z     vdW  Elec       q    Type
REMARK                         _______ _______ _______ _____ _____    ______ ____
ROOT
ATOM      1  C   UNL     1       2.039   4.986  -6.698  0.00  0.00    +0.066 C 
ENDROOT
BRANCH   1   2
ATOM      2  C   UNL     1       0.725   5.970  -6.566  0.00  0.00    +0.132 C 
ATOM      3  C   UNL     1      -0.348   5.438  -7.429  0.00  0.00    +0.031 C 
ATOM      4  C   UNL     1      -1.631   5.093  -6.711  0.00  0.00    +0.003 C 
ATOM      5  C   UNL     1      -1.999   6.295  -5.869  0.00  0.00    +0.000 C 
ATOM      6  C   UNL     1      -0.907   6.554  -4.864  0.00  0.00    +0.003 C 
ATOM      7  C   UNL     1       0.323   5.688  -5.121  0.00  0.00    +0.031 C 
ATOM      8  O   UNL     1       1.075   7.251  -6.671  0.00  0.00    -0.225 OA
ENDBRANCH   1   2
BRANCH   1   9
ATOM      9  C   UNL     1       2.890   5.692  -5.511  0.00  0.00    -0.019 A 
ATOM     10  C   UNL     1       3.535   4.732  -4.731  0.00  0.00    -0.001 A 
ATOM     11  C   UNL     1       4.427   5.197  -3.769  0.00  0.00    +0.042 A 
ATOM     12  C   UNL     1       4.732   6.541  -3.705  0.00  0.00    +0.196 A 
ATOM     13  O   UNL     1       5.116   7.190  -2.534  0.00  0.00    -0.287 OA
ATOM     14  C   UNL     1       4.504   7.252  -4.872  0.00  0.00    +0.042 A 
ATOM     15  C   UNL     1       3.758   6.695  -5.907  0.00  0.00    -0.001 A 
ENDBRANCH   1   9
BRANCH   1  16
ATOM     16  C   UNL     1       2.736   5.919  -7.878  0.00  0.00    +0.079 C 
BRANCH  16  18
ATOM     17  C   UNL     1       2.838   3.893  -8.586  0.00  0.00    +0.090 C 
ATOM     18  N   UNL     1       2.955   4.888  -8.889  0.00  0.00    -0.270 NA
ATOM     19  C   UNL     1       2.258   5.339 -10.089  0.00  0.00    +0.090 C 
ENDBRANCH  16  18
ENDBRANCH   1  16
TORSDOF 4
ENDMDL
MODEL 3
REMARK VINA RESULT:      -6.7      3.317      4.947
REMARK  Name = 
REMARK  4 active torsions:
REMARK  status: ('A' for Active; 'I' for Inactive)
REMARK    1  A    between atoms: N_2  and  C_4
REMARK    2  A    between atoms: C_4  and  C_5
REMARK    3  A    between atoms: C_5  and  C_6
REMARK    4  A    between atoms: C_5  and  C_13
REMARK                            x       y       z     vdW  Elec       q    Type
REMARK                         _______ _______ _______ _____ _____    ______ ____
ROOT
ATOM      1  C   UNL     1       1.720   6.988  -5.438  0.00  0.00    +0.066 C 
ENDROOT
BRANCH   1   2
ATOM      2  C   UNL     1       0.418   5.979  -5.416  0.00  0.00    +0.132 C 
ATOM      3  C   UNL     1      -0.647   6.606  -4.607  0.00  0.00    +0.031 C 
ATOM      4  C   UNL     1      -1.947   6.841  -5.337  0.00  0.00    +0.003 C 
ATOM      5  C   UNL     1      -2.314   5.536  -6.010  0.00  0.00    +0.000 C 
ATOM      6  C   UNL     1      -1.237   5.163  -6.996  0.00  0.00    +0.003 C 
ATOM      7  C   UNL     1      -0.015   6.069  -6.877  0.00  0.00    +0.031 C 
ATOM      8  O   UNL     1       0.788   4.726  -5.155  0.00  0.00    -0.225 OA
ENDBRANCH   1   2
BRANCH   1   9
ATOM      9  C   UNL     1       2.384   6.366  -6.782  0.00  0.00    -0.019 A 
ATOM     10  C   UNL     1       2.527   7.351  -7.759  0.00  0.00    -0.001 A 
ATOM     11  C   UNL     1       3.224   6.999  -8.911  0.00  0.00    +0.042 A 
ATOM     12  C   UNL     1       3.842   5.767  -8.993  0.00  0.00    +0.196 A 
ATOM     13  O   UNL     1       4.061   5.093 -10.191  0.00  0.00    -0.287 OA
ATOM     14  C   UNL     1       4.122   5.168  -7.775  0.00  0.00    +0.042 A 
ATOM     15  C   UNL     1       3.555   5.653  -6.600  0.00  0.00    -0.001 A 
ENDBRANCH   1   9
BRANCH   1  16
ATOM     16  C   UNL     1       2.610   6.012  -4.437  0.00  0.00    +0.079 C 
BRANCH  16  18
ATOM     17  C   UNL     1       2.519   6.482  -2.342  0.00  0.00    +0.090 C 
ATOM     18  N   UNL     1       2.716   6.900  -3.282  0.00  0.00    -0.270 NA
ATOM     19  C   UNL     1       3.947   7.661  -3.463  0.00  0.00    +0.090 C 
ENDBRANCH  16  18
ENDBRANCH   1  16
TORSDOF 4
ENDMDL
MODEL 4
REMARK VINA RESULT:      -6.6      3.118      6.378
REMARK  Name = 
REMARK  4 active torsions:
REMARK  status: ('A' for Active; 'I' for Inactive)
REMARK    1  A    between atoms: N_2  and  C_4
REMARK    2  A    between atoms: C_4  and  C_5
REMARK    3  A    between atoms: C_5  and  C_6
REMARK    4  A    between atoms: C_5  and  C_13
REMARK                            x       y       z     vdW  Elec       q    Type
REMARK                         _______ _______ _______ _____ _____    ______ ____
ROOT
ATOM      1  C   UNL     1       1.479   6.257  -9.070  0.00  0.00    +0.066 C 
ENDROOT
BRANCH   1   2
ATOM      2  C   UNL     1       2.832   5.348  -8.828  0.00  0.00    +0.132 C 
ATOM      3  C   UNL     1       3.688   5.453 -10.027  0.00  0.00    +0.031 C 
ATOM      4  C   UNL     1       5.073   5.997  -9.775  0.00  0.00    +0.003 C 
ATOM      5  C   UNL     1       5.651   5.207  -8.622  0.00  0.00    +0.000 C 
ATOM      6  C   UNL     1       4.795   5.410  -7.399  0.00  0.00    +0.003 C 
ATOM      7  C   UNL     1       3.505   6.157  -7.722  0.00  0.00    +0.031 C 
ATOM      8  O   UNL     1       2.521   4.144  -8.349  0.00  0.00    -0.225 OA
ENDBRANCH   1   2
BRANCH   1   9
ATOM      9  C   UNL     1       0.802   5.923  -7.634  0.00  0.00    -0.019 A 
ATOM     10  C   UNL     1       0.932   7.007  -6.766  0.00  0.00    -0.001 A 
ATOM     11  C   UNL     1       0.262   6.924  -5.549  0.00  0.00    +0.042 A 
ATOM     12  C   UNL     1      -0.585   5.863  -5.299  0.00  0.00    +0.196 A 
ATOM     13  O   UNL     1      -0.849   5.371  -4.024  0.00  0.00    -0.287 OA
ATOM     14  C   UNL     1      -1.067   5.219  -6.427  0.00  0.00    +0.042 A 
ATOM     15  C   UNL     1      -0.499   5.455  -7.676  0.00  0.00    -0.001 A 
ENDBRANCH   1   9
BRANCH   1  16
ATOM     16  C   UNL     1       0.677   5.026  -9.837  0.00  0.00    +0.079 C 
BRANCH  16  18
ATOM     17  C   UNL     1       0.345   4.938 -11.958  0.00  0.00    +0.090 C 
ATOM     18  N   UNL     1       0.635   5.583 -11.187  0.00  0.00    -0.270 NA
ATOM     19  C   UNL     1      -0.028   6.878 -11.074  0.00  0.00    +0.090 C 
ENDBRANCH  16  18
ENDBRANCH   1  16
TORSDOF 4
ENDMDL
MODEL 5
REMARK VINA RESULT:      -6.5      2.044      4.497
REMARK  Name = 
REMARK  4 active torsions:
REMARK  status: ('A' for Active; 'I' for Inactive)
REMARK    1  A    between atoms: N_2  and  C_4
REMARK    2  A    between atoms: C_4  and  C_5
REMARK    3  A    between atoms: C_5  and  C_6
REMARK    4  A    between atoms: C_5  and  C_13
REMARK                            x       y       z     vdW  Elec       q    Type
REMARK                         _______ _______ _______ _____ _____    ______ ____
ROOT
ATOM      1  C   UNL     1       2.965   5.387  -7.805  0.00  0.00    +0.066 C 
ENDROOT
BRANCH   1   2
ATOM      2  C   UNL     1       2.940   6.494  -6.585  0.00  0.00    +0.132 C 
ATOM      3  C   UNL     1       1.995   6.028  -5.550  0.00  0.00    +0.031 C 
ATOM      4  C   UNL     1       2.597   5.832  -4.179  0.00  0.00    +0.003 C 
ATOM      5  C   UNL     1       3.362   7.096  -3.851  0.00  0.00    +0.000 C 
ATOM      6  C   UNL     1       4.459   7.292  -4.865  0.00  0.00    +0.003 C 
ATOM      7  C   UNL     1       4.348   6.308  -6.025  0.00  0.00    +0.031 C 
ATOM      8  O   UNL     1       2.829   7.732  -7.063  0.00  0.00    -0.225 OA
ENDBRANCH   1   2
BRANCH   1   9
ATOM      9  C   UNL     1       4.244   6.024  -8.574  0.00  0.00    -0.019 A 
ATOM     10  C   UNL     1       5.320   5.136  -8.556  0.00  0.00    -0.001 A 
ATOM     11  C   UNL     1       6.436   5.483  -9.312  0.00  0.00    +0.042 A 
ATOM     12  C   UNL     1       6.396   6.595 -10.130  0.00  0.00    +0.196 A 
ATOM     13  O   UNL     1       7.520   7.343 -10.468  0.00  0.00    -0.287 OA
ATOM     14  C   UNL     1       5.126   7.008 -10.497  0.00  0.00    +0.042 A 
ATOM     15  C   UNL     1       4.001   6.507  -9.847  0.00  0.00    -0.001 A 
ENDBRANCH   1   9
BRANCH   1  16
ATOM     16  C   UNL     1       1.876   6.236  -8.722  0.00  0.00    +0.079 C 
BRANCH  16  18
ATOM     17  C   UNL     1      -0.121   5.496  -8.438  0.00  0.00    +0.090 C 
ATOM     18  N   UNL     1       0.819   5.232  -8.814  0.00  0.00    -0.270 NA
ATOM     19  C   UNL     1       0.902   4.676 -10.160  0.00  0.00    +0.090 C 
ENDBRANCH  16  18
ENDBRANCH   1  16
TORSDOF 4
ENDMDL
MODEL 6
REMARK VINA RESULT:      -6.5      4.013      7.677
REMARK  Name = 
REMARK  4 active torsions:
REMARK  status: ('A' for Active; 'I' for Inactive)
REMARK    1  A    between atoms: N_2  and  C_4
REMARK    2  A    between atoms: C_4  and  C_5
REMARK    3  A    between atoms: C_5  and  C_6
REMARK    4  A    between atoms: C_5  and  C_13
REMARK                            x       y       z     vdW  Elec       q    Type
REMARK                         _______ _______ _______ _____ _____    ______ ____
ROOT
ATOM      1  C   UNL     1       1.327   6.686  -6.753  0.00  0.00    +0.066 C 
ENDROOT
BRANCH   1   2
ATOM      2  C   UNL     1       2.380   5.681  -5.980  0.00  0.00    +0.132 C 
ATOM      3  C   UNL     1       3.754   6.053  -6.371  0.00  0.00    +0.031 C 
ATOM      4  C   UNL     1       4.658   6.446  -5.227  0.00  0.00    +0.003 C 
ATOM      5  C   UNL     1       4.542   5.356  -4.183  0.00  0.00    +0.000 C 
ATOM      6  C   UNL     1       3.117   5.275  -3.702  0.00  0.00    +0.003 C 
ATOM      7  C   UNL     1       2.181   6.141  -4.538  0.00  0.00    +0.031 C 
ATOM      8  O   UNL     1       1.991   4.411  -6.082  0.00  0.00    -0.225 OA
ENDBRANCH   1   2
BRANCH   1   9
ATOM      9  C   UNL     1       0.015   6.211  -5.925  0.00  0.00    -0.019 A 
ATOM     10  C   UNL     1      -0.492   7.263  -5.162  0.00  0.00    -0.001 A 
ATOM     11  C   UNL     1      -1.708   7.047  -4.520  0.00  0.00    +0.042 A 
ATOM     12  C   UNL     1      -2.414   5.884  -4.753  0.00  0.00    +0.196 A 
ATOM     13  O   UNL     1      -3.277   5.308  -3.825  0.00  0.00    -0.287 OA
ATOM     14  C   UNL     1      -2.107   5.239  -5.940  0.00  0.00    +0.042 A 
ATOM     15  C   UNL     1      -0.977   5.596  -6.670  0.00  0.00    -0.001 A 
ENDBRANCH   1   9
BRANCH   1  16
ATOM     16  C   UNL     1       1.055   5.608  -7.982  0.00  0.00    +0.079 C 
BRANCH  16  18
ATOM     17  C   UNL     1       2.226   6.592  -9.491  0.00  0.00    +0.090 C 
ATOM     18  N   UNL     1       1.251   6.501  -9.121  0.00  0.00    -0.270 NA
ATOM     19  C   UNL     1       0.173   6.208 -10.059  0.00  0.00    +0.090 C 
ENDBRANCH  16  18
ENDBRANCH   1  16
TORSDOF 4
ENDMDL
MODEL 7
REMARK VINA RESULT:      -6.5      3.258      5.956
REMARK  Name = 
REMARK  4 active torsions:
REMARK  status: ('A' for Active; 'I' for Inactive)
REMARK    1  A    between atoms: N_2  and  C_4
REMARK    2  A    between atoms: C_4  and  C_5
REMARK    3  A    between atoms: C_5  and  C_6
REMARK    4  A    between atoms: C_5  and  C_13
REMARK                            x       y       z     vdW  Elec       q    Type
REMARK                         _______ _______ _______ _____ _____    ______ ____
ROOT
ATOM      1  C   UNL     1       1.654   5.363  -7.951  0.00  0.00    +0.066 C 
ENDROOT
BRANCH   1   2
ATOM      2  C   UNL     1       1.529   6.347  -9.267  0.00  0.00    +0.132 C 
ATOM      3  C   UNL     1       2.423   5.833 -10.323  0.00  0.00    +0.031 C 
ATOM      4  C   UNL     1       1.738   5.476 -11.620  0.00  0.00    +0.003 C 
ATOM      5  C   UNL     1       0.881   6.663 -12.004  0.00  0.00    +0.000 C 
ATOM      6  C   UNL     1      -0.150   6.901 -10.932  0.00  0.00    +0.003 C 
ATOM      7  C   UNL     1       0.098   6.038  -9.698  0.00  0.00    +0.031 C 
ATOM      8  O   UNL     1       1.603   7.630  -8.913  0.00  0.00    -0.225 OA
ENDBRANCH   1   2
BRANCH   1   9
ATOM      9  C   UNL     1       0.417   6.026  -7.136  0.00  0.00    -0.019 A 
ATOM     10  C   UNL     1      -0.614   5.101  -6.971  0.00  0.00    -0.001 A 
ATOM     11  C   UNL     1      -1.676   5.481  -6.156  0.00  0.00    +0.042 A 
ATOM     12  C   UNL     1      -1.618   6.669  -5.457  0.00  0.00    +0.196 A 
ATOM     13  O   UNL     1      -2.742   7.406  -5.093  0.00  0.00    -0.287 OA
ATOM     14  C   UNL     1      -0.341   7.165  -5.246  0.00  0.00    +0.042 A 
ATOM     15  C   UNL     1       0.745   6.643  -5.942  0.00  0.00    -0.001 A 
ENDBRANCH   1   9
BRANCH   1  16
ATOM     16  C   UNL     1       2.778   6.333  -7.216  0.00  0.00    +0.079 C 
BRANCH  16  18
ATOM     17  C   UNL     1       4.666   5.387  -7.613  0.00  0.00    +0.090 C 
ATOM     18  N   UNL     1       3.827   5.342  -6.989  0.00  0.00    -0.270 NA
ATOM     19  C   UNL     1       4.032   5.288  -5.546  0.00  0.00    +0.090 C 
ENDBRANCH  16  18
ENDBRANCH   1  16
TORSDOF 4
ENDMDL
MODEL 8
REMARK VINA RESULT:      -6.4      2.089      5.351
REMARK  Name = 
REMARK  4 active torsions:
REMARK  status: ('A' for Active; 'I' for Inactive)
REMARK    1  A    between atoms: N_2  and  C_4
REMARK    2  A    between atoms: C_4  and  C_5
REMARK    3  A    between atoms: C_5  and  C_6
REMARK    4  A    between atoms: C_5  and  C_13
REMARK                            x       y       z     vdW  Elec       q    Type
REMARK                         _______ _______ _______ _____ _____    ______ ____
ROOT
ATOM      1  C   UNL     1       3.479   6.839 -10.316  0.00  0.00    +0.066 C 
ENDROOT
BRANCH   1   2
ATOM      2  C   UNL     1       4.964   6.260 -10.731  0.00  0.00    +0.132 C 
ATOM      3  C   UNL     1       5.675   7.301 -11.501  0.00  0.00    +0.031 C 
ATOM      4  C   UNL     1       6.986   7.752 -10.904  0.00  0.00    +0.003 C 
ATOM      5  C   UNL     1       7.781   6.501 -10.600  0.00  0.00    +0.000 C 
ATOM      6  C   UNL     1       7.029   5.662  -9.600  0.00  0.00    +0.003 C 
ATOM      7  C   UNL     1       5.620   6.192  -9.354  0.00  0.00    +0.031 C 
ATOM      8  O   UNL     1       4.877   5.026 -11.225  0.00  0.00    -0.225 OA
ENDBRANCH   1   2
BRANCH   1   9
ATOM      9  C   UNL     1       3.385   6.044  -8.905  0.00  0.00    -0.019 A 
ATOM     10  C   UNL     1       2.969   6.901  -7.886  0.00  0.00    -0.001 A 
ATOM     11  C   UNL     1       2.694   6.323  -6.650  0.00  0.00    +0.042 A 
ATOM     12  C   UNL     1       2.716   4.950  -6.510  0.00  0.00    +0.196 A 
ATOM     13  O   UNL     1       3.015   4.302  -5.315  0.00  0.00    -0.287 OA
ATOM     14  C   UNL     1       2.549   4.238  -7.687  0.00  0.00    +0.042 A 
ATOM     15  C   UNL     1       2.647   4.874  -8.921  0.00  0.00    -0.001 A 
ENDBRANCH   1   9
BRANCH   1  16
ATOM     16  C   UNL     1       2.680   5.646 -11.146  0.00  0.00    +0.079 C 
BRANCH  16  18
ATOM     17  C   UNL     1       1.973   6.218 -13.092  0.00  0.00    +0.090 C 
ATOM     18  N   UNL     1       1.927   6.479 -12.080  0.00  0.00    -0.270 NA
ATOM     19  C   UNL     1       0.617   6.690 -11.473  0.00  0.00    +0.090 C 
ENDBRANCH  16  18
ENDBRANCH   1  16
TORSDOF 4
ENDMDL
MODEL 9
REMARK VINA RESULT:      -6.4      3.788      5.338
REMARK  Name = 
REMARK  4 active torsions:
REMARK  status: ('A' for Active; 'I' for Inactive)
REMARK    1  A    between atoms: N_2  and  C_4
REMARK    2  A    between atoms: C_4  and  C_5
REMARK    3  A    between atoms: C_5  and  C_6
REMARK    4  A    between atoms: C_5  and  C_13
REMARK                            x       y       z     vdW  Elec       q    Type
REMARK                         _______ _______ _______ _____ _____    ______ ____
ROOT
ATOM      1  C   UNL     1       1.675   6.518  -6.617  0.00  0.00    +0.066 C 
ENDROOT
BRANCH   1   2
ATOM      2  C   UNL     1       0.364   5.924  -5.815  0.00  0.00    +0.132 C 
ATOM      3  C   UNL     1      -0.039   6.902  -4.785  0.00  0.00    +0.031 C 
ATOM      4  C   UNL     1      -1.452   7.418  -4.914  0.00  0.00    +0.003 C 
ATOM      5  C   UNL     1      -2.349   6.208  -5.060  0.00  0.00    +0.000 C 
ATOM      6  C   UNL     1      -1.967   5.451  -6.305  0.00  0.00    +0.003 C 
ATOM      7  C   UNL     1      -0.680   5.984  -6.927  0.00  0.00    +0.031 C 
ATOM      8  O   UNL     1       0.551   4.650  -5.471  0.00  0.00    -0.225 OA
ENDBRANCH   1   2
BRANCH   1   9
ATOM      9  C   UNL     1       1.259   5.925  -8.068  0.00  0.00    -0.019 A 
ATOM     10  C   UNL     1       1.329   6.919  -9.044  0.00  0.00    -0.001 A 
ATOM     11  C   UNL     1       1.150   6.520 -10.365  0.00  0.00    +0.042 A 
ATOM     12  C   UNL     1       1.040   5.179 -10.671  0.00  0.00    +0.196 A 
ATOM     13  O   UNL     1       0.334   4.693 -11.768  0.00  0.00    -0.287 OA
ATOM     14  C   UNL     1       1.576   4.316  -9.728  0.00  0.00    +0.042 A 
ATOM     15  C   UNL     1       1.923   4.777  -8.461  0.00  0.00    -0.001 A 
ENDBRANCH   1   9
BRANCH   1  16
ATOM     16  C   UNL     1       2.615   5.204  -6.246  0.00  0.00    +0.079 C 
BRANCH  16  18
ATOM     17  C   UNL     1       3.709   6.936  -5.598  0.00  0.00    +0.090 C 
ATOM     18  N   UNL     1       3.718   5.889  -5.578  0.00  0.00    -0.270 NA
ATOM     19  C   UNL     1       3.898   5.218  -4.295  0.00  0.00    +0.090 C 
ENDBRANCH  16  18
ENDBRANCH   1  16
TORSDOF 4
ENDMDL
