MODEL 1
REMARK VINA RESULT:      -6.4      0.000      0.000
REMARK  Name = 
REMARK  6 active torsions:
REMARK  status: ('A' for Active; 'I' for Inactive)
REMARK    1  A    between atoms: C_2  and  N_4
REMARK    2  A    between atoms: N_4  and  C_5
REMARK    3  A    between atoms: C_5  and  C_6
REMARK    4  A    between atoms: C_6  and  C_8
REMARK    5  A    between atoms: C_11  and  N_12
REMARK    6  A    between atoms: N_12  and  S_13
REMARK                            x       y       z     vdW  Elec       q    Type
REMARK                         _______ _______ _______ _____ _____    ______ ____
ROOT
ATOM      1  C   UNL     1       3.337   6.095  -8.196  0.00  0.00    +0.009 A 
ATOM      2  C   UNL     1       4.532   5.646  -7.772  0.00  0.00    -0.000 A 
ATOM      3  C   UNL     1       5.325   5.131  -8.794  0.00  0.00    +0.018 A 
ATOM      4  C   UNL     1       5.305   5.763 -10.023  0.00  0.00    +0.091 A 
ATOM      5  C   UNL     1       4.485   6.876 -10.147  0.00  0.00    +0.018 A 
ATOM      6  C   UNL     1       3.370   6.921  -9.319  0.00  0.00    -0.000 A 
ENDROOT
BRANCH   1   7
ATOM      7  C   UNL     1       2.281   6.684  -7.071  0.00  0.00    +0.192 C 
ATOM      8  O   UNL     1       2.165   8.099  -7.708  0.00  0.00    -0.217 OA
BRANCH   7   9
ATOM      9  C   UNL     1       3.539   7.177  -6.056  0.00  0.00    +0.126 C 
BRANCH   9  10
ATOM     10  N   UNL     1       3.112   6.777  -4.753  0.00  0.00    -0.216 NA
BRANCH  10  12
ATOM     11  C   UNL     1       4.872   6.645  -3.508  0.00  0.00    +0.019 C 
ATOM     12  C   UNL     1       4.053   6.109  -3.937  0.00  0.00    +0.073 C 
ATOM     13  C   UNL     1       4.150   4.629  -4.130  0.00  0.00    +0.019 C 
ENDBRANCH  10  12
ENDBRANCH   9  10
ENDBRANCH   7   9
ENDBRANCH   1   7
BRANCH   4  14
ATOM     14  N   UNL     1       6.503   5.685 -10.793  0.00  0.00    -0.101 NA
BRANCH  14  15
ATOM     15  S   UNL     1       6.517   5.499 -12.493  0.00  0.00    +0.075 S 
ATOM     16  O   UNL     1       7.664   4.606 -12.883  0.00  0.00    -0.153 OA
ATOM     17  O   UNL     1       5.260   4.750 -12.871  0.00  0.00    -0.153 OA
ATOM     18  C   UNL     1       6.632   7.035 -13.358  0.00  0.00    +0.202 C 
ENDBRANCH  14  15
ENDBRANCH   4  14
TORSDOF 6
ENDMDL
MODEL 2
REMARK VINA RESULT:      -6.4      4.911      8.092
REMARK  Name = 
REMARK  6 active torsions:
REMARK  status: ('A' for Active; 'I' for Inactive)
REMARK    1  A    between atoms: C_2  and  N_4
REMARK    2  A    between atoms: N_4  and  C_5
REMARK    3  A    between atoms: C_5  and  C_6
REMARK    4  A    between atoms: C_6  and  C_8
REMARK    5  A    between atoms: C_11  and  N_12
REMARK    6  A    between atoms: N_12  and  S_13
REMARK                            x       y       z     vdW  Elec       q    Type
REMARK                         _______ _______ _______ _____ _____    ______ ____
ROOT
ATOM      1  C   UNL     1       0.695   5.472  -7.512  0.00  0.00    +0.009 A 
ATOM      2  C   UNL     1      -0.642   5.416  -7.657  0.00  0.00    -0.000 A 
ATOM      3  C   UNL     1      -1.326   5.304  -6.450  0.00  0.00    +0.018 A 
ATOM      4  C   UNL     1      -0.855   6.011  -5.359  0.00  0.00    +0.091 A 
ATOM      5  C   UNL     1       0.280   6.786  -5.553  0.00  0.00    +0.018 A 
ATOM      6  C   UNL     1       1.156   6.367  -6.547  0.00  0.00    -0.000 A 
ENDROOT
BRANCH   1   7
ATOM      7  C   UNL     1       1.625   5.554  -8.873  0.00  0.00    +0.192 C 
ATOM      8  O   UNL     1       0.651   4.732  -9.765  0.00  0.00    -0.217 OA
BRANCH   7   9
ATOM      9  C   UNL     1       2.494   4.171  -8.440  0.00  0.00    +0.126 C 
BRANCH   9  10
ATOM     10  N   UNL     1       3.739   4.313  -9.123  0.00  0.00    -0.216 NA
BRANCH  10  12
ATOM     11  C   UNL     1       5.452   5.623  -9.250  0.00  0.00    +0.019 C 
ATOM     12  C   UNL     1       4.637   5.292  -8.641  0.00  0.00    +0.073 C 
ATOM     13  C   UNL     1       4.714   5.435  -7.155  0.00  0.00    +0.019 C 
ENDBRANCH  10  12
ENDBRANCH   9  10
ENDBRANCH   7   9
ENDBRANCH   1   7
BRANCH   4  14
ATOM     14  N   UNL     1      -1.830   6.421  -4.404  0.00  0.00    -0.101 NA
BRANCH  14  15
ATOM     15  S   UNL     1      -1.962   5.734  -2.843  0.00  0.00    +0.075 S 
ATOM     16  O   UNL     1      -2.965   4.612  -2.879  0.00  0.00    -0.153 OA
ATOM     17  O   UNL     1      -0.632   5.091  -2.524  0.00  0.00    -0.153 OA
ATOM     18  C   UNL     1      -2.420   6.907  -1.604  0.00  0.00    +0.202 C 
ENDBRANCH  14  15
ENDBRANCH   4  14
TORSDOF 6
ENDMDL
MODEL 3
REMARK VINA RESULT:      -6.3      5.190      8.754
REMARK  Name = 
REMARK  6 active torsions:
REMARK  status: ('A' for Active; 'I' for Inactive)
REMARK    1  A    between atoms: C_2  and  N_4
REMARK    2  A    between atoms: N_4  and  C_5
REMARK    3  A    between atoms: C_5  and  C_6
REMARK    4  A    between atoms: C_6  and  C_8
REMARK    5  A    between atoms: C_11  and  N_12
REMARK    6  A    between atoms: N_12  and  S_13
REMARK                            x       y       z     vdW  Elec       q    Type
REMARK                         _______ _______ _______ _____ _____    ______ ____
ROOT
ATOM      1  C   UNL     1       0.903   5.749  -7.492  0.00  0.00    +0.009 A 
ATOM      2  C   UNL     1      -0.399   5.515  -7.735  0.00  0.00    -0.000 A 
ATOM      3  C   UNL     1      -1.138   5.249  -6.585  0.00  0.00    +0.018 A 
ATOM      4  C   UNL     1      -0.845   5.959  -5.436  0.00  0.00    +0.091 A 
ATOM      5  C   UNL     1       0.180   6.894  -5.516  0.00  0.00    +0.018 A 
ATOM      6  C   UNL     1       1.169   6.651  -6.461  0.00  0.00    -0.000 A 
ENDROOT
BRANCH   1   7
ATOM      7  C   UNL     1       1.899   6.027  -8.779  0.00  0.00    +0.192 C 
ATOM      8  O   UNL     1       1.774   7.577  -8.729  0.00  0.00    -0.217 OA
BRANCH   7   9
ATOM      9  C   UNL     1       0.622   5.897  -9.877  0.00  0.00    +0.126 C 
BRANCH   9  10
ATOM     10  N   UNL     1       1.223   6.161 -11.145  0.00  0.00    -0.216 NA
BRANCH  10  12
ATOM     11  C   UNL     1       0.863   7.103 -13.054  0.00  0.00    +0.019 C 
ATOM     12  C   UNL     1       0.446   6.850 -12.103  0.00  0.00    +0.073 C 
ATOM     13  C   UNL     1      -0.713   7.628 -11.568  0.00  0.00    +0.019 C 
ENDBRANCH  10  12
ENDBRANCH   9  10
ENDBRANCH   7   9
ENDBRANCH   1   7
BRANCH   4  14
ATOM     14  N   UNL     1      -1.928   6.182  -4.537  0.00  0.00    -0.101 NA
BRANCH  14  15
ATOM     15  S   UNL     1      -1.874   5.763  -2.879  0.00  0.00    +0.075 S 
ATOM     16  O   UNL     1      -2.950   4.750  -2.590  0.00  0.00    -0.153 OA
ATOM     17  O   UNL     1      -0.561   5.054  -2.640  0.00  0.00    -0.153 OA
ATOM     18  C   UNL     1      -2.056   7.154  -1.805  0.00  0.00    +0.202 C 
ENDBRANCH  14  15
ENDBRANCH   4  14
TORSDOF 6
ENDMDL
MODEL 4
REMARK VINA RESULT:      -6.3      2.322      3.360
REMARK  Name = 
REMARK  6 active torsions:
REMARK  status: ('A' for Active; 'I' for Inactive)
REMARK    1  A    between atoms: C_2  and  N_4
REMARK    2  A    between atoms: N_4  and  C_5
REMARK    3  A    between atoms: C_5  and  C_6
REMARK    4  A    between atoms: C_6  and  C_8
REMARK    5  A    between atoms: C_11  and  N_12
REMARK    6  A    between atoms: N_12  and  S_13
REMARK                            x       y       z     vdW  Elec       q    Type
REMARK                         _______ _______ _______ _____ _____    ______ ____
ROOT
ATOM      1  C   UNL     1       4.568   5.976  -8.767  0.00  0.00    +0.009 A 
ATOM      2  C   UNL     1       3.926   6.237  -9.920  0.00  0.00    -0.000 A 
ATOM      3  C   UNL     1       4.695   6.955 -10.832  0.00  0.00    +0.018 A 
ATOM      4  C   UNL     1       6.043   6.662 -10.931  0.00  0.00    +0.091 A 
ATOM      5  C   UNL     1       6.533   5.662 -10.100  0.00  0.00    +0.018 A 
ATOM      6  C   UNL     1       5.859   5.466  -8.901  0.00  0.00    -0.000 A 
ENDROOT
BRANCH   1   7
ATOM      7  C   UNL     1       3.746   5.174  -7.581  0.00  0.00    +0.192 C 
ATOM      8  O   UNL     1       3.243   4.026  -8.502  0.00  0.00    -0.217 OA
BRANCH   7   9
ATOM      9  C   UNL     1       2.347   6.084  -7.847  0.00  0.00    +0.126 C 
BRANCH   9  10
ATOM     10  N   UNL     1       1.309   5.312  -7.243  0.00  0.00    -0.216 NA
BRANCH  10  12
ATOM     11  C   UNL     1      -0.046   5.596  -8.901  0.00  0.00    +0.019 C 
ATOM     12  C   UNL     1       0.044   5.316  -7.873  0.00  0.00    +0.073 C 
ATOM     13  C   UNL     1      -1.138   5.431  -6.965  0.00  0.00    +0.019 C 
ENDBRANCH  10  12
ENDBRANCH   9  10
ENDBRANCH   7   9
ENDBRANCH   1   7
BRANCH   4  14
ATOM     14  N   UNL     1       6.644   6.870 -12.207  0.00  0.00    -0.101 NA
BRANCH  14  15
ATOM     15  S   UNL     1       6.700   5.672 -13.425  0.00  0.00    +0.075 S 
ATOM     16  O   UNL     1       7.847   4.737 -13.147  0.00  0.00    -0.153 OA
ATOM     17  O   UNL     1       5.446   4.839 -13.293  0.00  0.00    -0.153 OA
ATOM     18  C   UNL     1       6.855   6.342 -15.052  0.00  0.00    +0.202 C 
ENDBRANCH  14  15
ENDBRANCH   4  14
TORSDOF 6
ENDMDL
MODEL 5
REMARK VINA RESULT:      -6.3      1.705      2.344
REMARK  Name = 
REMARK  6 active torsions:
REMARK  status: ('A' for Active; 'I' for Inactive)
REMARK    1  A    between atoms: C_2  and  N_4
REMARK    2  A    between atoms: N_4  and  C_5
REMARK    3  A    between atoms: C_5  and  C_6
REMARK    4  A    between atoms: C_6  and  C_8
REMARK    5  A    between atoms: C_11  and  N_12
REMARK    6  A    between atoms: N_12  and  S_13
REMARK                            x       y       z     vdW  Elec       q    Type
REMARK                         _______ _______ _______ _____ _____    ______ ____
ROOT
ATOM      1  C   UNL     1       4.271   5.316  -9.064  0.00  0.00    +0.009 A 
ATOM      2  C   UNL     1       4.202   5.422 -10.404  0.00  0.00    -0.000 A 
ATOM      3  C   UNL     1       5.077   6.368 -10.930  0.00  0.00    +0.018 A 
ATOM      4  C   UNL     1       6.334   6.486 -10.367  0.00  0.00    +0.091 A 
ATOM      5  C   UNL     1       6.631   5.643  -9.304  0.00  0.00    +0.018 A 
ATOM      6  C   UNL     1       5.557   5.211  -8.536  0.00  0.00    -0.000 A 
ENDROOT
BRANCH   1   7
ATOM      7  C   UNL     1       3.245   4.264  -8.311  0.00  0.00    +0.192 C 
ATOM      8  O   UNL     1       2.113   4.378  -9.372  0.00  0.00    -0.217 OA
BRANCH   7   9
ATOM      9  C   UNL     1       2.571   5.494  -7.369  0.00  0.00    +0.126 C 
BRANCH   9  10
ATOM     10  N   UNL     1       2.715   5.025  -6.029  0.00  0.00    -0.216 NA
BRANCH  10  12
ATOM     11  C   UNL     1       4.293   4.794  -4.573  0.00  0.00    +0.019 C 
ATOM     12  C   UNL     1       3.865   5.433  -5.316  0.00  0.00    +0.073 C 
ATOM     13  C   UNL     1       4.115   6.906  -5.265  0.00  0.00    +0.019 C 
ENDBRANCH  10  12
ENDBRANCH   9  10
ENDBRANCH   7   9
ENDBRANCH   1   7
BRANCH   4  14
ATOM     14  N   UNL     1       7.380   6.910 -11.239  0.00  0.00    -0.101 NA
BRANCH  14  15
ATOM     15  S   UNL     1       7.944   5.974 -12.555  0.00  0.00    +0.075 S 
ATOM     16  O   UNL     1       9.444   6.079 -12.629  0.00  0.00    -0.153 OA
ATOM     17  O   UNL     1       7.644   4.528 -12.235  0.00  0.00    -0.153 OA
ATOM     18  C   UNL     1       7.232   6.449 -14.100  0.00  0.00    +0.202 C 
ENDBRANCH  14  15
ENDBRANCH   4  14
TORSDOF 6
ENDMDL
MODEL 6
REMARK VINA RESULT:      -6.2      5.113      8.120
REMARK  Name = 
REMARK  6 active torsions:
REMARK  status: ('A' for Active; 'I' for Inactive)
REMARK    1  A    between atoms: C_2  and  N_4
REMARK    2  A    between atoms: N_4  and  C_5
REMARK    3  A    between atoms: C_5  and  C_6
REMARK    4  A    between atoms: C_6  and  C_8
REMARK    5  A    between atoms: C_11  and  N_12
REMARK    6  A    between atoms: N_12  and  S_13
REMARK                            x       y       z     vdW  Elec       q    Type
REMARK                         _______ _______ _______ _____ _____    ______ ____
ROOT
ATOM      1  C   UNL     1       0.669   5.793  -6.904  0.00  0.00    +0.009 A 
ATOM      2  C   UNL     1      -0.579   5.526  -7.329  0.00  0.00    -0.000 A 
ATOM      3  C   UNL     1      -1.501   5.392  -6.293  0.00  0.00    +0.018 A 
ATOM      4  C   UNL     1      -1.389   6.233  -5.201  0.00  0.00    +0.091 A 
ATOM      5  C   UNL     1      -0.352   7.156  -5.220  0.00  0.00    +0.018 A 
ATOM      6  C   UNL     1       0.775   6.810  -5.955  0.00  0.00    -0.000 A 
ENDROOT
BRANCH   1   7
ATOM      7  C   UNL     1       1.866   5.924  -8.033  0.00  0.00    +0.192 C 
ATOM      8  O   UNL     1       2.521   4.550  -7.712  0.00  0.00    -0.217 OA
BRANCH   7   9
ATOM      9  C   UNL     1       2.885   6.731  -6.954  0.00  0.00    +0.126 C 
BRANCH   9  10
ATOM     10  N   UNL     1       3.841   5.743  -6.570  0.00  0.00    -0.216 NA
BRANCH  10  12
ATOM     11  C   UNL     1       4.581   5.046  -4.665  0.00  0.00    +0.019 C 
ATOM     12  C   UNL     1       4.460   5.891  -5.308  0.00  0.00    +0.073 C 
ATOM     13  C   UNL     1       4.446   7.270  -4.731  0.00  0.00    +0.019 C 
ENDBRANCH  10  12
ENDBRANCH   9  10
ENDBRANCH   7   9
ENDBRANCH   1   7
BRANCH   4  14
ATOM     14  N   UNL     1      -2.602   6.553  -4.524  0.00  0.00    -0.101 NA
BRANCH  14  15
ATOM     15  S   UNL     1      -2.874   6.206  -2.871  0.00  0.00    +0.075 S 
ATOM     16  O   UNL     1      -4.295   6.560  -2.520  0.00  0.00    -0.153 OA
ATOM     17  O   UNL     1      -2.768   4.708  -2.706  0.00  0.00    -0.153 OA
ATOM     18  C   UNL     1      -1.761   7.051  -1.792  0.00  0.00    +0.202 C 
ENDBRANCH  14  15
ENDBRANCH   4  14
TORSDOF 6
ENDMDL
MODEL 7
REMARK VINA RESULT:      -6.2      1.803      2.599
REMARK  Name = 
REMARK  6 active torsions:
REMARK  status: ('A' for Active; 'I' for Inactive)
REMARK    1  A    between atoms: C_2  and  N_4
REMARK    2  A    between atoms: N_4  and  C_5
REMARK    3  A    between atoms: C_5  and  C_6
REMARK    4  A    between atoms: C_6  and  C_8
REMARK    5  A    between atoms: C_11  and  N_12
REMARK    6  A    between atoms: N_12  and  S_13
REMARK                            x       y       z     vdW  Elec       q    Type
REMARK                         _______ _______ _______ _____ _____    ______ ____
ROOT
ATOM      1  C   UNL     1       3.276   6.242  -8.177  0.00  0.00    +0.009 A 
ATOM      2  C   UNL     1       4.457   5.824  -7.687  0.00  0.00    -0.000 A 
ATOM      3  C   UNL     1       5.266   5.210  -8.640  0.00  0.00    +0.018 A 
ATOM      4  C   UNL     1       5.278   5.725  -9.923  0.00  0.00    +0.091 A 
ATOM      5  C   UNL     1       4.472   6.829 -10.167  0.00  0.00    +0.018 A 
ATOM      6  C   UNL     1       3.341   6.960  -9.371  0.00  0.00    -0.000 A 
ENDROOT
BRANCH   1   7
ATOM      7  C   UNL     1       2.204   6.942  -7.134  0.00  0.00    +0.192 C 
ATOM      8  O   UNL     1       3.281   7.431  -6.124  0.00  0.00    -0.217 OA
BRANCH   7   9
ATOM      9  C   UNL     1       1.980   5.495  -6.291  0.00  0.00    +0.126 C 
BRANCH   9  10
ATOM     10  N   UNL     1       0.800   4.935  -6.866  0.00  0.00    -0.216 NA
BRANCH  10  12
ATOM     11  C   UNL     1      -1.296   5.451  -6.824  0.00  0.00    +0.019 C 
ATOM     12  C   UNL     1      -0.432   5.226  -6.237  0.00  0.00    +0.073 C 
ATOM     13  C   UNL     1      -0.347   5.703  -4.823  0.00  0.00    +0.019 C 
ENDBRANCH  10  12
ENDBRANCH   9  10
ENDBRANCH   7   9
ENDBRANCH   1   7
BRANCH   4  14
ATOM     14  N   UNL     1       6.490   5.566 -10.656  0.00  0.00    -0.101 NA
BRANCH  14  15
ATOM     15  S   UNL     1       6.551   5.479 -12.363  0.00  0.00    +0.075 S 
ATOM     16  O   UNL     1       7.710   4.610 -12.773  0.00  0.00    -0.153 OA
ATOM     17  O   UNL     1       5.307   4.752 -12.818  0.00  0.00    -0.153 OA
ATOM     18  C   UNL     1       6.687   7.062 -13.135  0.00  0.00    +0.202 C 
ENDBRANCH  14  15
ENDBRANCH   4  14
TORSDOF 6
ENDMDL
MODEL 8
REMARK VINA RESULT:      -6.2      4.916      6.353
REMARK  Name = 
REMARK  6 active torsions:
REMARK  status: ('A' for Active; 'I' for Inactive)
REMARK    1  A    between atoms: C_2  and  N_4
REMARK    2  A    between atoms: N_4  and  C_5
REMARK    3  A    between atoms: C_5  and  C_6
REMARK    4  A    between atoms: C_6  and  C_8
REMARK    5  A    between atoms: C_11  and  N_12
REMARK    6  A    between atoms: N_12  and  S_13
REMARK                            x       y       z     vdW  Elec       q    Type
REMARK                         _______ _______ _______ _____ _____    ______ ____
ROOT
ATOM      1  C   UNL     1      -1.810   6.416  -5.402  0.00  0.00    +0.009 A 
ATOM      2  C   UNL     1      -1.833   5.285  -6.131  0.00  0.00    -0.000 A 
ATOM      3  C   UNL     1      -1.026   5.341  -7.265  0.00  0.00    +0.018 A 
ATOM      4  C   UNL     1       0.190   5.992  -7.176  0.00  0.00    +0.091 A 
ATOM      5  C   UNL     1       0.518   6.550  -5.947  0.00  0.00    +0.018 A 
ATOM      6  C   UNL     1      -0.543   6.934  -5.136  0.00  0.00    -0.000 A 
ENDROOT
BRANCH   1   7
ATOM      7  C   UNL     1      -2.766   6.496  -4.058  0.00  0.00    +0.192 C 
ATOM      8  O   UNL     1      -2.017   7.700  -3.418  0.00  0.00    -0.217 OA
BRANCH   7   9
ATOM      9  C   UNL     1      -1.807   5.379  -3.231  0.00  0.00    +0.126 C 
BRANCH   9  10
ATOM     10  N   UNL     1      -2.349   5.363  -1.910  0.00  0.00    -0.216 NA
BRANCH  10  12
ATOM     11  C   UNL     1      -1.838   6.415  -0.094  0.00  0.00    +0.019 C 
ATOM     12  C   UNL     1      -1.494   5.742  -0.851  0.00  0.00    +0.073 C 
ATOM     13  C   UNL     1      -0.028   5.603  -1.111  0.00  0.00    +0.019 C 
ENDBRANCH  10  12
ENDBRANCH   9  10
ENDBRANCH   7   9
ENDBRANCH   1   7
BRANCH   4  14
ATOM     14  N   UNL     1       1.228   5.512  -8.027  0.00  0.00    -0.101 NA
BRANCH  14  15
ATOM     15  S   UNL     1       2.491   4.494  -7.486  0.00  0.00    +0.075 S 
ATOM     16  O   UNL     1       1.956   3.558  -6.435  0.00  0.00    -0.153 OA
ATOM     17  O   UNL     1       2.893   3.621  -8.653  0.00  0.00    -0.153 OA
ATOM     18  C   UNL     1       3.875   5.385  -6.847  0.00  0.00    +0.202 C 
ENDBRANCH  14  15
ENDBRANCH   4  14
TORSDOF 6
ENDMDL
MODEL 9
REMARK VINA RESULT:      -6.0      2.730      4.454
REMARK  Name = 
REMARK  6 active torsions:
REMARK  status: ('A' for Active; 'I' for Inactive)
REMARK    1  A    between atoms: C_2  and  N_4
REMARK    2  A    between atoms: N_4  and  C_5
REMARK    3  A    between atoms: C_5  and  C_6
REMARK    4  A    between atoms: C_6  and  C_8
REMARK    5  A    between atoms: C_11  and  N_12
REMARK    6  A    between atoms: N_12  and  S_13
REMARK                            x       y       z     vdW  Elec       q    Type
REMARK                         _______ _______ _______ _____ _____    ______ ____
ROOT
ATOM      1  C   UNL     1       3.610   5.651  -8.932  0.00  0.00    +0.009 A 
ATOM      2  C   UNL     1       3.804   5.174 -10.175  0.00  0.00    -0.000 A 
ATOM      3  C   UNL     1       5.008   5.580 -10.742  0.00  0.00    +0.018 A 
ATOM      4  C   UNL     1       6.125   5.656  -9.931  0.00  0.00    +0.091 A 
ATOM      5  C   UNL     1       5.958   5.320  -8.594  0.00  0.00    +0.018 A 
ATOM      6  C   UNL     1       4.689   5.511  -8.060  0.00  0.00    -0.000 A 
ENDROOT
BRANCH   1   7
ATOM      7  C   UNL     1       2.193   5.284  -8.168  0.00  0.00    +0.192 C 
ATOM      8  O   UNL     1       2.626   3.852  -7.738  0.00  0.00    -0.217 OA
BRANCH   7   9
ATOM      9  C   UNL     1       1.496   4.712  -9.597  0.00  0.00    +0.126 C 
BRANCH   9  10
ATOM     10  N   UNL     1       0.373   5.567  -9.804  0.00  0.00    -0.216 NA
BRANCH  10  12
ATOM     11  C   UNL     1       0.371   5.263 -11.942  0.00  0.00    +0.019 C 
ATOM     12  C   UNL     1       0.029   5.880 -11.138  0.00  0.00    +0.073 C 
ATOM     13  C   UNL     1      -0.346   7.303 -11.401  0.00  0.00    +0.019 C 
ENDBRANCH  10  12
ENDBRANCH   9  10
ENDBRANCH   7   9
ENDBRANCH   1   7
BRANCH   4  14
ATOM     14  N   UNL     1       7.382   5.420 -10.561  0.00  0.00    -0.101 NA
BRANCH  14  15
ATOM     15  S   UNL     1       7.708   5.831 -12.189  0.00  0.00    +0.075 S 
ATOM     16  O   UNL     1       9.184   6.083 -12.349  0.00  0.00    -0.153 OA
ATOM     17  O   UNL     1       7.402   4.612 -13.029  0.00  0.00    -0.153 OA
ATOM     18  C   UNL     1       6.796   7.237 -12.746  0.00  0.00    +0.202 C 
ENDBRANCH  14  15
ENDBRANCH   4  14
TORSDOF 6
ENDMDL
