MODEL 1
REMARK VINA RESULT:      -7.5      0.000      0.000
REMARK  Name = 
REMARK  2 active torsions:
REMARK  status: ('A' for Active; 'I' for Inactive)
REMARK    1  A    between atoms: C_5  and  S_6
REMARK    2  A    between atoms: S_6  and  C_9
REMARK                            x       y       z     vdW  Elec       q    Type
REMARK                         _______ _______ _______ _____ _____    ______ ____
ROOT
ATOM      1  S   UNL     1       2.560   7.204  -7.241  0.00  0.00    +0.027 S 
ATOM      2  O   UNL     1       3.320   7.533  -5.976  0.00  0.00    -0.164 OA
ATOM      3  O   UNL     1       2.195   8.528  -7.865  0.00  0.00    -0.164 OA
ENDROOT
BRANCH   1   8
ATOM      4  N   UNL     1       7.329   6.109  -9.882  0.00  0.00    -0.128 NA
ATOM      5  C   UNL     1       5.973   5.791  -9.634  0.00  0.00    +0.089 A 
ATOM      6  C   UNL     1       5.606   5.031  -8.530  0.00  0.00    +0.019 A 
ATOM      7  C   UNL     1       4.443   5.331  -7.830  0.00  0.00    +0.020 A 
ATOM      8  C   UNL     1       3.513   6.234  -8.331  0.00  0.00    +0.110 A 
ATOM      9  C   UNL     1       3.689   6.556  -9.672  0.00  0.00    +0.020 A 
ATOM     10  C   UNL     1       4.914   6.386 -10.309  0.00  0.00    +0.019 A 
ENDBRANCH   1   8
BRANCH   1  11
ATOM     11  C   UNL     1       1.107   6.364  -6.720  0.00  0.00    +0.110 A 
ATOM     12  C   UNL     1       0.457   5.492  -7.547  0.00  0.00    +0.020 A 
ATOM     13  C   UNL     1      -0.902   5.320  -7.430  0.00  0.00    +0.019 A 
ATOM     14  C   UNL     1      -1.550   5.731  -6.287  0.00  0.00    +0.089 A 
ATOM     15  N   UNL     1      -2.822   5.189  -5.954  0.00  0.00    -0.128 NA
ATOM     16  C   UNL     1      -0.838   6.482  -5.367  0.00  0.00    +0.019 A 
ATOM     17  C   UNL     1       0.476   6.849  -5.592  0.00  0.00    +0.020 A 
ENDBRANCH   1  11
TORSDOF 2
ENDMDL
MODEL 2
REMARK VINA RESULT:      -7.4      0.721      6.402
REMARK  Name = 
REMARK  2 active torsions:
REMARK  status: ('A' for Active; 'I' for Inactive)
REMARK    1  A    between atoms: C_5  and  S_6
REMARK    2  A    between atoms: S_6  and  C_9
REMARK                            x       y       z     vdW  Elec       q    Type
REMARK                         _______ _______ _______ _____ _____    ______ ____
ROOT
ATOM      1  S   UNL     1       2.675   7.013  -7.245  0.00  0.00    +0.027 S 
ATOM      2  O   UNL     1       2.129   8.280  -7.862  0.00  0.00    -0.164 OA
ATOM      3  O   UNL     1       3.464   7.446  -6.034  0.00  0.00    -0.164 OA
ENDROOT
BRANCH   1   8
ATOM      4  N   UNL     1      -2.500   6.006  -5.478  0.00  0.00    -0.128 NA
ATOM      5  C   UNL     1      -1.235   5.520  -5.881  0.00  0.00    +0.089 A 
ATOM      6  C   UNL     1      -0.923   5.364  -7.227  0.00  0.00    +0.019 A 
ATOM      7  C   UNL     1       0.354   5.665  -7.688  0.00  0.00    +0.020 A 
ATOM      8  C   UNL     1       1.399   5.909  -6.806  0.00  0.00    +0.110 A 
ATOM      9  C   UNL     1       1.142   5.536  -5.491  0.00  0.00    +0.020 A 
ATOM     10  C   UNL     1      -0.156   5.390  -5.015  0.00  0.00    +0.019 A 
ENDBRANCH   1   8
BRANCH   1  11
ATOM     11  C   UNL     1       3.752   6.321  -8.449  0.00  0.00    +0.110 A 
ATOM     12  C   UNL     1       4.756   5.465  -8.093  0.00  0.00    +0.020 A 
ATOM     13  C   UNL     1       5.908   5.411  -8.842  0.00  0.00    +0.019 A 
ATOM     14  C   UNL     1       5.922   5.928 -10.118  0.00  0.00    +0.089 A 
ATOM     15  N   UNL     1       6.913   5.509 -11.047  0.00  0.00    -0.128 NA
ATOM     16  C   UNL     1       4.825   6.664 -10.536  0.00  0.00    +0.019 A 
ATOM     17  C   UNL     1       3.755   6.910  -9.696  0.00  0.00    +0.020 A 
ENDBRANCH   1  11
TORSDOF 2
ENDMDL
MODEL 3
REMARK VINA RESULT:      -7.0      2.952      3.871
REMARK  Name = 
REMARK  2 active torsions:
REMARK  status: ('A' for Active; 'I' for Inactive)
REMARK    1  A    between atoms: C_5  and  S_6
REMARK    2  A    between atoms: S_6  and  C_9
REMARK                            x       y       z     vdW  Elec       q    Type
REMARK                         _______ _______ _______ _____ _____    ______ ____
ROOT
ATOM      1  S   UNL     1       3.879   5.467  -9.110  0.00  0.00    +0.027 S 
ATOM      2  O   UNL     1       2.614   5.817  -9.859  0.00  0.00    -0.164 OA
ATOM      3  O   UNL     1       3.899   3.962  -9.003  0.00  0.00    -0.164 OA
ENDROOT
BRANCH   1   8
ATOM      4  N   UNL     1       7.985   4.839 -12.806  0.00  0.00    -0.128 NA
ATOM      5  C   UNL     1       7.349   5.620 -11.814  0.00  0.00    +0.089 A 
ATOM      6  C   UNL     1       6.259   6.424 -12.124  0.00  0.00    +0.019 A 
ATOM      7  C   UNL     1       5.202   6.545 -11.229  0.00  0.00    +0.020 A 
ATOM      8  C   UNL     1       5.299   6.060  -9.930  0.00  0.00    +0.110 A 
ATOM      9  C   UNL     1       6.592   5.741  -9.530  0.00  0.00    +0.020 A 
ATOM     10  C   UNL     1       7.597   5.475 -10.454  0.00  0.00    +0.019 A 
ENDBRANCH   1   8
BRANCH   1  11
ATOM     11  C   UNL     1       3.703   6.180  -7.513  0.00  0.00    +0.110 A 
ATOM     12  C   UNL     1       4.519   5.816  -6.479  0.00  0.00    +0.020 A 
ATOM     13  C   UNL     1       4.051   5.864  -5.187  0.00  0.00    +0.019 A 
ATOM     14  C   UNL     1       2.924   6.597  -4.893  0.00  0.00    +0.089 A 
ATOM     15  N   UNL     1       2.677   7.021  -3.558  0.00  0.00    -0.128 NA
ATOM     16  C   UNL     1       2.182   7.107  -5.946  0.00  0.00    +0.019 A 
ATOM     17  C   UNL     1       2.531   6.865  -7.261  0.00  0.00    +0.020 A 
ENDBRANCH   1  11
TORSDOF 2
ENDMDL
MODEL 4
REMARK VINA RESULT:      -6.9      3.410      3.794
REMARK  Name = 
REMARK  2 active torsions:
REMARK  status: ('A' for Active; 'I' for Inactive)
REMARK    1  A    between atoms: C_5  and  S_6
REMARK    2  A    between atoms: S_6  and  C_9
REMARK                            x       y       z     vdW  Elec       q    Type
REMARK                         _______ _______ _______ _____ _____    ______ ____
ROOT
ATOM      1  S   UNL     1       1.291   5.695  -8.331  0.00  0.00    +0.027 S 
ATOM      2  O   UNL     1       2.072   4.413  -8.152  0.00  0.00    -0.164 OA
ATOM      3  O   UNL     1       2.299   6.813  -8.234  0.00  0.00    -0.164 OA
ENDROOT
BRANCH   1   8
ATOM      4  N   UNL     1       1.303   5.860 -13.888  0.00  0.00    -0.128 NA
ATOM      5  C   UNL     1       0.581   5.841 -12.672  0.00  0.00    +0.089 A 
ATOM      6  C   UNL     1       0.312   4.645 -12.018  0.00  0.00    +0.019 A 
ATOM      7  C   UNL     1       0.359   4.580 -10.630  0.00  0.00    +0.020 A 
ATOM      8  C   UNL     1       0.453   5.732  -9.858  0.00  0.00    +0.110 A 
ATOM      9  C   UNL     1       0.192   6.910 -10.549  0.00  0.00    +0.020 A 
ATOM     10  C   UNL     1       0.301   6.984 -11.933  0.00  0.00    +0.019 A 
ENDBRANCH   1   8
BRANCH   1  11
ATOM     11  C   UNL     1       0.178   5.770  -6.972  0.00  0.00    +0.110 A 
ATOM     12  C   UNL     1      -1.080   5.244  -7.057  0.00  0.00    +0.020 A 
ATOM     13  C   UNL     1      -2.103   5.792  -6.320  0.00  0.00    +0.019 A 
ATOM     14  C   UNL     1      -1.816   6.613  -5.253  0.00  0.00    +0.089 A 
ATOM     15  N   UNL     1      -2.787   6.828  -4.237  0.00  0.00    -0.128 NA
ATOM     16  C   UNL     1      -0.503   7.016  -5.073  0.00  0.00    +0.019 A 
ATOM     17  C   UNL     1       0.496   6.643  -5.952  0.00  0.00    +0.020 A 
ENDBRANCH   1  11
TORSDOF 2
ENDMDL
MODEL 5
REMARK VINA RESULT:      -6.9      2.755      6.801
REMARK  Name = 
REMARK  2 active torsions:
REMARK  status: ('A' for Active; 'I' for Inactive)
REMARK    1  A    between atoms: C_5  and  S_6
REMARK    2  A    between atoms: S_6  and  C_9
REMARK                            x       y       z     vdW  Elec       q    Type
REMARK                         _______ _______ _______ _____ _____    ______ ____
ROOT
ATOM      1  S   UNL     1       3.806   5.269  -9.489  0.00  0.00    +0.027 S 
ATOM      2  O   UNL     1       3.955   3.823  -9.076  0.00  0.00    -0.164 OA
ATOM      3  O   UNL     1       2.659   5.307 -10.469  0.00  0.00    -0.164 OA
ENDROOT
BRANCH   1   8
ATOM      4  N   UNL     1       1.026   6.478  -4.828  0.00  0.00    -0.128 NA
ATOM      5  C   UNL     1       2.009   6.825  -5.784  0.00  0.00    +0.089 A 
ATOM      6  C   UNL     1       3.298   6.311  -5.705  0.00  0.00    +0.019 A 
ATOM      7  C   UNL     1       3.981   5.955  -6.862  0.00  0.00    +0.020 A 
ATOM      8  C   UNL     1       3.500   6.302  -8.119  0.00  0.00    +0.110 A 
ATOM      9  C   UNL     1       2.491   7.259  -8.104  0.00  0.00    +0.020 A 
ATOM     10  C   UNL     1       1.718   7.488  -6.970  0.00  0.00    +0.019 A 
ENDBRANCH   1   8
BRANCH   1  11
ATOM     11  C   UNL     1       5.305   5.691 -10.303  0.00  0.00    +0.110 A 
ATOM     12  C   UNL     1       5.416   5.628 -11.664  0.00  0.00    +0.020 A 
ATOM     13  C   UNL     1       6.633   5.355 -12.240  0.00  0.00    +0.019 A 
ATOM     14  C   UNL     1       7.788   5.497 -11.504  0.00  0.00    +0.089 A 
ATOM     15  N   UNL     1       9.039   5.652 -12.162  0.00  0.00    -0.128 NA
ATOM     16  C   UNL     1       7.672   5.724 -10.143  0.00  0.00    +0.019 A 
ATOM     17  C   UNL     1       6.439   5.775  -9.520  0.00  0.00    +0.020 A 
ENDBRANCH   1  11
TORSDOF 2
ENDMDL
MODEL 6
REMARK VINA RESULT:      -6.9      3.465      6.171
REMARK  Name = 
REMARK  2 active torsions:
REMARK  status: ('A' for Active; 'I' for Inactive)
REMARK    1  A    between atoms: C_5  and  S_6
REMARK    2  A    between atoms: S_6  and  C_9
REMARK                            x       y       z     vdW  Elec       q    Type
REMARK                         _______ _______ _______ _____ _____    ______ ____
ROOT
ATOM      1  S   UNL     1       3.272   6.356  -6.954  0.00  0.00    +0.027 S 
ATOM      2  O   UNL     1       2.139   5.355  -6.947  0.00  0.00    -0.164 OA
ATOM      3  O   UNL     1       2.627   7.715  -7.072  0.00  0.00    -0.164 OA
ENDROOT
BRANCH   1   8
ATOM      4  N   UNL     1       3.786   6.395  -1.418  0.00  0.00    -0.128 NA
ATOM      5  C   UNL     1       4.385   6.303  -2.696  0.00  0.00    +0.089 A 
ATOM      6  C   UNL     1       4.424   5.096  -3.384  0.00  0.00    +0.019 A 
ATOM      7  C   UNL     1       4.242   5.071  -4.762  0.00  0.00    +0.020 A 
ATOM      8  C   UNL     1       4.242   6.241  -5.510  0.00  0.00    +0.110 A 
ATOM      9  C   UNL     1       4.728   7.356  -4.836  0.00  0.00    +0.020 A 
ATOM     10  C   UNL     1       4.756   7.412  -3.446  0.00  0.00    +0.019 A 
ENDBRANCH   1   8
BRANCH   1  11
ATOM     11  C   UNL     1       4.208   6.009  -8.400  0.00  0.00    +0.110 A 
ATOM     12  C   UNL     1       5.377   5.302  -8.336  0.00  0.00    +0.020 A 
ATOM     13  C   UNL     1       6.371   5.537  -9.256  0.00  0.00    +0.019 A 
ATOM     14  C   UNL     1       6.079   6.197 -10.428  0.00  0.00    +0.089 A 
ATOM     15  N   UNL     1       6.939   6.069 -11.552  0.00  0.00    -0.128 NA
ATOM     16  C   UNL     1       4.828   6.777 -10.557  0.00  0.00    +0.019 A 
ATOM     17  C   UNL     1       3.900   6.734  -9.533  0.00  0.00    +0.020 A 
ENDBRANCH   1  11
TORSDOF 2
ENDMDL
MODEL 7
REMARK VINA RESULT:      -6.8      5.040      7.002
REMARK  Name = 
REMARK  2 active torsions:
REMARK  status: ('A' for Active; 'I' for Inactive)
REMARK    1  A    between atoms: C_5  and  S_6
REMARK    2  A    between atoms: S_6  and  C_9
REMARK                            x       y       z     vdW  Elec       q    Type
REMARK                         _______ _______ _______ _____ _____    ______ ____
ROOT
ATOM      1  S   UNL     1      -2.492   6.081  -2.865  0.00  0.00    +0.027 S 
ATOM      2  O   UNL     1      -3.808   6.753  -2.550  0.00  0.00    -0.164 OA
ATOM      3  O   UNL     1      -2.717   4.604  -2.656  0.00  0.00    -0.164 OA
ENDROOT
BRANCH   1   8
ATOM      4  N   UNL     1       0.805   5.070  -7.227  0.00  0.00    -0.128 NA
ATOM      5  C   UNL     1      -0.230   5.830  -6.633  0.00  0.00    +0.089 A 
ATOM      6  C   UNL     1      -1.545   5.380  -6.643  0.00  0.00    +0.019 A 
ATOM      7  C   UNL     1      -2.361   5.581  -5.536  0.00  0.00    +0.020 A 
ATOM      8  C   UNL     1      -1.971   6.415  -4.495  0.00  0.00    +0.110 A 
ATOM      9  C   UNL     1      -0.887   7.235  -4.790  0.00  0.00    +0.020 A 
ATOM     10  C   UNL     1       0.004   6.926  -5.812  0.00  0.00    +0.019 A 
ENDBRANCH   1   8
BRANCH   1  11
ATOM     11  C   UNL     1      -1.348   6.689  -1.677  0.00  0.00    +0.110 A 
ATOM     12  C   UNL     1      -0.122   6.109  -1.511  0.00  0.00    +0.020 A 
ATOM     13  C   UNL     1       0.489   6.140  -0.280  0.00  0.00    +0.019 A 
ATOM     14  C   UNL     1       0.063   7.034   0.676  0.00  0.00    +0.089 A 
ATOM     15  N   UNL     1       0.921   7.391   1.752  0.00  0.00    -0.128 NA
ATOM     16  C   UNL     1      -1.100   7.746   0.432  0.00  0.00    +0.019 A 
ATOM     17  C   UNL     1      -1.843   7.548  -0.717  0.00  0.00    +0.020 A 
ENDBRANCH   1  11
TORSDOF 2
ENDMDL
MODEL 8
REMARK VINA RESULT:      -6.8      1.575      6.417
REMARK  Name = 
REMARK  2 active torsions:
REMARK  status: ('A' for Active; 'I' for Inactive)
REMARK    1  A    between atoms: C_5  and  S_6
REMARK    2  A    between atoms: S_6  and  C_9
REMARK                            x       y       z     vdW  Elec       q    Type
REMARK                         _______ _______ _______ _____ _____    ______ ____
ROOT
ATOM      1  S   UNL     1       2.324   5.072  -6.456  0.00  0.00    +0.027 S 
ATOM      2  O   UNL     1       3.008   5.175  -5.112  0.00  0.00    -0.164 OA
ATOM      3  O   UNL     1       2.169   3.597  -6.732  0.00  0.00    -0.164 OA
ENDROOT
BRANCH   1   8
ATOM      4  N   UNL     1      -2.787   5.807  -4.393  0.00  0.00    -0.128 NA
ATOM      5  C   UNL     1      -1.797   6.147  -5.345  0.00  0.00    +0.089 A 
ATOM      6  C   UNL     1      -0.793   7.058  -5.039  0.00  0.00    +0.019 A 
ATOM      7  C   UNL     1       0.501   6.854  -5.506  0.00  0.00    +0.020 A 
ATOM      8  C   UNL     1       0.779   5.880  -6.457  0.00  0.00    +0.110 A 
ATOM      9  C   UNL     1      -0.342   5.365  -7.098  0.00  0.00    +0.020 A 
ATOM     10  C   UNL     1      -1.610   5.450  -6.532  0.00  0.00    +0.019 A 
ENDBRANCH   1   8
BRANCH   1  11
ATOM     11  C   UNL     1       3.436   5.787  -7.614  0.00  0.00    +0.110 A 
ATOM     12  C   UNL     1       2.995   6.640  -8.587  0.00  0.00    +0.020 A 
ATOM     13  C   UNL     1       3.658   6.710  -9.788  0.00  0.00    +0.019 A 
ATOM     14  C   UNL     1       4.938   6.214  -9.896  0.00  0.00    +0.089 A 
ATOM     15  N   UNL     1       5.787   6.651 -10.949  0.00  0.00    -0.128 NA
ATOM     16  C   UNL     1       5.446   5.482  -8.835  0.00  0.00    +0.019 A 
ATOM     17  C   UNL     1       4.689   5.219  -7.709  0.00  0.00    +0.020 A 
ENDBRANCH   1  11
TORSDOF 2
ENDMDL
MODEL 9
REMARK VINA RESULT:      -6.8      3.305      6.221
REMARK  Name = 
REMARK  2 active torsions:
REMARK  status: ('A' for Active; 'I' for Inactive)
REMARK    1  A    between atoms: C_5  and  S_6
REMARK    2  A    between atoms: S_6  and  C_9
REMARK                            x       y       z     vdW  Elec       q    Type
REMARK                         _______ _______ _______ _____ _____    ______ ____
ROOT
ATOM      1  S   UNL     1       2.114   5.185  -6.787  0.00  0.00    +0.027 S 
ATOM      2  O   UNL     1       2.041   3.677  -6.720  0.00  0.00    -0.164 OA
ATOM      3  O   UNL     1       2.722   5.514  -8.128  0.00  0.00    -0.164 OA
ENDROOT
BRANCH   1   8
ATOM      4  N   UNL     1      -2.820   5.568  -4.253  0.00  0.00    -0.128 NA
ATOM      5  C   UNL     1      -1.935   6.003  -5.268  0.00  0.00    +0.089 A 
ATOM      6  C   UNL     1      -0.949   6.945  -5.002  0.00  0.00    +0.019 A 
ATOM      7  C   UNL     1       0.306   6.827  -5.589  0.00  0.00    +0.020 A 
ATOM      8  C   UNL     1       0.541   5.916  -6.611  0.00  0.00    +0.110 A 
ATOM      9  C   UNL     1      -0.609   5.380  -7.180  0.00  0.00    +0.020 A 
ATOM     10  C   UNL     1      -1.824   5.375  -6.502  0.00  0.00    +0.019 A 
ENDBRANCH   1   8
BRANCH   1  11
ATOM     11  C   UNL     1       3.207   5.668  -5.498  0.00  0.00    +0.110 A 
ATOM     12  C   UNL     1       3.178   5.055  -4.277  0.00  0.00    +0.020 A 
ATOM     13  C   UNL     1       3.533   5.757  -3.149  0.00  0.00    +0.019 A 
ATOM     14  C   UNL     1       4.243   6.930  -3.266  0.00  0.00    +0.089 A 
ATOM     15  N   UNL     1       4.984   7.429  -2.160  0.00  0.00    -0.128 NA
ATOM     16  C   UNL     1       4.412   7.469  -4.531  0.00  0.00    +0.019 A 
ATOM     17  C   UNL     1       3.857   6.875  -5.651  0.00  0.00    +0.020 A 
ENDBRANCH   1  11
TORSDOF 2
ENDMDL
