MODEL 1
REMARK VINA RESULT:      -5.9      0.000      0.000
REMARK  Name = 
REMARK  5 active torsions:
REMARK  status: ('A' for Active; 'I' for Inactive)
REMARK    1  A    between atoms: C_2  and  C_3
REMARK    2  A    between atoms: C_3  and  C_4
REMARK    3  A    between atoms: C_4  and  C_5
REMARK    4  A    between atoms: C_5  and  C_6
REMARK    5  A    between atoms: C_6  and  C_7
REMARK                            x       y       z     vdW  Elec       q    Type
REMARK                         _______ _______ _______ _____ _____    ______ ____
ROOT
ATOM      1  C   UNL     1       3.585   6.428  -8.208  0.00  0.00    +0.017 A 
ATOM      2  C   UNL     1       2.738   7.209  -7.459  0.00  0.00    +0.195 A 
ATOM      3  O   UNL     1       2.088   8.324  -7.956  0.00  0.00    -0.287 OA
ATOM      4  C   UNL     1       2.760   7.021  -6.090  0.00  0.00    +0.084 A 
ATOM      5  C   UNL     1       3.539   6.047  -5.484  0.00  0.00    +0.199 A 
ATOM      6  O   UNL     1       3.624   5.996  -4.089  0.00  0.00    -0.286 OA
ATOM      7  C   UNL     1       4.588   5.559  -6.245  0.00  0.00    +0.042 A 
ATOM      8  C   UNL     1       4.418   5.487  -7.624  0.00  0.00    +0.002 A 
ENDROOT
BRANCH   1   9
ATOM      9  C   UNL     1       3.773   6.723  -9.638  0.00  0.00    +0.030 C 
BRANCH   9  10
ATOM     10  C   UNL     1       5.067   6.193 -10.193  0.00  0.00    +0.005 C 
BRANCH  10  11
ATOM     11  C   UNL     1       5.685   7.292 -11.050  0.00  0.00    +0.000 C 
BRANCH  11  12
ATOM     12  C   UNL     1       7.162   7.430 -10.778  0.00  0.00    +0.000 C 
BRANCH  12  14
ATOM     13  C   UNL     1       8.544   5.767 -12.045  0.00  0.00    +0.000 C 
ATOM     14  C   UNL     1       7.757   6.026 -10.770  0.00  0.00    +0.000 C 
ENDBRANCH  12  14
ENDBRANCH  11  12
ENDBRANCH  10  11
ENDBRANCH   9  10
ENDBRANCH   1   9
TORSDOF 5
ENDMDL
MODEL 2
REMARK VINA RESULT:      -5.9      5.810      8.512
REMARK  Name = 
REMARK  5 active torsions:
REMARK  status: ('A' for Active; 'I' for Inactive)
REMARK    1  A    between atoms: C_2  and  C_3
REMARK    2  A    between atoms: C_3  and  C_4
REMARK    3  A    between atoms: C_4  and  C_5
REMARK    4  A    between atoms: C_5  and  C_6
REMARK    5  A    between atoms: C_6  and  C_7
REMARK                            x       y       z     vdW  Elec       q    Type
REMARK                         _______ _______ _______ _____ _____    ______ ____
ROOT
ATOM      1  C   UNL     1      -1.001   6.874  -5.217  0.00  0.00    +0.017 A 
ATOM      2  C   UNL     1      -1.405   5.950  -6.151  0.00  0.00    +0.195 A 
ATOM      3  O   UNL     1      -2.715   5.813  -6.573  0.00  0.00    -0.287 OA
ATOM      4  C   UNL     1      -0.507   4.949  -6.469  0.00  0.00    +0.084 A 
ATOM      5  C   UNL     1       0.773   4.899  -5.938  0.00  0.00    +0.199 A 
ATOM      6  O   UNL     1       1.585   3.789  -6.191  0.00  0.00    -0.286 OA
ATOM      7  C   UNL     1       0.970   5.634  -4.781  0.00  0.00    +0.042 A 
ATOM      8  C   UNL     1       0.251   6.814  -4.625  0.00  0.00    +0.002 A 
ENDROOT
BRANCH   1   9
ATOM      9  C   UNL     1      -1.977   7.831  -4.671  0.00  0.00    +0.030 C 
BRANCH   9  10
ATOM     10  C   UNL     1      -2.139   7.736  -3.179  0.00  0.00    +0.005 C 
BRANCH  10  11
ATOM     11  C   UNL     1      -3.133   6.618  -2.892  0.00  0.00    +0.000 C 
BRANCH  11  12
ATOM     12  C   UNL     1      -2.453   5.432  -2.256  0.00  0.00    +0.000 C 
BRANCH  12  14
ATOM     13  C   UNL     1      -0.182   5.435  -1.196  0.00  0.00    +0.000 C 
ATOM     14  C   UNL     1      -1.607   5.958  -1.102  0.00  0.00    +0.000 C 
ENDBRANCH  12  14
ENDBRANCH  11  12
ENDBRANCH  10  11
ENDBRANCH   9  10
ENDBRANCH   1   9
TORSDOF 5
ENDMDL
MODEL 3
REMARK VINA RESULT:      -5.8      4.087      6.648
REMARK  Name = 
REMARK  5 active torsions:
REMARK  status: ('A' for Active; 'I' for Inactive)
REMARK    1  A    between atoms: C_2  and  C_3
REMARK    2  A    between atoms: C_3  and  C_4
REMARK    3  A    between atoms: C_4  and  C_5
REMARK    4  A    between atoms: C_5  and  C_6
REMARK    5  A    between atoms: C_6  and  C_7
REMARK                            x       y       z     vdW  Elec       q    Type
REMARK                         _______ _______ _______ _____ _____    ______ ____
ROOT
ATOM      1  C   UNL     1       1.099   6.032  -6.572  0.00  0.00    +0.017 A 
ATOM      2  C   UNL     1       1.992   7.067  -6.706  0.00  0.00    +0.195 A 
ATOM      3  O   UNL     1       1.899   8.034  -7.690  0.00  0.00    -0.287 OA
ATOM      4  C   UNL     1       3.173   6.972  -5.993  0.00  0.00    +0.084 A 
ATOM      5  C   UNL     1       3.435   5.925  -5.122  0.00  0.00    +0.199 A 
ATOM      6  O   UNL     1       4.699   5.811  -4.536  0.00  0.00    -0.286 OA
ATOM      7  C   UNL     1       2.669   4.786  -5.307  0.00  0.00    +0.042 A 
ATOM      8  C   UNL     1       1.361   4.943  -5.755  0.00  0.00    +0.002 A 
ENDROOT
BRANCH   1   9
ATOM      9  C   UNL     1      -0.070   5.960  -7.462  0.00  0.00    +0.030 C 
BRANCH   9  10
ATOM     10  C   UNL     1      -1.185   5.108  -6.920  0.00  0.00    +0.005 C 
BRANCH  10  11
ATOM     11  C   UNL     1      -2.185   6.035  -6.240  0.00  0.00    +0.000 C 
BRANCH  11  12
ATOM     12  C   UNL     1      -2.337   5.696  -4.778  0.00  0.00    +0.000 C 
BRANCH  12  14
ATOM     13  C   UNL     1      -1.778   8.135  -4.629  0.00  0.00    +0.000 C 
ATOM     14  C   UNL     1      -1.601   6.768  -3.983  0.00  0.00    +0.000 C 
ENDBRANCH  12  14
ENDBRANCH  11  12
ENDBRANCH  10  11
ENDBRANCH   9  10
ENDBRANCH   1   9
TORSDOF 5
ENDMDL
MODEL 4
REMARK VINA RESULT:      -5.7      3.285      6.711
REMARK  Name = 
REMARK  5 active torsions:
REMARK  status: ('A' for Active; 'I' for Inactive)
REMARK    1  A    between atoms: C_2  and  C_3
REMARK    2  A    between atoms: C_3  and  C_4
REMARK    3  A    between atoms: C_4  and  C_5
REMARK    4  A    between atoms: C_5  and  C_6
REMARK    5  A    between atoms: C_6  and  C_7
REMARK                            x       y       z     vdW  Elec       q    Type
REMARK                         _______ _______ _______ _____ _____    ______ ____
ROOT
ATOM      1  C   UNL     1       2.213   5.914  -7.175  0.00  0.00    +0.017 A 
ATOM      2  C   UNL     1       2.651   6.962  -7.948  0.00  0.00    +0.195 A 
ATOM      3  O   UNL     1       2.142   8.245  -7.856  0.00  0.00    -0.287 OA
ATOM      4  C   UNL     1       3.436   6.648  -9.041  0.00  0.00    +0.084 A 
ATOM      5  C   UNL     1       3.837   5.351  -9.324  0.00  0.00    +0.199 A 
ATOM      6  O   UNL     1       4.514   5.078 -10.516  0.00  0.00    -0.286 OA
ATOM      7  C   UNL     1       3.090   4.350  -8.724  0.00  0.00    +0.042 A 
ATOM      8  C   UNL     1       2.548   4.601  -7.468  0.00  0.00    +0.002 A 
ENDROOT
BRANCH   1   9
ATOM      9  C   UNL     1       1.201   6.152  -6.133  0.00  0.00    +0.030 C 
BRANCH   9  10
ATOM     10  C   UNL     1       0.131   5.095  -6.085  0.00  0.00    +0.005 C 
BRANCH  10  11
ATOM     11  C   UNL     1      -0.973   5.513  -7.049  0.00  0.00    +0.000 C 
BRANCH  11  12
ATOM     12  C   UNL     1      -2.327   5.454  -6.385  0.00  0.00    +0.000 C 
BRANCH  12  14
ATOM     13  C   UNL     1      -2.495   7.527  -4.987  0.00  0.00    +0.000 C 
ATOM     14  C   UNL     1      -2.175   6.039  -4.987  0.00  0.00    +0.000 C 
ENDBRANCH  12  14
ENDBRANCH  11  12
ENDBRANCH  10  11
ENDBRANCH   9  10
ENDBRANCH   1   9
TORSDOF 5
ENDMDL
MODEL 5
REMARK VINA RESULT:      -5.7      1.823      2.070
REMARK  Name = 
REMARK  5 active torsions:
REMARK  status: ('A' for Active; 'I' for Inactive)
REMARK    1  A    between atoms: C_2  and  C_3
REMARK    2  A    between atoms: C_3  and  C_4
REMARK    3  A    between atoms: C_4  and  C_5
REMARK    4  A    between atoms: C_5  and  C_6
REMARK    5  A    between atoms: C_6  and  C_7
REMARK                            x       y       z     vdW  Elec       q    Type
REMARK                         _______ _______ _______ _____ _____    ______ ____
ROOT
ATOM      1  C   UNL     1       4.264   5.368  -9.592  0.00  0.00    +0.017 A 
ATOM      2  C   UNL     1       2.918   5.092  -9.548  0.00  0.00    +0.195 A 
ATOM      3  O   UNL     1       2.062   5.294 -10.615  0.00  0.00    -0.287 OA
ATOM      4  C   UNL     1       2.367   4.863  -8.302  0.00  0.00    +0.084 A 
ATOM      5  C   UNL     1       3.128   4.836  -7.143  0.00  0.00    +0.199 A 
ATOM      6  O   UNL     1       2.496   4.736  -5.900  0.00  0.00    -0.286 OA
ATOM      7  C   UNL     1       4.367   5.450  -7.226  0.00  0.00    +0.042 A 
ATOM      8  C   UNL     1       5.039   5.407  -8.443  0.00  0.00    +0.002 A 
ENDROOT
BRANCH   1   9
ATOM      9  C   UNL     1       4.870   5.835 -10.849  0.00  0.00    +0.030 C 
BRANCH   9  10
ATOM     10  C   UNL     1       5.223   7.297 -10.836  0.00  0.00    +0.005 C 
BRANCH  10  11
ATOM     11  C   UNL     1       6.592   7.447 -11.491  0.00  0.00    +0.000 C 
BRANCH  11  12
ATOM     12  C   UNL     1       7.674   6.833 -10.639  0.00  0.00    +0.000 C 
BRANCH  12  14
ATOM     13  C   UNL     1       8.029   5.999 -12.976  0.00  0.00    +0.000 C 
ATOM     14  C   UNL     1       8.456   5.867 -11.521  0.00  0.00    +0.000 C 
ENDBRANCH  12  14
ENDBRANCH  11  12
ENDBRANCH  10  11
ENDBRANCH   9  10
ENDBRANCH   1   9
TORSDOF 5
ENDMDL
MODEL 6
REMARK VINA RESULT:      -5.6      3.302      6.065
REMARK  Name = 
REMARK  5 active torsions:
REMARK  status: ('A' for Active; 'I' for Inactive)
REMARK    1  A    between atoms: C_2  and  C_3
REMARK    2  A    between atoms: C_3  and  C_4
REMARK    3  A    between atoms: C_4  and  C_5
REMARK    4  A    between atoms: C_5  and  C_6
REMARK    5  A    between atoms: C_6  and  C_7
REMARK                            x       y       z     vdW  Elec       q    Type
REMARK                         _______ _______ _______ _____ _____    ______ ____
ROOT
ATOM      1  C   UNL     1       5.548   6.461 -11.707  0.00  0.00    +0.017 A 
ATOM      2  C   UNL     1       5.955   5.565 -12.665  0.00  0.00    +0.195 A 
ATOM      3  O   UNL     1       5.110   4.646 -13.261  0.00  0.00    -0.287 OA
ATOM      4  C   UNL     1       7.318   5.403 -12.832  0.00  0.00    +0.084 A 
ATOM      5  C   UNL     1       8.249   6.151 -12.128  0.00  0.00    +0.199 A 
ATOM      6  O   UNL     1       9.609   5.848 -12.238  0.00  0.00    -0.286 OA
ATOM      7  C   UNL     1       7.781   6.756 -10.972  0.00  0.00    +0.042 A 
ATOM      8  C   UNL     1       6.456   7.180 -10.946  0.00  0.00    +0.002 A 
ENDROOT
BRANCH   1   9
ATOM      9  C   UNL     1       4.127   6.522 -11.325  0.00  0.00    +0.030 C 
BRANCH   9  10
ATOM     10  C   UNL     1       3.907   6.517  -9.837  0.00  0.00    +0.005 C 
BRANCH  10  11
ATOM     11  C   UNL     1       4.233   5.118  -9.328  0.00  0.00    +0.000 C 
BRANCH  11  12
ATOM     12  C   UNL     1       4.859   5.169  -7.957  0.00  0.00    +0.000 C 
BRANCH  12  14
ATOM     13  C   UNL     1       4.482   6.066  -5.647  0.00  0.00    +0.000 C 
ATOM     14  C   UNL     1       3.940   5.998  -7.067  0.00  0.00    +0.000 C 
ENDBRANCH  12  14
ENDBRANCH  11  12
ENDBRANCH  10  11
ENDBRANCH   9  10
ENDBRANCH   1   9
TORSDOF 5
ENDMDL
MODEL 7
REMARK VINA RESULT:      -5.5      3.924      7.671
REMARK  Name = 
REMARK  5 active torsions:
REMARK  status: ('A' for Active; 'I' for Inactive)
REMARK    1  A    between atoms: C_2  and  C_3
REMARK    2  A    between atoms: C_3  and  C_4
REMARK    3  A    between atoms: C_4  and  C_5
REMARK    4  A    between atoms: C_5  and  C_6
REMARK    5  A    between atoms: C_6  and  C_7
REMARK                            x       y       z     vdW  Elec       q    Type
REMARK                         _______ _______ _______ _____ _____    ______ ____
ROOT
ATOM      1  C   UNL     1       0.467   5.879  -7.533  0.00  0.00    +0.017 A 
ATOM      2  C   UNL     1       1.687   6.509  -7.576  0.00  0.00    +0.195 A 
ATOM      3  O   UNL     1       2.228   7.202  -6.509  0.00  0.00    -0.287 OA
ATOM      4  C   UNL     1       2.259   6.680  -8.823  0.00  0.00    +0.084 A 
ATOM      5  C   UNL     1       1.682   6.184  -9.982  0.00  0.00    +0.199 A 
ATOM      6  O   UNL     1       2.235   6.505 -11.225  0.00  0.00    -0.286 OA
ATOM      7  C   UNL     1       0.333   5.884  -9.898  0.00  0.00    +0.042 A 
ATOM      8  C   UNL     1      -0.162   5.425  -8.682  0.00  0.00    +0.002 A 
ENDROOT
BRANCH   1   9
ATOM      9  C   UNL     1      -0.297   5.859  -6.275  0.00  0.00    +0.030 C 
BRANCH   9  10
ATOM     10  C   UNL     1      -1.771   5.637  -6.473  0.00  0.00    +0.005 C 
BRANCH  10  11
ATOM     11  C   UNL     1      -2.510   6.591  -5.542  0.00  0.00    +0.000 C 
BRANCH  11  12
ATOM     12  C   UNL     1      -1.548   7.478  -4.793  0.00  0.00    +0.000 C 
BRANCH  12  14
ATOM     13  C   UNL     1      -3.086   6.540  -3.051  0.00  0.00    +0.000 C 
ATOM     14  C   UNL     1      -2.086   7.639  -3.376  0.00  0.00    +0.000 C 
ENDBRANCH  12  14
ENDBRANCH  11  12
ENDBRANCH  10  11
ENDBRANCH   9  10
ENDBRANCH   1   9
TORSDOF 5
ENDMDL
MODEL 8
REMARK VINA RESULT:      -5.5      3.721      6.311
REMARK  Name = 
REMARK  5 active torsions:
REMARK  status: ('A' for Active; 'I' for Inactive)
REMARK    1  A    between atoms: C_2  and  C_3
REMARK    2  A    between atoms: C_3  and  C_4
REMARK    3  A    between atoms: C_4  and  C_5
REMARK    4  A    between atoms: C_5  and  C_6
REMARK    5  A    between atoms: C_6  and  C_7
REMARK                            x       y       z     vdW  Elec       q    Type
REMARK                         _______ _______ _______ _____ _____    ______ ____
ROOT
ATOM      1  C   UNL     1       5.282   6.026 -11.479  0.00  0.00    +0.017 A 
ATOM      2  C   UNL     1       5.748   5.402 -12.610  0.00  0.00    +0.195 A 
ATOM      3  O   UNL     1       4.971   4.578 -13.404  0.00  0.00    -0.287 OA
ATOM      4  C   UNL     1       7.117   5.387 -12.798  0.00  0.00    +0.084 A 
ATOM      5  C   UNL     1       7.994   6.027 -11.936  0.00  0.00    +0.199 A 
ATOM      6  O   UNL     1       9.373   5.862 -12.100  0.00  0.00    -0.286 OA
ATOM      7  C   UNL     1       7.492   6.319 -10.678  0.00  0.00    +0.042 A 
ATOM      8  C   UNL     1       6.139   6.623 -10.568  0.00  0.00    +0.002 A 
ENDROOT
BRANCH   1   9
ATOM      9  C   UNL     1       3.864   5.891 -11.105  0.00  0.00    +0.030 C 
BRANCH   9  10
ATOM     10  C   UNL     1       3.660   5.300  -9.737  0.00  0.00    +0.005 C 
BRANCH  10  11
ATOM     11  C   UNL     1       2.617   6.149  -9.019  0.00  0.00    +0.000 C 
BRANCH  11  12
ATOM     12  C   UNL     1       1.467   6.488  -9.934  0.00  0.00    +0.000 C 
BRANCH  12  14
ATOM     13  C   UNL     1       0.083   4.583 -10.792  0.00  0.00    +0.000 C 
ATOM     14  C   UNL     1       0.334   5.519  -9.619  0.00  0.00    +0.000 C 
ENDBRANCH  12  14
ENDBRANCH  11  12
ENDBRANCH  10  11
ENDBRANCH   9  10
ENDBRANCH   1   9
TORSDOF 5
ENDMDL
MODEL 9
REMARK VINA RESULT:      -5.3      3.720      5.812
REMARK  Name = 
REMARK  5 active torsions:
REMARK  status: ('A' for Active; 'I' for Inactive)
REMARK    1  A    between atoms: C_2  and  C_3
REMARK    2  A    between atoms: C_3  and  C_4
REMARK    3  A    between atoms: C_4  and  C_5
REMARK    4  A    between atoms: C_5  and  C_6
REMARK    5  A    between atoms: C_6  and  C_7
REMARK                            x       y       z     vdW  Elec       q    Type
REMARK                         _______ _______ _______ _____ _____    ______ ____
ROOT
ATOM      1  C   UNL     1      -0.136   6.504  -5.022  0.00  0.00    +0.017 A 
ATOM      2  C   UNL     1       0.324   5.916  -3.869  0.00  0.00    +0.195 A 
ATOM      3  O   UNL     1       1.653   5.603  -3.649  0.00  0.00    -0.287 OA
ATOM      4  C   UNL     1      -0.623   5.374  -3.021  0.00  0.00    +0.084 A 
ATOM      5  C   UNL     1      -1.984   5.471  -3.266  0.00  0.00    +0.199 A 
ATOM      6  O   UNL     1      -2.887   4.786  -2.446  0.00  0.00    -0.286 OA
ATOM      7  C   UNL     1      -2.339   5.755  -4.574  0.00  0.00    +0.042 A 
ATOM      8  C   UNL     1      -1.489   6.563  -5.322  0.00  0.00    +0.002 A 
ENDROOT
BRANCH   1   9
ATOM      9  C   UNL     1       0.820   6.903  -6.068  0.00  0.00    +0.030 C 
BRANCH   9  10
ATOM     10  C   UNL     1       0.880   5.940  -7.222  0.00  0.00    +0.005 C 
BRANCH  10  11
ATOM     11  C   UNL     1       2.216   5.210  -7.144  0.00  0.00    +0.000 C 
BRANCH  11  12
ATOM     12  C   UNL     1       3.371   6.168  -7.290  0.00  0.00    +0.000 C 
BRANCH  12  14
ATOM     13  C   UNL     1       4.493   6.786  -5.136  0.00  0.00    +0.000 C 
ATOM     14  C   UNL     1       4.426   5.769  -6.265  0.00  0.00    +0.000 C 
ENDBRANCH  12  14
ENDBRANCH  11  12
ENDBRANCH  10  11
ENDBRANCH   9  10
ENDBRANCH   1   9
TORSDOF 5
ENDMDL
