MODEL 1
REMARK VINA RESULT:      -9.4      0.000      0.000
REMARK  Name = 
REMARK  12 active torsions:
REMARK  status: ('A' for Active; 'I' for Inactive)
REMARK    1  A    between atoms: C_2  and  C_3
REMARK    2  A    between atoms: C_3  and  C_4
REMARK    3  A    between atoms: C_4  and  C_5
REMARK    4  A    between atoms: C_5  and  O_7
REMARK    5  A    between atoms: O_7  and  C_8
REMARK    6  A    between atoms: C_8  and  C_9
REMARK    7  A    between atoms: C_9  and  C_11
REMARK    8  A    between atoms: C_22  and  O_23
REMARK    9  A    between atoms: O_23  and  C_24
REMARK   10  A    between atoms: C_26  and  N_27
REMARK   11  A    between atoms: C_28  and  C_30
REMARK   12  A    between atoms: C_43  and  O_44
REMARK                            x       y       z     vdW  Elec       q    Type
REMARK                         _______ _______ _______ _____ _____    ______ ____
ROOT
ATOM      1  C   UNL     1       1.324   5.762 -10.700  0.00  0.00    +0.188 C 
ATOM      2  C   UNL     1       1.798   7.001 -10.153  0.00  0.00    +0.072 C 
ATOM      3  C   UNL     1       3.204   6.820  -9.297  0.00  0.00    +0.146 C 
ATOM      4  C   UNL     1       2.639   5.568  -8.397  0.00  0.00    +0.043 A 
ATOM      5  C   UNL     1       1.292   5.358  -8.413  0.00  0.00    +0.021 A 
ATOM      6  C   UNL     1       0.455   5.297  -7.333  0.00  0.00    +0.195 A 
ATOM      7  C   UNL     1       0.941   5.712  -6.127  0.00  0.00    +0.084 A 
ATOM      8  C   UNL     1       0.050   6.170  -5.065  0.00  0.00    +0.199 C 
ATOM      9  O   UNL     1      -1.185   6.138  -5.221  0.00  0.00    -0.286 OA
ATOM     10  C   UNL     1       0.587   6.304  -3.717  0.00  0.00    +0.045 A 
ATOM     11  C   UNL     1       1.900   5.921  -3.465  0.00  0.00    +0.076 A 
ATOM     12  C   UNL     1       2.297   5.475  -2.207  0.00  0.00    +0.142 A 
ATOM     13  C   UNL     1       1.388   5.604  -1.174  0.00  0.00    +0.037 A 
ATOM     14  C   UNL     1       0.220   6.299  -1.336  0.00  0.00    +0.003 A 
ATOM     15  C   UNL     1       2.815   5.814  -4.608  0.00  0.00    +0.202 C 
ATOM     16  O   UNL     1       3.993   5.468  -4.389  0.00  0.00    -0.286 OA
ATOM     17  C   UNL     1      -0.161   6.660  -2.622  0.00  0.00    +0.003 A 
ATOM     18  C   UNL     1       2.305   5.730  -5.975  0.00  0.00    +0.084 A 
ATOM     19  O   UNL     1      -0.876   4.871  -7.398  0.00  0.00    -0.287 OA
ATOM     20  C   UNL     1       3.112   5.697  -7.088  0.00  0.00    +0.197 A 
ATOM     21  O   UNL     1       4.451   5.871  -6.853  0.00  0.00    -0.287 OA
ATOM     22  C   UNL     1       0.641   4.863  -9.670  0.00  0.00    +0.067 C 
ATOM     23  O   UNL     1       2.100   4.889 -11.398  0.00  0.00    -0.218 OA
ENDROOT
BRANCH   1  24
ATOM     24  C   UNL     1       0.237   6.128 -11.672  0.00  0.00    +0.222 C 
ATOM     25  O   UNL     1      -0.406   5.217 -12.195  0.00  0.00    -0.290 OA
BRANCH  24  26
ATOM     26  C   UNL     1       0.378   7.300 -12.606  0.00  0.00    +0.275 C 
BRANCH  26  27
ATOM     27  O   UNL     1       1.367   6.956 -13.575  0.00  0.00    -0.440 OA
BRANCH  27  28
ATOM     28  C   UNL     1       1.076   6.972 -14.943  0.00  0.00    +0.317 C 
ATOM     29  O   UNL     1       0.470   5.996 -15.425  0.00  0.00    -0.250 OA
BRANCH  28  30
ATOM     30  C   UNL     1       1.630   8.016 -15.847  0.00  0.00    +0.110 C 
BRANCH  30  31
ATOM     31  C   UNL     1       0.667   9.179 -16.026  0.00  0.00    +0.012 C 
BRANCH  31  33
ATOM     32  C   UNL     1       0.998  11.392 -15.071  0.00  0.00    +0.000 C 
ATOM     33  C   UNL     1       1.467  10.469 -16.125  0.00  0.00    +0.001 C 
ENDBRANCH  31  33
ENDBRANCH  30  31
ENDBRANCH  28  30
ENDBRANCH  27  28
ENDBRANCH  26  27
ENDBRANCH  24  26
ENDBRANCH   1  24
BRANCH  12  34
ATOM     34  O   UNL     1       3.278   4.476  -2.158  0.00  0.00    -0.471 OA
ATOM     35  C   UNL     1       4.173   4.564  -1.051  0.00  0.00    +0.252 C 
ENDBRANCH  12  34
BRANCH   3  36
ATOM     36  O   UNL     1       3.797   6.004 -10.435  0.00  0.00    -0.328 OA
BRANCH  36  37
ATOM     37  C   UNL     1       4.908   6.920 -10.959  0.00  0.00    +0.237 C 
ATOM     38  O   UNL     1       5.965   6.127 -10.153  0.00  0.00    -0.330 OA
ATOM     39  C   UNL     1       6.811   5.524 -11.247  0.00  0.00    +0.150 C 
ATOM     40  C   UNL     1       8.110   5.303 -10.265  0.00  0.00    +0.035 C 
ATOM     41  C   UNL     1       7.500   6.989 -11.844  0.00  0.00    +0.199 C 
ATOM     42  O   UNL     1       7.104   7.906 -10.729  0.00  0.00    -0.219 OA
ATOM     43  C   UNL     1       6.153   7.353 -12.848  0.00  0.00    +0.133 C 
ATOM     44  C   UNL     1       5.204   6.089 -12.395  0.00  0.00    +0.086 C 
BRANCH  43  45
ATOM     45  N   UNL     1       6.857   6.628 -14.050  0.00  0.00    -0.197 NA
ATOM     46  C   UNL     1       6.501   7.218 -15.309  0.00  0.00    +0.337 C 
ATOM     47  O   UNL     1       5.912   8.342 -15.299  0.00  0.00    -0.264 OA
BRANCH  46  48
ATOM     48  C   UNL     1       7.174   6.904 -16.599  0.00  0.00    +0.471 C 
ATOM     49  F   UNL     1       8.271   7.700 -16.803  0.00  0.00    -0.162 F 
ATOM     50  F   UNL     1       6.274   7.206 -17.619  0.00  0.00    -0.162 F 
ATOM     51  F   UNL     1       7.471   5.550 -16.616  0.00  0.00    -0.162 F 
ENDBRANCH  46  48
ENDBRANCH  43  45
ENDBRANCH  36  37
ENDBRANCH   3  36
TORSDOF 12
ENDMDL
MODEL 2
REMARK VINA RESULT:      -9.4      6.082     11.873
REMARK  Name = 
REMARK  12 active torsions:
REMARK  status: ('A' for Active; 'I' for Inactive)
REMARK    1  A    between atoms: C_2  and  C_3
REMARK    2  A    between atoms: C_3  and  C_4
REMARK    3  A    between atoms: C_4  and  C_5
REMARK    4  A    between atoms: C_5  and  O_7
REMARK    5  A    between atoms: O_7  and  C_8
REMARK    6  A    between atoms: C_8  and  C_9
REMARK    7  A    between atoms: C_9  and  C_11
REMARK    8  A    between atoms: C_22  and  O_23
REMARK    9  A    between atoms: O_23  and  C_24
REMARK   10  A    between atoms: C_26  and  N_27
REMARK   11  A    between atoms: C_28  and  C_30
REMARK   12  A    between atoms: C_43  and  O_44
REMARK                            x       y       z     vdW  Elec       q    Type
REMARK                         _______ _______ _______ _____ _____    ______ ____
ROOT
ATOM      1  C   UNL     1       3.293   5.827  -4.607  0.00  0.00    +0.188 C 
ATOM      2  C   UNL     1       2.773   7.043  -5.162  0.00  0.00    +0.072 C 
ATOM      3  C   UNL     1       1.321   6.821  -5.927  0.00  0.00    +0.146 C 
ATOM      4  C   UNL     1       1.846   5.546  -6.820  0.00  0.00    +0.043 A 
ATOM      5  C   UNL     1       3.194   5.350  -6.878  0.00  0.00    +0.021 A 
ATOM      6  C   UNL     1       3.967   5.263  -8.003  0.00  0.00    +0.195 A 
ATOM      7  C   UNL     1       3.405   5.634  -9.190  0.00  0.00    +0.084 A 
ATOM      8  C   UNL     1       4.226   6.067 -10.318  0.00  0.00    +0.199 C 
ATOM      9  O   UNL     1       5.469   6.053 -10.235  0.00  0.00    -0.286 OA
ATOM     10  C   UNL     1       3.609   6.153 -11.635  0.00  0.00    +0.045 A 
ATOM     11  C   UNL     1       2.288   5.749 -11.796  0.00  0.00    +0.076 A 
ATOM     12  C   UNL     1       1.822   5.258 -13.013  0.00  0.00    +0.142 A 
ATOM     13  C   UNL     1       2.667   5.364 -14.102  0.00  0.00    +0.037 A 
ATOM     14  C   UNL     1       3.834   6.076 -14.032  0.00  0.00    +0.003 A 
ATOM     15  C   UNL     1       1.444   5.669 -10.597  0.00  0.00    +0.202 C 
ATOM     16  O   UNL     1       0.258   5.304 -10.735  0.00  0.00    -0.286 OA
ATOM     17  C   UNL     1       4.286   6.481 -12.783  0.00  0.00    +0.003 A 
ATOM     18  C   UNL     1       2.034   5.634  -9.261  0.00  0.00    +0.084 A 
ATOM     19  O   UNL     1       5.304   4.853  -8.004  0.00  0.00    -0.287 OA
ATOM     20  C   UNL     1       1.295   5.628  -8.101  0.00  0.00    +0.197 A 
ATOM     21  O   UNL     1      -0.058   5.781  -8.261  0.00  0.00    -0.287 OA
ATOM     22  C   UNL     1       3.925   4.903  -5.646  0.00  0.00    +0.067 C 
ATOM     23  O   UNL     1       2.570   4.969  -3.836  0.00  0.00    -0.218 OA
ENDROOT
BRANCH   1  24
ATOM     24  C   UNL     1       4.431   6.234  -3.713  0.00  0.00    +0.222 C 
ATOM     25  O   UNL     1       5.186   5.355  -3.295  0.00  0.00    -0.290 OA
BRANCH  24  26
ATOM     26  C   UNL     1       4.285   7.347  -2.710  0.00  0.00    +0.275 C 
BRANCH  26  27
ATOM     27  O   UNL     1       4.364   6.763  -1.411  0.00  0.00    -0.440 OA
BRANCH  27  28
ATOM     28  C   UNL     1       3.209   6.435  -0.694  0.00  0.00    +0.317 C 
ATOM     29  O   UNL     1       2.928   5.229  -0.554  0.00  0.00    -0.250 OA
BRANCH  28  30
ATOM     30  C   UNL     1       2.232   7.474  -0.268  0.00  0.00    +0.110 C 
BRANCH  30  31
ATOM     31  C   UNL     1       2.814   8.400   0.788  0.00  0.00    +0.012 C 
BRANCH  31  33
ATOM     32  C   UNL     1       3.476  10.371  -0.476  0.00  0.00    +0.000 C 
ATOM     33  C   UNL     1       2.447   9.835   0.439  0.00  0.00    +0.001 C 
ENDBRANCH  31  33
ENDBRANCH  30  31
ENDBRANCH  28  30
ENDBRANCH  27  28
ENDBRANCH  26  27
ENDBRANCH  24  26
ENDBRANCH   1  24
BRANCH  12  34
ATOM     34  O   UNL     1       0.852   4.249 -12.973  0.00  0.00    -0.471 OA
ATOM     35  C   UNL     1       0.445   3.753 -14.246  0.00  0.00    +0.252 C 
ENDBRANCH  12  34
BRANCH   3  36
ATOM     36  O   UNL     1       0.806   6.035  -4.731  0.00  0.00    -0.328 OA
BRANCH  36  37
ATOM     37  C   UNL     1      -0.349   6.909  -4.231  0.00  0.00    +0.237 C 
ATOM     38  O   UNL     1      -1.378   5.930  -4.845  0.00  0.00    -0.330 OA
ATOM     39  C   UNL     1      -2.081   5.399  -3.620  0.00  0.00    +0.150 C 
ATOM     40  C   UNL     1      -3.419   4.941  -4.456  0.00  0.00    +0.035 C 
ATOM     41  C   UNL     1      -2.866   6.861  -3.148  0.00  0.00    +0.199 C 
ATOM     42  O   UNL     1      -2.642   7.661  -4.394  0.00  0.00    -0.219 OA
ATOM     43  C   UNL     1      -1.492   7.468  -2.310  0.00  0.00    +0.133 C 
ATOM     44  C   UNL     1      -0.459   6.245  -2.685  0.00  0.00    +0.086 C 
BRANCH  43  45
ATOM     45  N   UNL     1      -2.034   6.843  -0.975  0.00  0.00    -0.197 NA
ATOM     46  C   UNL     1      -1.636   7.609   0.171  0.00  0.00    +0.337 C 
ATOM     47  O   UNL     1      -1.152   8.766  -0.021  0.00  0.00    -0.264 OA
BRANCH  46  48
ATOM     48  C   UNL     1      -2.177   7.404   1.542  0.00  0.00    +0.471 C 
ATOM     49  F   UNL     1      -3.358   8.074   1.725  0.00  0.00    -0.162 F 
ATOM     50  F   UNL     1      -1.265   7.964   2.434  0.00  0.00    -0.162 F 
ATOM     51  F   UNL     1      -2.284   6.040   1.768  0.00  0.00    -0.162 F 
ENDBRANCH  46  48
ENDBRANCH  43  45
ENDBRANCH  36  37
ENDBRANCH   3  36
TORSDOF 12
ENDMDL
MODEL 3
REMARK VINA RESULT:      -9.0      5.786     10.762
REMARK  Name = 
REMARK  12 active torsions:
REMARK  status: ('A' for Active; 'I' for Inactive)
REMARK    1  A    between atoms: C_2  and  C_3
REMARK    2  A    between atoms: C_3  and  C_4
REMARK    3  A    between atoms: C_4  and  C_5
REMARK    4  A    between atoms: C_5  and  O_7
REMARK    5  A    between atoms: O_7  and  C_8
REMARK    6  A    between atoms: C_8  and  C_9
REMARK    7  A    between atoms: C_9  and  C_11
REMARK    8  A    between atoms: C_22  and  O_23
REMARK    9  A    between atoms: O_23  and  C_24
REMARK   10  A    between atoms: C_26  and  N_27
REMARK   11  A    between atoms: C_28  and  C_30
REMARK   12  A    between atoms: C_43  and  O_44
REMARK                            x       y       z     vdW  Elec       q    Type
REMARK                         _______ _______ _______ _____ _____    ______ ____
ROOT
ATOM      1  C   UNL     1      -0.212   6.071  -6.078  0.00  0.00    +0.188 C 
ATOM      2  C   UNL     1       0.538   4.848  -6.057  0.00  0.00    +0.072 C 
ATOM      3  C   UNL     1       2.139   5.091  -5.709  0.00  0.00    +0.146 C 
ATOM      4  C   UNL     1       2.331   6.274  -6.832  0.00  0.00    +0.043 A 
ATOM      5  C   UNL     1       1.347   6.398  -7.769  0.00  0.00    +0.021 A 
ATOM      6  C   UNL     1       1.496   6.369  -9.128  0.00  0.00    +0.195 A 
ATOM      7  C   UNL     1       2.694   5.947  -9.628  0.00  0.00    +0.084 A 
ATOM      8  C   UNL     1       2.804   5.398 -10.977  0.00  0.00    +0.199 C 
ATOM      9  O   UNL     1       1.808   5.355 -11.723  0.00  0.00    -0.286 OA
ATOM     10  C   UNL     1       4.130   5.254 -11.562  0.00  0.00    +0.045 A 
ATOM     11  C   UNL     1       5.239   5.713 -10.859  0.00  0.00    +0.076 A 
ATOM     12  C   UNL     1       6.388   6.143 -11.517  0.00  0.00    +0.142 A 
ATOM     13  C   UNL     1       6.458   5.921 -12.880  0.00  0.00    +0.037 A 
ATOM     14  C   UNL     1       5.523   5.158 -13.526  0.00  0.00    +0.003 A 
ATOM     15  C   UNL     1       5.098   5.916  -9.412  0.00  0.00    +0.202 C 
ATOM     16  O   UNL     1       6.089   6.331  -8.776  0.00  0.00    -0.286 OA
ATOM     17  C   UNL     1       4.363   4.815 -12.842  0.00  0.00    +0.003 A 
ATOM     18  C   UNL     1       3.779   6.012  -8.790  0.00  0.00    +0.084 A 
ATOM     19  O   UNL     1       0.485   6.711 -10.033  0.00  0.00    -0.287 OA
ATOM     20  C   UNL     1       3.583   6.133  -7.434  0.00  0.00    +0.197 A 
ATOM     21  O   UNL     1       4.712   6.039  -6.663  0.00  0.00    -0.287 OA
ATOM     22  C   UNL     1      -0.007   6.890  -7.351  0.00  0.00    +0.067 C 
ATOM     23  O   UNL     1      -0.161   7.015  -5.098  0.00  0.00    -0.218 OA
ENDROOT
BRANCH   1  24
ATOM     24  C   UNL     1      -1.659   5.668  -6.109  0.00  0.00    +0.222 C 
ATOM     25  O   UNL     1      -2.145   5.327  -7.188  0.00  0.00    -0.290 OA
BRANCH  24  26
ATOM     26  C   UNL     1      -2.685   6.351  -5.242  0.00  0.00    +0.275 C 
BRANCH  26  27
ATOM     27  O   UNL     1      -3.064   5.427  -4.224  0.00  0.00    -0.440 OA
BRANCH  27  28
ATOM     28  C   UNL     1      -2.732   5.651  -2.884  0.00  0.00    +0.317 C 
ATOM     29  O   UNL     1      -2.305   4.689  -2.217  0.00  0.00    -0.250 OA
BRANCH  28  30
ATOM     30  C   UNL     1      -3.050   6.936  -2.204  0.00  0.00    +0.110 C 
BRANCH  30  31
ATOM     31  C   UNL     1      -1.884   7.439  -1.369  0.00  0.00    +0.012 C 
BRANCH  31  33
ATOM     32  C   UNL     1      -1.765   8.584   0.775  0.00  0.00    +0.000 C 
ATOM     33  C   UNL     1      -2.265   7.367   0.102  0.00  0.00    +0.001 C 
ENDBRANCH  31  33
ENDBRANCH  30  31
ENDBRANCH  28  30
ENDBRANCH  27  28
ENDBRANCH  26  27
ENDBRANCH  24  26
ENDBRANCH   1  24
BRANCH  12  34
ATOM     34  O   UNL     1       7.104   7.200 -10.941  0.00  0.00    -0.471 OA
ATOM     35  C   UNL     1       6.665   8.503 -11.322  0.00  0.00    +0.252 C 
ENDBRANCH  12  34
BRANCH   3  36
ATOM     36  O   UNL     1       1.754   5.981  -4.537  0.00  0.00    -0.328 OA
BRANCH  36  37
ATOM     37  C   UNL     1       2.608   5.418  -3.396  0.00  0.00    +0.237 C 
ATOM     38  O   UNL     1       3.865   6.111  -3.972  0.00  0.00    -0.330 OA
ATOM     39  C   UNL     1       4.201   7.107  -2.891  0.00  0.00    +0.150 C 
ATOM     40  C   UNL     1       5.770   7.245  -3.359  0.00  0.00    +0.035 C 
ATOM     41  C   UNL     1       4.657   5.980  -1.667  0.00  0.00    +0.199 C 
ATOM     42  O   UNL     1       4.755   4.746  -2.510  0.00  0.00    -0.219 OA
ATOM     43  C   UNL     1       3.040   5.704  -1.152  0.00  0.00    +0.133 C 
ATOM     44  C   UNL     1       2.297   6.642  -2.279  0.00  0.00    +0.086 C 
BRANCH  43  45
ATOM     45  N   UNL     1       3.199   6.824  -0.062  0.00  0.00    -0.197 NA
ATOM     46  C   UNL     1       1.950   7.131   0.571  0.00  0.00    +0.337 C 
ATOM     47  O   UNL     1       0.974   6.340   0.387  0.00  0.00    -0.264 OA
BRANCH  46  48
ATOM     48  C   UNL     1       1.816   7.977   1.788  0.00  0.00    +0.471 C 
ATOM     49  F   UNL     1       2.939   7.918   2.572  0.00  0.00    -0.162 F 
ATOM     50  F   UNL     1       0.777   7.445   2.550  0.00  0.00    -0.162 F 
ATOM     51  F   UNL     1       1.497   9.266   1.389  0.00  0.00    -0.162 F 
ENDBRANCH  46  48
ENDBRANCH  43  45
ENDBRANCH  36  37
ENDBRANCH   3  36
TORSDOF 12
ENDMDL
MODEL 4
REMARK VINA RESULT:      -8.4      3.030      6.065
REMARK  Name = 
REMARK  12 active torsions:
REMARK  status: ('A' for Active; 'I' for Inactive)
REMARK    1  A    between atoms: C_2  and  C_3
REMARK    2  A    between atoms: C_3  and  C_4
REMARK    3  A    between atoms: C_4  and  C_5
REMARK    4  A    between atoms: C_5  and  O_7
REMARK    5  A    between atoms: O_7  and  C_8
REMARK    6  A    between atoms: C_8  and  C_9
REMARK    7  A    between atoms: C_9  and  C_11
REMARK    8  A    between atoms: C_22  and  O_23
REMARK    9  A    between atoms: O_23  and  C_24
REMARK   10  A    between atoms: C_26  and  N_27
REMARK   11  A    between atoms: C_28  and  C_30
REMARK   12  A    between atoms: C_43  and  O_44
REMARK                            x       y       z     vdW  Elec       q    Type
REMARK                         _______ _______ _______ _____ _____    ______ ____
ROOT
ATOM      1  C   UNL     1       1.141   5.044  -6.631  0.00  0.00    +0.188 C 
ATOM      2  C   UNL     1       1.381   6.458  -6.647  0.00  0.00    +0.072 C 
ATOM      3  C   UNL     1       2.960   6.837  -6.322  0.00  0.00    +0.146 C 
ATOM      4  C   UNL     1       3.036   5.902  -4.974  0.00  0.00    +0.043 A 
ATOM      5  C   UNL     1       1.851   5.467  -4.460  0.00  0.00    +0.021 A 
ATOM      6  C   UNL     1       1.392   5.643  -3.184  0.00  0.00    +0.195 A 
ATOM      7  C   UNL     1       2.054   6.531  -2.387  0.00  0.00    +0.084 A 
ATOM      8  C   UNL     1       1.397   7.169  -1.249  0.00  0.00    +0.199 C 
ATOM      9  O   UNL     1       0.226   6.870  -0.949  0.00  0.00    -0.286 OA
ATOM     10  C   UNL     1       2.222   7.859  -0.267  0.00  0.00    +0.045 A 
ATOM     11  C   UNL     1       3.607   7.824  -0.395  0.00  0.00    +0.076 A 
ATOM     12  C   UNL     1       4.441   7.922   0.716  0.00  0.00    +0.142 A 
ATOM     13  C   UNL     1       3.851   8.245   1.924  0.00  0.00    +0.037 A 
ATOM     14  C   UNL     1       2.538   8.623   1.996  0.00  0.00    +0.003 A 
ATOM     15  C   UNL     1       4.166   7.485  -1.709  0.00  0.00    +0.202 C 
ATOM     16  O   UNL     1       5.408   7.449  -1.830  0.00  0.00    -0.286 OA
ATOM     17  C   UNL     1       1.734   8.439   0.878  0.00  0.00    +0.003 A 
ATOM     18  C   UNL     1       3.346   6.839  -2.733  0.00  0.00    +0.084 A 
ATOM     19  O   UNL     1       0.269   4.995  -2.660  0.00  0.00    -0.287 OA
ATOM     20  C   UNL     1       3.794   6.561  -4.003  0.00  0.00    +0.197 A 
ATOM     21  O   UNL     1       5.042   7.037  -4.308  0.00  0.00    -0.287 OA
ATOM     22  C   UNL     1       1.045   4.458  -5.223  0.00  0.00    +0.067 C 
ATOM     23  O   UNL     1       1.908   4.132  -7.289  0.00  0.00    -0.218 OA
ENDROOT
BRANCH   1  24
ATOM     24  C   UNL     1      -0.227   4.850  -7.222  0.00  0.00    +0.222 C 
ATOM     25  O   UNL     1      -0.457   5.336  -8.330  0.00  0.00    -0.290 OA
BRANCH  24  26
ATOM     26  C   UNL     1      -1.463   4.849  -6.362  0.00  0.00    +0.275 C 
BRANCH  26  27
ATOM     27  O   UNL     1      -2.203   6.027  -6.678  0.00  0.00    -0.440 OA
BRANCH  27  28
ATOM     28  C   UNL     1      -2.434   7.017  -5.718  0.00  0.00    +0.317 C 
ATOM     29  O   UNL     1      -3.440   7.741  -5.852  0.00  0.00    -0.250 OA
BRANCH  28  30
ATOM     30  C   UNL     1      -1.428   7.339  -4.670  0.00  0.00    +0.110 C 
BRANCH  30  31
ATOM     31  C   UNL     1      -2.073   7.547  -3.309  0.00  0.00    +0.012 C 
BRANCH  31  33
ATOM     32  C   UNL     1      -4.132   6.529  -2.506  0.00  0.00    +0.000 C 
ATOM     33  C   UNL     1      -2.728   6.246  -2.871  0.00  0.00    +0.001 C 
ENDBRANCH  31  33
ENDBRANCH  30  31
ENDBRANCH  28  30
ENDBRANCH  27  28
ENDBRANCH  26  27
ENDBRANCH  24  26
ENDBRANCH   1  24
BRANCH  12  34
ATOM     34  O   UNL     1       5.636   7.193   0.691  0.00  0.00    -0.471 OA
ATOM     35  C   UNL     1       6.530   7.463   1.770  0.00  0.00    +0.252 C 
ENDBRANCH  12  34
BRANCH   3  36
ATOM     36  O   UNL     1       3.423   5.792  -7.325  0.00  0.00    -0.328 OA
BRANCH  36  37
ATOM     37  C   UNL     1       3.505   6.593  -8.628  0.00  0.00    +0.237 C 
ATOM     38  O   UNL     1       5.007   6.248  -8.766  0.00  0.00    -0.330 OA
ATOM     39  C   UNL     1       5.026   5.407 -10.018  0.00  0.00    +0.150 C 
ATOM     40  C   UNL     1       6.619   5.684 -10.306  0.00  0.00    +0.035 C 
ATOM     41  C   UNL     1       4.600   6.647 -11.139  0.00  0.00    +0.199 C 
ATOM     42  O   UNL     1       4.789   7.840 -10.253  0.00  0.00    -0.219 OA
ATOM     43  C   UNL     1       2.911   6.492 -10.852  0.00  0.00    +0.133 C 
ATOM     44  C   UNL     1       3.003   5.360  -9.663  0.00  0.00    +0.086 C 
BRANCH  43  45
ATOM     45  N   UNL     1       2.803   5.485 -12.052  0.00  0.00    -0.197 NA
ATOM     46  C   UNL     1       1.518   5.551 -12.687  0.00  0.00    +0.337 C 
ATOM     47  O   UNL     1       0.759   6.528 -12.404  0.00  0.00    -0.264 OA
BRANCH  46  48
ATOM     48  C   UNL     1       1.191   4.891 -13.980  0.00  0.00    +0.471 C 
ATOM     49  F   UNL     1       0.165   3.992 -13.843  0.00  0.00    -0.162 F 
ATOM     50  F   UNL     1       2.310   4.154 -14.364  0.00  0.00    -0.162 F 
ATOM     51  F   UNL     1       0.930   5.877 -14.918  0.00  0.00    -0.162 F 
ENDBRANCH  46  48
ENDBRANCH  43  45
ENDBRANCH  36  37
ENDBRANCH   3  36
TORSDOF 12
ENDMDL
MODEL 5
REMARK VINA RESULT:      -7.4      1.150      1.682
REMARK  Name = 
REMARK  12 active torsions:
REMARK  status: ('A' for Active; 'I' for Inactive)
REMARK    1  A    between atoms: C_2  and  C_3
REMARK    2  A    between atoms: C_3  and  C_4
REMARK    3  A    between atoms: C_4  and  C_5
REMARK    4  A    between atoms: C_5  and  O_7
REMARK    5  A    between atoms: O_7  and  C_8
REMARK    6  A    between atoms: C_8  and  C_9
REMARK    7  A    between atoms: C_9  and  C_11
REMARK    8  A    between atoms: C_22  and  O_23
REMARK    9  A    between atoms: O_23  and  C_24
REMARK   10  A    between atoms: C_26  and  N_27
REMARK   11  A    between atoms: C_28  and  C_30
REMARK   12  A    between atoms: C_43  and  O_44
REMARK                            x       y       z     vdW  Elec       q    Type
REMARK                         _______ _______ _______ _____ _____    ______ ____
ROOT
ATOM      1  C   UNL     1       1.121   5.780 -10.103  0.00  0.00    +0.188 C 
ATOM      2  C   UNL     1       1.587   7.045  -9.612  0.00  0.00    +0.072 C 
ATOM      3  C   UNL     1       3.060   6.932  -8.865  0.00  0.00    +0.146 C 
ATOM      4  C   UNL     1       2.617   5.674  -7.907  0.00  0.00    +0.043 A 
ATOM      5  C   UNL     1       1.282   5.412  -7.816  0.00  0.00    +0.021 A 
ATOM      6  C   UNL     1       0.534   5.336  -6.674  0.00  0.00    +0.195 A 
ATOM      7  C   UNL     1       1.094   5.789  -5.514  0.00  0.00    +0.084 A 
ATOM      8  C   UNL     1       0.271   6.229  -4.392  0.00  0.00    +0.199 C 
ATOM      9  O   UNL     1      -0.971   6.148  -4.451  0.00  0.00    -0.286 OA
ATOM     10  C   UNL     1       0.904   6.406  -3.092  0.00  0.00    +0.045 A 
ATOM     11  C   UNL     1       2.247   6.078  -2.938  0.00  0.00    +0.076 A 
ATOM     12  C   UNL     1       2.757   5.667  -1.709  0.00  0.00    +0.142 A 
ATOM     13  C   UNL     1       1.927   5.779  -0.610  0.00  0.00    +0.037 A 
ATOM     14  C   UNL     1       0.723   6.425  -0.690  0.00  0.00    +0.003 A 
ATOM     15  C   UNL     1       3.074   5.988  -4.147  0.00  0.00    +0.202 C 
ATOM     16  O   UNL     1       4.279   5.691  -4.016  0.00  0.00    -0.286 OA
ATOM     17  C   UNL     1       0.229   6.751  -1.947  0.00  0.00    +0.003 A 
ATOM     18  C   UNL     1       2.464   5.861  -5.470  0.00  0.00    +0.084 A 
ATOM     19  O   UNL     1      -0.780   4.858  -6.629  0.00  0.00    -0.287 OA
ATOM     20  C   UNL     1       3.184   5.842  -6.641  0.00  0.00    +0.197 A 
ATOM     21  O   UNL     1       4.530   6.071  -6.513  0.00  0.00    -0.287 OA
ATOM     22  C   UNL     1       0.556   4.872  -9.012  0.00  0.00    +0.067 C 
ATOM     23  O   UNL     1       1.876   4.926 -10.849  0.00  0.00    -0.218 OA
ENDROOT
BRANCH   1  24
ATOM     24  C   UNL     1      -0.051   6.087 -10.992  0.00  0.00    +0.222 C 
ATOM     25  O   UNL     1      -0.465   5.198 -11.737  0.00  0.00    -0.290 OA
BRANCH  24  26
ATOM     26  C   UNL     1      -0.232   7.446 -11.616  0.00  0.00    +0.275 C 
BRANCH  26  27
ATOM     27  O   UNL     1      -0.423   7.251 -13.016  0.00  0.00    -0.440 OA
BRANCH  27  28
ATOM     28  C   UNL     1       0.440   7.828 -13.952  0.00  0.00    +0.317 C 
ATOM     29  O   UNL     1       0.622   9.060 -13.900  0.00  0.00    -0.250 OA
BRANCH  28  30
ATOM     30  C   UNL     1       0.984   7.051 -15.098  0.00  0.00    +0.110 C 
BRANCH  30  31
ATOM     31  C   UNL     1       2.311   6.393 -14.758  0.00  0.00    +0.012 C 
BRANCH  31  33
ATOM     32  C   UNL     1       2.945   4.106 -14.217  0.00  0.00    +0.000 C 
ATOM     33  C   UNL     1       2.054   5.219 -13.825  0.00  0.00    +0.001 C 
ENDBRANCH  31  33
ENDBRANCH  30  31
ENDBRANCH  28  30
ENDBRANCH  27  28
ENDBRANCH  26  27
ENDBRANCH  24  26
ENDBRANCH   1  24
BRANCH  12  34
ATOM     34  O   UNL     1       3.778   4.709  -1.723  0.00  0.00    -0.471 OA
ATOM     35  C   UNL     1       3.376   3.394  -1.342  0.00  0.00    +0.252 C 
ENDBRANCH  12  34
BRANCH   3  36
ATOM     36  O   UNL     1       3.596   6.121 -10.035  0.00  0.00    -0.328 OA
BRANCH  36  37
ATOM     37  C   UNL     1       4.701   7.026 -10.590  0.00  0.00    +0.237 C 
ATOM     38  O   UNL     1       5.759   6.285  -9.740  0.00  0.00    -0.330 OA
ATOM     39  C   UNL     1       6.623   5.643 -10.797  0.00  0.00    +0.150 C 
ATOM     40  C   UNL     1       7.915   5.484  -9.795  0.00  0.00    +0.035 C 
ATOM     41  C   UNL     1       7.300   7.087 -11.455  0.00  0.00    +0.199 C 
ATOM     42  O   UNL     1       6.882   8.050 -10.387  0.00  0.00    -0.219 OA
ATOM     43  C   UNL     1       5.958   7.388 -12.487  0.00  0.00    +0.133 C 
ATOM     44  C   UNL     1       5.020   6.134 -11.985  0.00  0.00    +0.086 C 
BRANCH  43  45
ATOM     45  N   UNL     1       6.681   6.618 -13.648  0.00  0.00    -0.197 NA
ATOM     46  C   UNL     1       6.339   7.152 -14.935  0.00  0.00    +0.337 C 
ATOM     47  O   UNL     1       5.744   8.272 -14.980  0.00  0.00    -0.264 OA
BRANCH  46  48
ATOM     48  C   UNL     1       7.031   6.788 -16.201  0.00  0.00    +0.471 C 
ATOM     49  F   UNL     1       7.168   7.871 -17.031  0.00  0.00    -0.162 F 
ATOM     50  F   UNL     1       6.214   5.880 -16.872  0.00  0.00    -0.162 F 
ATOM     51  F   UNL     1       8.240   6.191 -15.881  0.00  0.00    -0.162 F 
ENDBRANCH  46  48
ENDBRANCH  43  45
ENDBRANCH  36  37
ENDBRANCH   3  36
TORSDOF 12
ENDMDL
MODEL 6
REMARK VINA RESULT:      -6.9      6.059     11.996
REMARK  Name = 
REMARK  12 active torsions:
REMARK  status: ('A' for Active; 'I' for Inactive)
REMARK    1  A    between atoms: C_2  and  C_3
REMARK    2  A    between atoms: C_3  and  C_4
REMARK    3  A    between atoms: C_4  and  C_5
REMARK    4  A    between atoms: C_5  and  O_7
REMARK    5  A    between atoms: O_7  and  C_8
REMARK    6  A    between atoms: C_8  and  C_9
REMARK    7  A    between atoms: C_9  and  C_11
REMARK    8  A    between atoms: C_22  and  O_23
REMARK    9  A    between atoms: O_23  and  C_24
REMARK   10  A    between atoms: C_26  and  N_27
REMARK   11  A    between atoms: C_28  and  C_30
REMARK   12  A    between atoms: C_43  and  O_44
REMARK                            x       y       z     vdW  Elec       q    Type
REMARK                         _______ _______ _______ _____ _____    ______ ____
ROOT
ATOM      1  C   UNL     1       3.085   5.852  -4.867  0.00  0.00    +0.188 C 
ATOM      2  C   UNL     1       2.466   7.024  -5.414  0.00  0.00    +0.072 C 
ATOM      3  C   UNL     1       1.011   6.696  -6.134  0.00  0.00    +0.146 C 
ATOM      4  C   UNL     1       1.597   5.455  -7.035  0.00  0.00    +0.043 A 
ATOM      5  C   UNL     1       2.953   5.351  -7.131  0.00  0.00    +0.021 A 
ATOM      6  C   UNL     1       3.697   5.309  -8.279  0.00  0.00    +0.195 A 
ATOM      7  C   UNL     1       3.076   5.631  -9.451  0.00  0.00    +0.084 A 
ATOM      8  C   UNL     1       3.832   6.111 -10.605  0.00  0.00    +0.199 C 
ATOM      9  O   UNL     1       5.074   6.183 -10.559  0.00  0.00    -0.286 OA
ATOM     10  C   UNL     1       3.172   6.144 -11.903  0.00  0.00    +0.045 A 
ATOM     11  C   UNL     1       1.878   5.649 -12.023  0.00  0.00    +0.076 A 
ATOM     12  C   UNL     1       1.412   5.118 -13.223  0.00  0.00    +0.142 A 
ATOM     13  C   UNL     1       2.215   5.273 -14.337  0.00  0.00    +0.037 A 
ATOM     14  C   UNL     1       3.332   6.064 -14.306  0.00  0.00    +0.003 A 
ATOM     15  C   UNL     1       1.077   5.520 -10.799  0.00  0.00    +0.202 C 
ATOM     16  O   UNL     1      -0.084   5.073 -10.900  0.00  0.00    -0.286 OA
ATOM     17  C   UNL     1       3.791   6.510 -13.073  0.00  0.00    +0.003 A 
ATOM     18  C   UNL     1       1.707   5.536  -9.481  0.00  0.00    +0.084 A 
ATOM     19  O   UNL     1       5.058   4.992  -8.317  0.00  0.00    -0.287 OA
ATOM     20  C   UNL     1       1.004   5.489  -8.300  0.00  0.00    +0.197 A 
ATOM     21  O   UNL     1      -0.360   5.546  -8.421  0.00  0.00    -0.287 OA
ATOM     22  C   UNL     1       3.748   4.965  -5.920  0.00  0.00    +0.067 C 
ATOM     23  O   UNL     1       2.446   4.951  -4.071  0.00  0.00    -0.218 OA
ENDROOT
BRANCH   1  24
ATOM     24  C   UNL     1       4.218   6.343  -4.010  0.00  0.00    +0.222 C 
ATOM     25  O   UNL     1       5.171   5.587  -3.816  0.00  0.00    -0.290 OA
BRANCH  24  26
ATOM     26  C   UNL     1       3.976   7.229  -2.817  0.00  0.00    +0.275 C 
BRANCH  26  27
ATOM     27  O   UNL     1       3.169   6.495  -1.898  0.00  0.00    -0.440 OA
BRANCH  27  28
ATOM     28  C   UNL     1       3.745   5.688  -0.913  0.00  0.00    +0.317 C 
ATOM     29  O   UNL     1       4.124   6.232   0.143  0.00  0.00    -0.250 OA
BRANCH  28  30
ATOM     30  C   UNL     1       4.081   4.261  -1.169  0.00  0.00    +0.110 C 
BRANCH  30  31
ATOM     31  C   UNL     1       2.863   3.361  -1.043  0.00  0.00    +0.012 C 
BRANCH  31  33
ATOM     32  C   UNL     1       2.368   0.994  -0.769  0.00  0.00    +0.000 C 
ATOM     33  C   UNL     1       3.270   2.079  -0.331  0.00  0.00    +0.001 C 
ENDBRANCH  31  33
ENDBRANCH  30  31
ENDBRANCH  28  30
ENDBRANCH  27  28
ENDBRANCH  26  27
ENDBRANCH  24  26
ENDBRANCH   1  24
BRANCH  12  34
ATOM     34  O   UNL     1       0.516   4.045 -13.148  0.00  0.00    -0.471 OA
ATOM     35  C   UNL     1       0.122   3.500 -14.406  0.00  0.00    +0.252 C 
ENDBRANCH  12  34
BRANCH   3  36
ATOM     36  O   UNL     1       0.587   5.887  -4.918  0.00  0.00    -0.328 OA
BRANCH  36  37
ATOM     37  C   UNL     1      -0.441   6.805  -4.248  0.00  0.00    +0.237 C 
ATOM     38  O   UNL     1      -1.594   5.891  -4.727  0.00  0.00    -0.330 OA
ATOM     39  C   UNL     1      -2.146   5.368  -3.424  0.00  0.00    +0.150 C 
ATOM     40  C   UNL     1      -3.609   4.996  -4.072  0.00  0.00    +0.035 C 
ATOM     41  C   UNL     1      -2.781   6.856  -2.825  0.00  0.00    +0.199 C 
ATOM     42  O   UNL     1      -2.692   7.671  -4.078  0.00  0.00    -0.219 OA
ATOM     43  C   UNL     1      -1.275   7.377  -2.179  0.00  0.00    +0.133 C 
ATOM     44  C   UNL     1      -0.368   6.113  -2.713  0.00  0.00    +0.086 C 
BRANCH  43  45
ATOM     45  N   UNL     1      -1.657   6.749  -0.790  0.00  0.00    -0.197 NA
ATOM     46  C   UNL     1      -1.417   7.662   0.290  0.00  0.00    +0.337 C 
ATOM     47  O   UNL     1      -1.189   8.878   0.007  0.00  0.00    -0.264 OA
BRANCH  46  48
ATOM     48  C   UNL     1      -1.886   7.447   1.685  0.00  0.00    +0.471 C 
ATOM     49  F   UNL     1      -1.404   8.409   2.535  0.00  0.00    -0.162 F 
ATOM     50  F   UNL     1      -1.352   6.235   2.120  0.00  0.00    -0.162 F 
ATOM     51  F   UNL     1      -3.270   7.376   1.673  0.00  0.00    -0.162 F 
ENDBRANCH  46  48
ENDBRANCH  43  45
ENDBRANCH  36  37
ENDBRANCH   3  36
TORSDOF 12
ENDMDL
MODEL 7
REMARK VINA RESULT:      -6.7      1.658      2.406
REMARK  Name = 
REMARK  12 active torsions:
REMARK  status: ('A' for Active; 'I' for Inactive)
REMARK    1  A    between atoms: C_2  and  C_3
REMARK    2  A    between atoms: C_3  and  C_4
REMARK    3  A    between atoms: C_4  and  C_5
REMARK    4  A    between atoms: C_5  and  O_7
REMARK    5  A    between atoms: O_7  and  C_8
REMARK    6  A    between atoms: C_8  and  C_9
REMARK    7  A    between atoms: C_9  and  C_11
REMARK    8  A    between atoms: C_22  and  O_23
REMARK    9  A    between atoms: O_23  and  C_24
REMARK   10  A    between atoms: C_26  and  N_27
REMARK   11  A    between atoms: C_28  and  C_30
REMARK   12  A    between atoms: C_43  and  O_44
REMARK                            x       y       z     vdW  Elec       q    Type
REMARK                         _______ _______ _______ _____ _____    ______ ____
ROOT
ATOM      1  C   UNL     1       1.399   5.511 -10.864  0.00  0.00    +0.188 C 
ATOM      2  C   UNL     1       1.752   6.816 -10.385  0.00  0.00    +0.072 C 
ATOM      3  C   UNL     1       3.131   6.804  -9.467  0.00  0.00    +0.146 C 
ATOM      4  C   UNL     1       2.627   5.571  -8.506  0.00  0.00    +0.043 A 
ATOM      5  C   UNL     1       1.302   5.253  -8.558  0.00  0.00    +0.021 A 
ATOM      6  C   UNL     1       0.428   5.194  -7.509  0.00  0.00    +0.195 A 
ATOM      7  C   UNL     1       0.828   5.723  -6.316  0.00  0.00    +0.084 A 
ATOM      8  C   UNL     1      -0.140   6.175  -5.320  0.00  0.00    +0.199 C 
ATOM      9  O   UNL     1      -1.361   6.035  -5.519  0.00  0.00    -0.286 OA
ATOM     10  C   UNL     1       0.328   6.438  -3.966  0.00  0.00    +0.045 A 
ATOM     11  C   UNL     1       1.655   6.179  -3.640  0.00  0.00    +0.076 A 
ATOM     12  C   UNL     1       2.032   5.847  -2.341  0.00  0.00    +0.142 A 
ATOM     13  C   UNL     1       1.073   5.969  -1.353  0.00  0.00    +0.037 A 
ATOM     14  C   UNL     1      -0.137   6.556  -1.605  0.00  0.00    +0.003 A 
ATOM     15  C   UNL     1       2.623   6.072  -4.739  0.00  0.00    +0.202 C 
ATOM     16  O   UNL     1       3.815   5.836  -4.453  0.00  0.00    -0.286 OA
ATOM     17  C   UNL     1      -0.491   6.803  -2.926  0.00  0.00    +0.003 A 
ATOM     18  C   UNL     1       2.179   5.860  -6.115  0.00  0.00    +0.084 A 
ATOM     19  O   UNL     1      -0.862   4.659  -7.594  0.00  0.00    -0.287 OA
ATOM     20  C   UNL     1       3.033   5.821  -7.193  0.00  0.00    +0.197 A 
ATOM     21  O   UNL     1       4.344   6.116  -6.920  0.00  0.00    -0.287 OA
ATOM     22  C   UNL     1       0.745   4.628  -9.803  0.00  0.00    +0.067 C 
ATOM     23  O   UNL     1       2.270   4.660 -11.473  0.00  0.00    -0.218 OA
ENDROOT
BRANCH   1  24
ATOM     24  C   UNL     1       0.329   5.725 -11.898  0.00  0.00    +0.222 C 
ATOM     25  O   UNL     1      -0.698   5.050 -11.820  0.00  0.00    -0.290 OA
BRANCH  24  26
ATOM     26  C   UNL     1       0.671   6.032 -13.332  0.00  0.00    +0.275 C 
BRANCH  26  27
ATOM     27  O   UNL     1       1.424   4.930 -13.836  0.00  0.00    -0.440 OA
BRANCH  27  28
ATOM     28  C   UNL     1       0.790   3.802 -14.365  0.00  0.00    +0.317 C 
ATOM     29  O   UNL     1       1.369   2.702 -14.262  0.00  0.00    -0.250 OA
BRANCH  28  30
ATOM     30  C   UNL     1      -0.440   3.913 -15.194  0.00  0.00    +0.110 C 
BRANCH  30  31
ATOM     31  C   UNL     1      -1.334   2.692 -15.048  0.00  0.00    +0.012 C 
BRANCH  31  33
ATOM     32  C   UNL     1      -2.397   2.535 -17.232  0.00  0.00    +0.000 C 
ATOM     33  C   UNL     1      -1.356   1.937 -16.369  0.00  0.00    +0.001 C 
ENDBRANCH  31  33
ENDBRANCH  30  31
ENDBRANCH  28  30
ENDBRANCH  27  28
ENDBRANCH  26  27
ENDBRANCH  24  26
ENDBRANCH   1  24
BRANCH  12  34
ATOM     34  O   UNL     1       3.084   4.936  -2.188  0.00  0.00    -0.471 OA
ATOM     35  C   UNL     1       3.837   5.079  -0.985  0.00  0.00    +0.252 C 
ENDBRANCH  12  34
BRANCH   3  36
ATOM     36  O   UNL     1       3.833   5.967 -10.525  0.00  0.00    -0.328 OA
BRANCH  36  37
ATOM     37  C   UNL     1       4.955   6.898 -10.996  0.00  0.00    +0.237 C 
ATOM     38  O   UNL     1       5.995   6.078 -10.196  0.00  0.00    -0.330 OA
ATOM     39  C   UNL     1       6.862   5.510 -11.291  0.00  0.00    +0.150 C 
ATOM     40  C   UNL     1       8.141   5.256 -10.292  0.00  0.00    +0.035 C 
ATOM     41  C   UNL     1       7.564   6.992 -11.827  0.00  0.00    +0.199 C 
ATOM     42  O   UNL     1       7.146   7.874 -10.691  0.00  0.00    -0.219 OA
ATOM     43  C   UNL     1       6.237   7.391 -12.846  0.00  0.00    +0.133 C 
ATOM     44  C   UNL     1       5.279   6.113 -12.453  0.00  0.00    +0.086 C 
BRANCH  43  45
ATOM     45  N   UNL     1       6.964   6.704 -14.057  0.00  0.00    -0.197 NA
ATOM     46  C   UNL     1       6.500   7.214 -15.314  0.00  0.00    +0.337 C 
ATOM     47  O   UNL     1       5.799   8.272 -15.310  0.00  0.00    -0.264 OA
BRANCH  46  48
ATOM     48  C   UNL     1       7.150   6.930 -16.622  0.00  0.00    +0.471 C 
ATOM     49  F   UNL     1       7.283   5.583 -16.839  0.00  0.00    -0.162 F 
ATOM     50  F   UNL     1       8.443   7.448 -16.563  0.00  0.00    -0.162 F 
ATOM     51  F   UNL     1       6.428   7.573 -17.616  0.00  0.00    -0.162 F 
ENDBRANCH  46  48
ENDBRANCH  43  45
ENDBRANCH  36  37
ENDBRANCH   3  36
TORSDOF 12
ENDMDL
MODEL 8
REMARK VINA RESULT:      -6.5      2.669      4.402
REMARK  Name = 
REMARK  12 active torsions:
REMARK  status: ('A' for Active; 'I' for Inactive)
REMARK    1  A    between atoms: C_2  and  C_3
REMARK    2  A    between atoms: C_3  and  C_4
REMARK    3  A    between atoms: C_4  and  C_5
REMARK    4  A    between atoms: C_5  and  O_7
REMARK    5  A    between atoms: O_7  and  C_8
REMARK    6  A    between atoms: C_8  and  C_9
REMARK    7  A    between atoms: C_9  and  C_11
REMARK    8  A    between atoms: C_22  and  O_23
REMARK    9  A    between atoms: O_23  and  C_24
REMARK   10  A    between atoms: C_26  and  N_27
REMARK   11  A    between atoms: C_28  and  C_30
REMARK   12  A    between atoms: C_43  and  O_44
REMARK                            x       y       z     vdW  Elec       q    Type
REMARK                         _______ _______ _______ _____ _____    ______ ____
ROOT
ATOM      1  C   UNL     1       1.059   5.236  -6.128  0.00  0.00    +0.188 C 
ATOM      2  C   UNL     1       1.551   6.583  -6.119  0.00  0.00    +0.072 C 
ATOM      3  C   UNL     1       3.125   6.680  -5.612  0.00  0.00    +0.146 C 
ATOM      4  C   UNL     1       2.874   5.778  -4.262  0.00  0.00    +0.043 A 
ATOM      5  C   UNL     1       1.578   5.576  -3.890  0.00  0.00    +0.021 A 
ATOM      6  C   UNL     1       1.015   5.861  -2.677  0.00  0.00    +0.195 A 
ATOM      7  C   UNL     1       1.731   6.635  -1.810  0.00  0.00    +0.084 A 
ATOM      8  C   UNL     1       1.073   7.407  -0.759  0.00  0.00    +0.199 C 
ATOM      9  O   UNL     1      -0.159   7.330  -0.597  0.00  0.00    -0.286 OA
ATOM     10  C   UNL     1       1.891   7.960   0.312  0.00  0.00    +0.045 A 
ATOM     11  C   UNL     1       3.252   7.674   0.348  0.00  0.00    +0.076 A 
ATOM     12  C   UNL     1       3.956   7.648   1.549  0.00  0.00    +0.142 A 
ATOM     13  C   UNL     1       3.299   8.099   2.678  0.00  0.00    +0.037 A 
ATOM     14  C   UNL     1       2.077   8.709   2.595  0.00  0.00    +0.003 A 
ATOM     15  C   UNL     1       3.888   7.210  -0.891  0.00  0.00    +0.202 C 
ATOM     16  O   UNL     1       5.108   6.948  -0.864  0.00  0.00    -0.286 OA
ATOM     17  C   UNL     1       1.387   8.645   1.390  0.00  0.00    +0.003 A 
ATOM     18  C   UNL     1       3.088   6.698  -2.002  0.00  0.00    +0.084 A 
ATOM     19  O   UNL     1      -0.260   5.438  -2.287  0.00  0.00    -0.287 OA
ATOM     20  C   UNL     1       3.622   6.313  -3.210  0.00  0.00    +0.197 A 
ATOM     21  O   UNL     1       4.962   6.550  -3.367  0.00  0.00    -0.287 OA
ATOM     22  C   UNL     1       0.696   4.710  -4.740  0.00  0.00    +0.067 C 
ATOM     23  O   UNL     1       1.719   4.185  -6.689  0.00  0.00    -0.218 OA
ENDROOT
BRANCH   1  24
ATOM     24  C   UNL     1      -0.245   5.277  -6.876  0.00  0.00    +0.222 C 
ATOM     25  O   UNL     1      -0.964   4.277  -6.847  0.00  0.00    -0.290 OA
BRANCH  24  26
ATOM     26  C   UNL     1      -0.377   6.004  -8.188  0.00  0.00    +0.275 C 
BRANCH  26  27
ATOM     27  O   UNL     1      -0.143   5.054  -9.226  0.00  0.00    -0.440 OA
BRANCH  27  28
ATOM     28  C   UNL     1       0.001   5.458 -10.557  0.00  0.00    +0.317 C 
ATOM     29  O   UNL     1       0.136   4.575 -11.426  0.00  0.00    -0.250 OA
BRANCH  28  30
ATOM     30  C   UNL     1       0.181   6.888 -10.925  0.00  0.00    +0.110 C 
BRANCH  30  31
ATOM     31  C   UNL     1      -0.633   7.265 -12.152  0.00  0.00    +0.012 C 
BRANCH  31  33
ATOM     32  C   UNL     1       0.260   7.204 -14.415  0.00  0.00    +0.000 C 
ATOM     33  C   UNL     1       0.277   7.967 -13.150  0.00  0.00    +0.001 C 
ENDBRANCH  31  33
ENDBRANCH  30  31
ENDBRANCH  28  30
ENDBRANCH  27  28
ENDBRANCH  26  27
ENDBRANCH  24  26
ENDBRANCH   1  24
BRANCH  12  34
ATOM     34  O   UNL     1       4.994   6.715   1.667  0.00  0.00    -0.471 OA
ATOM     35  C   UNL     1       5.922   6.975   2.718  0.00  0.00    +0.252 C 
ENDBRANCH  12  34
BRANCH   3  36
ATOM     36  O   UNL     1       3.502   5.545  -6.551  0.00  0.00    -0.328 OA
BRANCH  36  37
ATOM     37  C   UNL     1       3.820   6.283  -7.855  0.00  0.00    +0.237 C 
ATOM     38  O   UNL     1       5.309   5.877  -7.743  0.00  0.00    -0.330 OA
ATOM     39  C   UNL     1       5.485   4.981  -8.943  0.00  0.00    +0.150 C 
ATOM     40  C   UNL     1       7.114   5.186  -8.989  0.00  0.00    +0.035 C 
ATOM     41  C   UNL     1       5.291   6.184 -10.165  0.00  0.00    +0.199 C 
ATOM     42  O   UNL     1       5.393   7.407  -9.307  0.00  0.00    -0.219 OA
ATOM     43  C   UNL     1       3.574   6.104 -10.139  0.00  0.00    +0.133 C 
ATOM     44  C   UNL     1       3.431   5.024  -8.907  0.00  0.00    +0.086 C 
BRANCH  43  45
ATOM     45  N   UNL     1       3.609   5.048 -11.301  0.00  0.00    -0.197 NA
ATOM     46  C   UNL     1       3.259   5.633 -12.563  0.00  0.00    +0.337 C 
ATOM     47  O   UNL     1       3.221   6.899 -12.646  0.00  0.00    -0.264 OA
BRANCH  46  48
ATOM     48  C   UNL     1       3.421   4.950 -13.874  0.00  0.00    +0.471 C 
ATOM     49  F   UNL     1       3.739   5.836 -14.871  0.00  0.00    -0.162 F 
ATOM     50  F   UNL     1       2.184   4.406 -14.213  0.00  0.00    -0.162 F 
ATOM     51  F   UNL     1       4.358   3.938 -13.726  0.00  0.00    -0.162 F 
ENDBRANCH  46  48
ENDBRANCH  43  45
ENDBRANCH  36  37
ENDBRANCH   3  36
TORSDOF 12
ENDMDL
