MODEL 1
REMARK VINA RESULT:      -4.7      0.000      0.000
REMARK  Name = 
REMARK  5 active torsions:
REMARK  status: ('A' for Active; 'I' for Inactive)
REMARK    1  A    between atoms: C_2  and  C_4
REMARK    2  A    between atoms: C_4  and  C_5
REMARK    3  A    between atoms: C_5  and  C_7
REMARK    4  A    between atoms: C_5  and  C_11
REMARK    5  A    between atoms: C_7  and  C_8
REMARK                            x       y       z     vdW  Elec       q    Type
REMARK                         _______ _______ _______ _____ _____    ______ ____
ROOT
ATOM      1  C   UNL     1       0.282   6.088  -6.008  0.00  0.00    +0.240 C 
ATOM      2  O   UNL     1       0.458   7.268  -5.317  0.00  0.00    -0.213 OA
ENDROOT
BRANCH   1   3
ATOM      3  C   UNL     1       0.940   4.962  -5.281  0.00  0.00    +0.393 C 
ATOM      4  O   UNL     1       1.189   3.805  -5.987  0.00  0.00    -0.243 OA
ATOM      5  O   UNL     1       0.903   5.031  -4.021  0.00  0.00    -0.243 OA
ENDBRANCH   1   3
BRANCH   1   6
ATOM      6  C   UNL     1       1.026   6.235  -7.326  0.00  0.00    +0.156 C 
BRANCH   6   8
ATOM      7  O   UNL     1       2.038   8.318  -7.793  0.00  0.00    -0.246 OA
ATOM      8  C   UNL     1       2.119   7.211  -7.180  0.00  0.00    +0.368 C 
ATOM      9  O   UNL     1       3.250   7.018  -6.415  0.00  0.00    -0.246 OA
ENDBRANCH   6   8
ENDBRANCH   1   6
BRANCH   1  10
ATOM     10  C   UNL     1      -1.143   5.767  -6.339  0.00  0.00    +0.156 C 
BRANCH  10  11
ATOM     11  C   UNL     1      -2.115   6.287  -5.360  0.00  0.00    +0.368 C 
ATOM     12  O   UNL     1      -2.628   5.384  -4.430  0.00  0.00    -0.246 OA
ATOM     13  O   UNL     1      -2.821   7.320  -5.564  0.00  0.00    -0.246 OA
ENDBRANCH  10  11
ENDBRANCH   1  10
TORSDOF 5
ENDMDL
MODEL 2
REMARK VINA RESULT:      -4.6      2.515      4.365
REMARK  Name = 
REMARK  5 active torsions:
REMARK  status: ('A' for Active; 'I' for Inactive)
REMARK    1  A    between atoms: C_2  and  C_4
REMARK    2  A    between atoms: C_4  and  C_5
REMARK    3  A    between atoms: C_5  and  C_7
REMARK    4  A    between atoms: C_5  and  C_11
REMARK    5  A    between atoms: C_7  and  C_8
REMARK                            x       y       z     vdW  Elec       q    Type
REMARK                         _______ _______ _______ _____ _____    ______ ____
ROOT
ATOM      1  C   UNL     1       1.968   4.976  -8.103  0.00  0.00    +0.240 C 
ATOM      2  O   UNL     1       2.341   3.822  -8.758  0.00  0.00    -0.213 OA
ENDROOT
BRANCH   1   3
ATOM      3  C   UNL     1       1.553   4.664  -6.703  0.00  0.00    +0.393 C 
ATOM      4  O   UNL     1       2.433   3.948  -5.921  0.00  0.00    -0.243 OA
ATOM      5  O   UNL     1       0.319   4.780  -6.461  0.00  0.00    -0.243 OA
ENDBRANCH   1   3
BRANCH   1   6
ATOM      6  C   UNL     1       0.726   5.501  -8.807  0.00  0.00    +0.156 C 
BRANCH   6   8
ATOM      7  O   UNL     1       0.012   4.274 -10.696  0.00  0.00    -0.246 OA
ATOM      8  C   UNL     1       0.784   5.171 -10.241  0.00  0.00    +0.368 C 
ATOM      9  O   UNL     1       1.630   5.768 -11.152  0.00  0.00    -0.246 OA
ENDBRANCH   6   8
ENDBRANCH   1   6
BRANCH   1  10
ATOM     10  C   UNL     1       2.990   6.071  -8.139  0.00  0.00    +0.156 C 
BRANCH  10  11
ATOM     11  C   UNL     1       2.664   7.219  -7.273  0.00  0.00    +0.368 C 
ATOM     12  O   UNL     1       2.105   8.340  -7.885  0.00  0.00    -0.246 OA
ATOM     13  O   UNL     1       3.232   7.432  -6.159  0.00  0.00    -0.246 OA
ENDBRANCH  10  11
ENDBRANCH   1  10
TORSDOF 5
ENDMDL
MODEL 3
REMARK VINA RESULT:      -4.5      3.285      4.420
REMARK  Name = 
REMARK  5 active torsions:
REMARK  status: ('A' for Active; 'I' for Inactive)
REMARK    1  A    between atoms: C_2  and  C_4
REMARK    2  A    between atoms: C_4  and  C_5
REMARK    3  A    between atoms: C_5  and  C_7
REMARK    4  A    between atoms: C_5  and  C_11
REMARK    5  A    between atoms: C_7  and  C_8
REMARK                            x       y       z     vdW  Elec       q    Type
REMARK                         _______ _______ _______ _____ _____    ______ ____
ROOT
ATOM      1  C   UNL     1       1.798   5.328  -8.829  0.00  0.00    +0.240 C 
ATOM      2  O   UNL     1       0.840   5.723  -7.920  0.00  0.00    -0.213 OA
ENDROOT
BRANCH   1   3
ATOM      3  C   UNL     1       2.550   4.148  -8.306  0.00  0.00    +0.393 C 
ATOM      4  O   UNL     1       2.229   3.694  -7.045  0.00  0.00    -0.243 OA
ATOM      5  O   UNL     1       3.629   3.881  -8.905  0.00  0.00    -0.243 OA
ENDBRANCH   1   3
BRANCH   1   6
ATOM      6  C   UNL     1       2.805   6.463  -8.928  0.00  0.00    +0.156 C 
BRANCH   6   8
ATOM      7  O   UNL     1       2.082   8.444  -7.861  0.00  0.00    -0.246 OA
ATOM      8  C   UNL     1       2.693   7.338  -7.748  0.00  0.00    +0.368 C 
ATOM      9  O   UNL     1       3.211   7.051  -6.503  0.00  0.00    -0.246 OA
ENDBRANCH   6   8
ENDBRANCH   1   6
BRANCH   1  10
ATOM     10  C   UNL     1       1.280   5.077 -10.212  0.00  0.00    +0.156 C 
BRANCH  10  11
ATOM     11  C   UNL     1       1.154   6.296 -11.032  0.00  0.00    +0.368 C 
ATOM     12  O   UNL     1       0.005   7.066 -10.855  0.00  0.00    -0.246 OA
ATOM     13  O   UNL     1       1.750   6.453 -12.139  0.00  0.00    -0.246 OA
ENDBRANCH  10  11
ENDBRANCH   1  10
TORSDOF 5
ENDMDL
MODEL 4
REMARK VINA RESULT:      -4.4      1.938      2.856
REMARK  Name = 
REMARK  5 active torsions:
REMARK  status: ('A' for Active; 'I' for Inactive)
REMARK    1  A    between atoms: C_2  and  C_4
REMARK    2  A    between atoms: C_4  and  C_5
REMARK    3  A    between atoms: C_5  and  C_7
REMARK    4  A    between atoms: C_5  and  C_11
REMARK    5  A    between atoms: C_7  and  C_8
REMARK                            x       y       z     vdW  Elec       q    Type
REMARK                         _______ _______ _______ _____ _____    ______ ____
ROOT
ATOM      1  C   UNL     1      -0.663   5.983  -4.890  0.00  0.00    +0.240 C 
ATOM      2  O   UNL     1       0.182   4.906  -4.728  0.00  0.00    -0.213 OA
ENDROOT
BRANCH   1   3
ATOM      3  C   UNL     1      -1.628   5.719  -5.999  0.00  0.00    +0.393 C 
ATOM      4  O   UNL     1      -1.173   5.005  -7.085  0.00  0.00    -0.243 OA
ATOM      5  O   UNL     1      -2.659   6.448  -6.008  0.00  0.00    -0.243 OA
ENDBRANCH   1   3
BRANCH   1   6
ATOM      6  C   UNL     1       0.197   7.153  -5.345  0.00  0.00    +0.156 C 
BRANCH   6   8
ATOM      7  O   UNL     1       2.138   6.327  -6.408  0.00  0.00    -0.246 OA
ATOM      8  C   UNL     1       1.617   6.764  -5.338  0.00  0.00    +0.368 C 
ATOM      9  O   UNL     1       2.448   6.835  -4.239  0.00  0.00    -0.246 OA
ENDBRANCH   6   8
ENDBRANCH   1   6
BRANCH   1  10
ATOM     10  C   UNL     1      -1.369   6.415  -3.642  0.00  0.00    +0.156 C 
BRANCH  10  11
ATOM     11  C   UNL     1      -1.645   5.313  -2.702  0.00  0.00    +0.368 C 
ATOM     12  O   UNL     1      -2.888   4.689  -2.800  0.00  0.00    -0.246 OA
ATOM     13  O   UNL     1      -1.060   5.190  -1.583  0.00  0.00    -0.246 OA
ENDBRANCH  10  11
ENDBRANCH   1  10
TORSDOF 5
ENDMDL
MODEL 5
REMARK VINA RESULT:      -4.4      1.570      4.130
REMARK  Name = 
REMARK  5 active torsions:
REMARK  status: ('A' for Active; 'I' for Inactive)
REMARK    1  A    between atoms: C_2  and  C_4
REMARK    2  A    between atoms: C_4  and  C_5
REMARK    3  A    between atoms: C_5  and  C_7
REMARK    4  A    between atoms: C_5  and  C_11
REMARK    5  A    between atoms: C_7  and  C_8
REMARK                            x       y       z     vdW  Elec       q    Type
REMARK                         _______ _______ _______ _____ _____    ______ ____
ROOT
ATOM      1  C   UNL     1       1.531   5.668  -5.788  0.00  0.00    +0.240 C 
ATOM      2  O   UNL     1       0.524   5.491  -6.712  0.00  0.00    -0.213 OA
ENDROOT
BRANCH   1   3
ATOM      3  C   UNL     1       2.348   4.423  -5.669  0.00  0.00    +0.393 C 
ATOM      4  O   UNL     1       3.498   4.483  -4.913  0.00  0.00    -0.243 OA
ATOM      5  O   UNL     1       2.109   3.531  -6.530  0.00  0.00    -0.243 OA
ENDBRANCH   1   3
BRANCH   1   6
ATOM      6  C   UNL     1       0.861   5.867  -4.437  0.00  0.00    +0.156 C 
BRANCH   6   8
ATOM      7  O   UNL     1      -1.492   5.649  -4.478  0.00  0.00    -0.246 OA
ATOM      8  C   UNL     1      -0.493   6.416  -4.625  0.00  0.00    +0.368 C 
ATOM      9  O   UNL     1      -0.772   7.725  -4.958  0.00  0.00    -0.246 OA
ENDBRANCH   6   8
ENDBRANCH   1   6
BRANCH   1  10
ATOM     10  C   UNL     1       2.395   6.868  -6.031  0.00  0.00    +0.156 C 
BRANCH  10  11
ATOM     11  C   UNL     1       2.480   7.264  -7.449  0.00  0.00    +0.368 C 
ATOM     12  O   UNL     1       3.428   6.612  -8.237  0.00  0.00    -0.246 OA
ATOM     13  O   UNL     1       2.097   8.393  -7.879  0.00  0.00    -0.246 OA
ENDBRANCH  10  11
ENDBRANCH   1  10
TORSDOF 5
ENDMDL
MODEL 6
REMARK VINA RESULT:      -4.4      1.201      4.147
REMARK  Name = 
REMARK  5 active torsions:
REMARK  status: ('A' for Active; 'I' for Inactive)
REMARK    1  A    between atoms: C_2  and  C_4
REMARK    2  A    between atoms: C_4  and  C_5
REMARK    3  A    between atoms: C_5  and  C_7
REMARK    4  A    between atoms: C_5  and  C_11
REMARK    5  A    between atoms: C_7  and  C_8
REMARK                            x       y       z     vdW  Elec       q    Type
REMARK                         _______ _______ _______ _____ _____    ______ ____
ROOT
ATOM      1  C   UNL     1       0.215   6.125  -5.893  0.00  0.00    +0.240 C 
ATOM      2  O   UNL     1       0.147   7.216  -5.052  0.00  0.00    -0.213 OA
ENDROOT
BRANCH   1   3
ATOM      3  C   UNL     1      -1.158   5.705  -6.305  0.00  0.00    +0.393 C 
ATOM      4  O   UNL     1      -2.178   5.873  -5.394  0.00  0.00    -0.243 OA
ATOM      5  O   UNL     1      -1.214   4.931  -7.301  0.00  0.00    -0.243 OA
ENDBRANCH   1   3
BRANCH   1   6
ATOM      6  C   UNL     1       0.784   4.975  -5.076  0.00  0.00    +0.156 C 
BRANCH   6   8
ATOM      7  O   UNL     1       1.948   5.852  -3.216  0.00  0.00    -0.246 OA
ATOM      8  C   UNL     1       0.866   5.359  -3.657  0.00  0.00    +0.368 C 
ATOM      9  O   UNL     1      -0.159   5.223  -2.744  0.00  0.00    -0.246 OA
ENDBRANCH   6   8
ENDBRANCH   1   6
BRANCH   1  10
ATOM     10  C   UNL     1       1.110   6.308  -7.079  0.00  0.00    +0.156 C 
BRANCH  10  11
ATOM     11  C   UNL     1       2.073   7.416  -6.935  0.00  0.00    +0.368 C 
ATOM     12  O   UNL     1       2.075   8.392  -7.931  0.00  0.00    -0.246 OA
ATOM     13  O   UNL     1       3.142   7.324  -6.260  0.00  0.00    -0.246 OA
ENDBRANCH  10  11
ENDBRANCH   1  10
TORSDOF 5
ENDMDL
MODEL 7
REMARK VINA RESULT:      -4.4      3.396      4.901
REMARK  Name = 
REMARK  5 active torsions:
REMARK  status: ('A' for Active; 'I' for Inactive)
REMARK    1  A    between atoms: C_2  and  C_4
REMARK    2  A    between atoms: C_4  and  C_5
REMARK    3  A    between atoms: C_5  and  C_7
REMARK    4  A    between atoms: C_5  and  C_11
REMARK    5  A    between atoms: C_7  and  C_8
REMARK                            x       y       z     vdW  Elec       q    Type
REMARK                         _______ _______ _______ _____ _____    ______ ____
ROOT
ATOM      1  C   UNL     1       1.917   5.426  -9.350  0.00  0.00    +0.240 C 
ATOM      2  O   UNL     1       2.575   6.151 -10.321  0.00  0.00    -0.213 OA
ENDROOT
BRANCH   1   3
ATOM      3  C   UNL     1       2.776   4.298  -8.879  0.00  0.00    +0.393 C 
ATOM      4  O   UNL     1       2.397   3.645  -7.726  0.00  0.00    -0.243 OA
ATOM      5  O   UNL     1       3.938   4.256  -9.370  0.00  0.00    -0.243 OA
ENDBRANCH   1   3
BRANCH   1   6
ATOM      6  C   UNL     1       0.709   4.788 -10.019  0.00  0.00    +0.156 C 
BRANCH   6   8
ATOM      7  O   UNL     1      -0.422   6.618 -10.999  0.00  0.00    -0.246 OA
ATOM      8  C   UNL     1       0.299   5.591 -11.184  0.00  0.00    +0.368 C 
ATOM      9  O   UNL     1       0.640   5.312 -12.491  0.00  0.00    -0.246 OA
ENDBRANCH   6   8
ENDBRANCH   1   6
BRANCH   1  10
ATOM     10  C   UNL     1       1.407   6.241  -8.202  0.00  0.00    +0.156 C 
BRANCH  10  11
ATOM     11  C   UNL     1       2.335   7.298  -7.762  0.00  0.00    +0.368 C 
ATOM     12  O   UNL     1       3.231   6.976  -6.744  0.00  0.00    -0.246 OA
ATOM     13  O   UNL     1       2.100   8.535  -7.909  0.00  0.00    -0.246 OA
ENDBRANCH  10  11
ENDBRANCH   1  10
TORSDOF 5
ENDMDL
MODEL 8
REMARK VINA RESULT:      -4.3      2.040      4.020
REMARK  Name = 
REMARK  5 active torsions:
REMARK  status: ('A' for Active; 'I' for Inactive)
REMARK    1  A    between atoms: C_2  and  C_4
REMARK    2  A    between atoms: C_4  and  C_5
REMARK    3  A    between atoms: C_5  and  C_7
REMARK    4  A    between atoms: C_5  and  C_11
REMARK    5  A    between atoms: C_7  and  C_8
REMARK                            x       y       z     vdW  Elec       q    Type
REMARK                         _______ _______ _______ _____ _____    ______ ____
ROOT
ATOM      1  C   UNL     1       0.599   6.077  -4.616  0.00  0.00    +0.240 C 
ATOM      2  O   UNL     1       0.688   4.703  -4.672  0.00  0.00    -0.213 OA
ENDROOT
BRANCH   1   3
ATOM      3  C   UNL     1       1.935   6.691  -4.880  0.00  0.00    +0.393 C 
ATOM      4  O   UNL     1       2.636   7.182  -3.801  0.00  0.00    -0.243 OA
ATOM      5  O   UNL     1       2.158   7.015  -6.080  0.00  0.00    -0.243 OA
ENDBRANCH   1   3
BRANCH   1   6
ATOM      6  C   UNL     1       0.241   6.438  -3.183  0.00  0.00    +0.156 C 
BRANCH   6   8
ATOM      7  O   UNL     1       0.155   4.575  -1.733  0.00  0.00    -0.246 OA
ATOM      8  C   UNL     1      -0.472   5.317  -2.546  0.00  0.00    +0.368 C 
ATOM      9  O   UNL     1      -1.796   4.999  -2.768  0.00  0.00    -0.246 OA
ENDBRANCH   6   8
ENDBRANCH   1   6
BRANCH   1  10
ATOM     10  C   UNL     1      -0.458   6.669  -5.497  0.00  0.00    +0.156 C 
BRANCH  10  11
ATOM     11  C   UNL     1      -1.189   5.673  -6.303  0.00  0.00    +0.368 C 
ATOM     12  O   UNL     1      -0.734   5.447  -7.601  0.00  0.00    -0.246 OA
ATOM     13  O   UNL     1      -2.397   5.354  -6.085  0.00  0.00    -0.246 OA
ENDBRANCH  10  11
ENDBRANCH   1  10
TORSDOF 5
ENDMDL
MODEL 9
REMARK VINA RESULT:      -4.3      2.420      3.740
REMARK  Name = 
REMARK  5 active torsions:
REMARK  status: ('A' for Active; 'I' for Inactive)
REMARK    1  A    between atoms: C_2  and  C_4
REMARK    2  A    between atoms: C_4  and  C_5
REMARK    3  A    between atoms: C_5  and  C_7
REMARK    4  A    between atoms: C_5  and  C_11
REMARK    5  A    between atoms: C_7  and  C_8
REMARK                            x       y       z     vdW  Elec       q    Type
REMARK                         _______ _______ _______ _____ _____    ______ ____
ROOT
ATOM      1  C   UNL     1       2.461   5.977  -7.676  0.00  0.00    +0.240 C 
ATOM      2  O   UNL     1       2.013   6.047  -8.977  0.00  0.00    -0.213 OA
ENDROOT
BRANCH   1   3
ATOM      3  C   UNL     1       2.516   7.343  -7.074  0.00  0.00    +0.393 C 
ATOM      4  O   UNL     1       2.095   8.400  -7.851  0.00  0.00    -0.243 OA
ATOM      5  O   UNL     1       3.247   7.459  -6.052  0.00  0.00    -0.243 OA
ENDBRANCH   1   3
BRANCH   1   6
ATOM      6  C   UNL     1       3.897   5.479  -7.730  0.00  0.00    +0.156 C 
BRANCH   6   8
ATOM      7  O   UNL     1       3.644   3.537  -9.053  0.00  0.00    -0.246 OA
ATOM      8  C   UNL     1       4.116   4.711  -8.968  0.00  0.00    +0.368 C 
ATOM      9  O   UNL     1       4.809   5.172 -10.068  0.00  0.00    -0.246 OA
ENDBRANCH   6   8
ENDBRANCH   1   6
BRANCH   1  10
ATOM     10  C   UNL     1       1.698   5.027  -6.805  0.00  0.00    +0.156 C 
BRANCH  10  11
ATOM     11  C   UNL     1       0.323   5.466  -6.504  0.00  0.00    +0.368 C 
ATOM     12  O   UNL     1      -0.008   5.650  -5.162  0.00  0.00    -0.246 OA
ATOM     13  O   UNL     1      -0.656   5.269  -7.285  0.00  0.00    -0.246 OA
ENDBRANCH  10  11
ENDBRANCH   1  10
TORSDOF 5
ENDMDL
