MODEL 1
REMARK VINA RESULT:      -5.8      0.000      0.000
REMARK  Name = 
REMARK  4 active torsions:
REMARK  status: ('A' for Active; 'I' for Inactive)
REMARK    1  A    between atoms: N_2  and  O_4
REMARK    2  A    between atoms: O_4  and  C_5
REMARK    3  A    between atoms: C_9  and  O_10
REMARK    4  A    between atoms: O_10  and  N_11
REMARK                            x       y       z     vdW  Elec       q    Type
REMARK                         _______ _______ _______ _____ _____    ______ ____
ROOT
ATOM      1  C   UNL     1       5.737   6.095 -12.002  0.00  0.00    +0.307 C 
ATOM      2  C   UNL     1       4.599   5.218 -11.074  0.00  0.00    +0.196 C 
ATOM      3  C   UNL     1       3.712   6.614 -10.687  0.00  0.00    +0.196 C 
ATOM      4  C   UNL     1       3.893   6.400  -8.994  0.00  0.00    +0.307 C 
ATOM      5  C   UNL     1       4.166   4.793  -9.132  0.00  0.00    +0.196 C 
ATOM      6  O   UNL     1       4.830   7.584 -10.703  0.00  0.00    -0.345 OA
ATOM      7  O   UNL     1       5.364   5.181  -9.788  0.00  0.00    -0.345 OA
ATOM      8  C   UNL     1       5.985   7.085 -10.738  0.00  0.00    +0.196 C 
ENDROOT
BRANCH   1   9
ATOM      9  O   UNL     1       6.899   5.167 -11.646  0.00  0.00    -0.199 OA
BRANCH   9  11
ATOM     10  O   UNL     1       7.746   4.754 -13.420  0.00  0.00    +0.093 OA
ATOM     11  N   UNL     1       7.942   5.078 -12.517  0.00  0.00    +0.285 N 
ATOM     12  O   UNL     1       9.078   5.869 -12.481  0.00  0.00    -0.534 OA
ENDBRANCH   9  11
ENDBRANCH   1   9
BRANCH   4  13
ATOM     13  O   UNL     1       2.399   6.288  -8.740  0.00  0.00    -0.199 OA
BRANCH  13  14
ATOM     14  N   UNL     1       1.663   7.038  -7.963  0.00  0.00    +0.285 N 
ATOM     15  O   UNL     1       2.060   8.370  -7.820  0.00  0.00    -0.534 OA
ATOM     16  O   UNL     1       1.249   6.550  -6.872  0.00  0.00    +0.093 OA
ENDBRANCH  13  14
ENDBRANCH   4  13
TORSDOF 4
ENDMDL
MODEL 2
REMARK VINA RESULT:      -5.5      4.736      6.874
REMARK  Name = 
REMARK  4 active torsions:
REMARK  status: ('A' for Active; 'I' for Inactive)
REMARK    1  A    between atoms: N_2  and  O_4
REMARK    2  A    between atoms: O_4  and  C_5
REMARK    3  A    between atoms: C_9  and  O_10
REMARK    4  A    between atoms: O_10  and  N_11
REMARK                            x       y       z     vdW  Elec       q    Type
REMARK                         _______ _______ _______ _____ _____    ______ ____
ROOT
ATOM      1  C   UNL     1       3.192   5.573  -6.801  0.00  0.00    +0.307 C 
ATOM      2  C   UNL     1       4.356   5.788  -5.567  0.00  0.00    +0.196 C 
ATOM      3  C   UNL     1       3.590   4.678  -4.535  0.00  0.00    +0.196 C 
ATOM      4  C   UNL     1       3.376   5.824  -3.274  0.00  0.00    +0.307 C 
ATOM      5  C   UNL     1       4.596   6.775  -3.804  0.00  0.00    +0.196 C 
ATOM      6  O   UNL     1       2.199   4.893  -4.991  0.00  0.00    -0.345 OA
ATOM      7  O   UNL     1       3.760   7.003  -4.928  0.00  0.00    -0.345 OA
ATOM      8  C   UNL     1       2.015   5.896  -5.729  0.00  0.00    +0.196 C 
ENDROOT
BRANCH   1   9
ATOM      9  O   UNL     1       3.293   7.017  -7.293  0.00  0.00    -0.199 OA
BRANCH   9  11
ATOM     10  O   UNL     1       2.103   8.510  -7.917  0.00  0.00    +0.093 OA
ATOM     11  N   UNL     1       2.236   7.542  -7.972  0.00  0.00    +0.285 N 
ATOM     12  O   UNL     1       1.683   7.004  -9.122  0.00  0.00    -0.534 OA
ENDBRANCH   9  11
ENDBRANCH   1   9
BRANCH   4  13
ATOM     13  O   UNL     1       4.208   5.038  -2.273  0.00  0.00    -0.199 OA
BRANCH  13  14
ATOM     14  N   UNL     1       3.922   4.781  -1.024  0.00  0.00    +0.285 N 
ATOM     15  O   UNL     1       2.612   4.375  -0.753  0.00  0.00    -0.534 OA
ATOM     16  O   UNL     1       4.368   5.559  -0.133  0.00  0.00    +0.093 OA
ENDBRANCH  13  14
ENDBRANCH   4  13
TORSDOF 4
ENDMDL
MODEL 3
REMARK VINA RESULT:      -5.4      4.279      8.438
REMARK  Name = 
REMARK  4 active torsions:
REMARK  status: ('A' for Active; 'I' for Inactive)
REMARK    1  A    between atoms: N_2  and  O_4
REMARK    2  A    between atoms: O_4  and  C_5
REMARK    3  A    between atoms: C_9  and  O_10
REMARK    4  A    between atoms: O_10  and  N_11
REMARK                            x       y       z     vdW  Elec       q    Type
REMARK                         _______ _______ _______ _____ _____    ______ ____
ROOT
ATOM      1  C   UNL     1      -0.649   6.394  -5.223  0.00  0.00    +0.307 C 
ATOM      2  C   UNL     1       1.037   6.174  -5.046  0.00  0.00    +0.196 C 
ATOM      3  C   UNL     1       1.328   6.424  -6.701  0.00  0.00    +0.196 C 
ATOM      4  C   UNL     1       2.072   4.893  -6.919  0.00  0.00    +0.307 C 
ATOM      5  C   UNL     1       2.464   4.753  -5.337  0.00  0.00    +0.196 C 
ATOM      6  O   UNL     1       0.047   5.898  -7.221  0.00  0.00    -0.345 OA
ATOM      7  O   UNL     1       1.062   4.680  -5.128  0.00  0.00    -0.345 OA
ATOM      8  C   UNL     1      -0.661   5.267  -6.393  0.00  0.00    +0.196 C 
ENDROOT
BRANCH   1   9
ATOM      9  O   UNL     1      -1.001   5.404  -4.112  0.00  0.00    -0.199 OA
BRANCH   9  11
ATOM     10  O   UNL     1      -2.797   6.243  -3.786  0.00  0.00    +0.093 OA
ATOM     11  N   UNL     1      -2.159   5.596  -3.421  0.00  0.00    +0.285 N 
ATOM     12  O   UNL     1      -2.776   4.647  -2.624  0.00  0.00    -0.534 OA
ENDBRANCH   9  11
ENDBRANCH   1   9
BRANCH   4  13
ATOM     13  O   UNL     1       3.402   5.482  -7.362  0.00  0.00    -0.199 OA
BRANCH  13  14
ATOM     14  N   UNL     1       4.177   5.065  -8.328  0.00  0.00    +0.285 N 
ATOM     15  O   UNL     1       3.757   3.927  -9.022  0.00  0.00    -0.534 OA
ATOM     16  O   UNL     1       5.428   5.065  -8.137  0.00  0.00    +0.093 OA
ENDBRANCH  13  14
ENDBRANCH   4  13
TORSDOF 4
ENDMDL
MODEL 4
REMARK VINA RESULT:      -5.4      4.994      7.587
REMARK  Name = 
REMARK  4 active torsions:
REMARK  status: ('A' for Active; 'I' for Inactive)
REMARK    1  A    between atoms: N_2  and  O_4
REMARK    2  A    between atoms: O_4  and  C_5
REMARK    3  A    between atoms: C_9  and  O_10
REMARK    4  A    between atoms: O_10  and  N_11
REMARK                            x       y       z     vdW  Elec       q    Type
REMARK                         _______ _______ _______ _____ _____    ______ ____
ROOT
ATOM      1  C   UNL     1       4.430   5.850  -3.252  0.00  0.00    +0.307 C 
ATOM      2  C   UNL     1       4.124   5.077  -4.745  0.00  0.00    +0.196 C 
ATOM      3  C   UNL     1       3.929   6.552  -5.565  0.00  0.00    +0.196 C 
ATOM      4  C   UNL     1       2.335   6.184  -6.087  0.00  0.00    +0.307 C 
ATOM      5  C   UNL     1       2.563   4.569  -5.948  0.00  0.00    +0.196 C 
ATOM      6  O   UNL     1       3.396   7.349  -4.438  0.00  0.00    -0.345 OA
ATOM      7  O   UNL     1       2.659   4.831  -4.556  0.00  0.00    -0.345 OA
ATOM      8  C   UNL     1       3.052   6.693  -3.419  0.00  0.00    +0.196 C 
ENDROOT
BRANCH   1   9
ATOM      9  O   UNL     1       3.781   4.740  -2.424  0.00  0.00    -0.199 OA
BRANCH   9  11
ATOM     10  O   UNL     1       2.706   4.477  -0.749  0.00  0.00    +0.093 OA
ATOM     11  N   UNL     1       3.418   5.020  -1.142  0.00  0.00    +0.285 N 
ATOM     12  O   UNL     1       4.253   5.562  -0.180  0.00  0.00    -0.534 OA
ENDBRANCH   9  11
ENDBRANCH   1   9
BRANCH   4  13
ATOM     13  O   UNL     1       2.684   6.269  -7.564  0.00  0.00    -0.199 OA
BRANCH  13  14
ATOM     14  N   UNL     1       2.352   7.208  -8.409  0.00  0.00    +0.285 N 
ATOM     15  O   UNL     1       2.127   8.480  -7.876  0.00  0.00    -0.534 OA
ATOM     16  O   UNL     1       1.526   6.928  -9.325  0.00  0.00    +0.093 OA
ENDBRANCH  13  14
ENDBRANCH   4  13
TORSDOF 4
ENDMDL
MODEL 5
REMARK VINA RESULT:      -5.3      4.160      6.315
REMARK  Name = 
REMARK  4 active torsions:
REMARK  status: ('A' for Active; 'I' for Inactive)
REMARK    1  A    between atoms: N_2  and  O_4
REMARK    2  A    between atoms: O_4  and  C_5
REMARK    3  A    between atoms: C_9  and  O_10
REMARK    4  A    between atoms: O_10  and  N_11
REMARK                            x       y       z     vdW  Elec       q    Type
REMARK                         _______ _______ _______ _____ _____    ______ ____
ROOT
ATOM      1  C   UNL     1       2.841   5.540  -6.253  0.00  0.00    +0.307 C 
ATOM      2  C   UNL     1       1.778   6.420  -5.244  0.00  0.00    +0.196 C 
ATOM      3  C   UNL     1       0.973   5.016  -4.727  0.00  0.00    +0.196 C 
ATOM      4  C   UNL     1      -0.562   5.556  -5.275  0.00  0.00    +0.307 C 
ATOM      5  C   UNL     1      -0.128   7.132  -5.230  0.00  0.00    +0.196 C 
ATOM      6  O   UNL     1       1.149   4.209  -5.954  0.00  0.00    -0.345 OA
ATOM      7  O   UNL     1       0.762   6.785  -6.280  0.00  0.00    -0.345 OA
ATOM      8  C   UNL     1       1.562   4.836  -6.965  0.00  0.00    +0.196 C 
ENDROOT
BRANCH   1   9
ATOM      9  O   UNL     1       2.946   6.656  -7.293  0.00  0.00    -0.199 OA
BRANCH   9  11
ATOM     10  O   UNL     1       3.367   6.972  -9.231  0.00  0.00    +0.093 OA
ATOM     11  N   UNL     1       3.559   6.379  -8.477  0.00  0.00    +0.285 N 
ATOM     12  O   UNL     1       4.783   5.746  -8.609  0.00  0.00    -0.534 OA
ENDBRANCH   9  11
ENDBRANCH   1   9
BRANCH   4  13
ATOM     13  O   UNL     1      -1.188   5.522  -3.890  0.00  0.00    -0.199 OA
BRANCH  13  14
ATOM     14  N   UNL     1      -2.457   5.450  -3.590  0.00  0.00    +0.285 N 
ATOM     15  O   UNL     1      -3.136   6.662  -3.440  0.00  0.00    -0.534 OA
ATOM     16  O   UNL     1      -2.825   4.596  -2.732  0.00  0.00    +0.093 OA
ENDBRANCH  13  14
ENDBRANCH   4  13
TORSDOF 4
ENDMDL
MODEL 6
REMARK VINA RESULT:      -5.3      4.729      8.873
REMARK  Name = 
REMARK  4 active torsions:
REMARK  status: ('A' for Active; 'I' for Inactive)
REMARK    1  A    between atoms: N_2  and  O_4
REMARK    2  A    between atoms: O_4  and  C_5
REMARK    3  A    between atoms: C_9  and  O_10
REMARK    4  A    between atoms: O_10  and  N_11
REMARK                            x       y       z     vdW  Elec       q    Type
REMARK                         _______ _______ _______ _____ _____    ______ ____
ROOT
ATOM      1  C   UNL     1      -0.558   5.617  -4.002  0.00  0.00    +0.307 C 
ATOM      2  C   UNL     1      -0.139   4.903  -5.497  0.00  0.00    +0.196 C 
ATOM      3  C   UNL     1       1.382   5.657  -5.527  0.00  0.00    +0.196 C 
ATOM      4  C   UNL     1       1.090   6.445  -7.024  0.00  0.00    +0.307 C 
ATOM      5  C   UNL     1      -0.052   5.365  -7.477  0.00  0.00    +0.196 C 
ATOM      6  O   UNL     1       1.021   6.886  -4.787  0.00  0.00    -0.345 OA
ATOM      7  O   UNL     1      -0.803   5.898  -6.397  0.00  0.00    -0.345 OA
ATOM      8  C   UNL     1      -0.211   7.079  -4.617  0.00  0.00    +0.196 C 
ENDROOT
BRANCH   1   9
ATOM      9  O   UNL     1      -2.047   5.704  -4.340  0.00  0.00    -0.199 OA
BRANCH   9  11
ATOM     10  O   UNL     1      -2.780   4.653  -2.795  0.00  0.00    +0.093 OA
ATOM     11  N   UNL     1      -2.948   5.437  -3.356  0.00  0.00    +0.285 N 
ATOM     12  O   UNL     1      -3.724   6.385  -2.710  0.00  0.00    -0.534 OA
ENDBRANCH   9  11
ENDBRANCH   1   9
BRANCH   4  13
ATOM     13  O   UNL     1       2.248   5.762  -7.733  0.00  0.00    -0.199 OA
BRANCH  13  14
ATOM     14  N   UNL     1       2.198   5.008  -8.800  0.00  0.00    +0.285 N 
ATOM     15  O   UNL     1       2.709   3.714  -8.676  0.00  0.00    -0.534 OA
ATOM     16  O   UNL     1       2.491   5.526  -9.916  0.00  0.00    +0.093 OA
ENDBRANCH  13  14
ENDBRANCH   4  13
TORSDOF 4
ENDMDL
MODEL 7
REMARK VINA RESULT:      -5.2      4.683      6.902
REMARK  Name = 
REMARK  4 active torsions:
REMARK  status: ('A' for Active; 'I' for Inactive)
REMARK    1  A    between atoms: N_2  and  O_4
REMARK    2  A    between atoms: O_4  and  C_5
REMARK    3  A    between atoms: C_9  and  O_10
REMARK    4  A    between atoms: O_10  and  N_11
REMARK                            x       y       z     vdW  Elec       q    Type
REMARK                         _______ _______ _______ _____ _____    ______ ____
ROOT
ATOM      1  C   UNL     1       2.026   5.726  -6.592  0.00  0.00    +0.307 C 
ATOM      2  C   UNL     1       0.702   6.662  -6.051  0.00  0.00    +0.196 C 
ATOM      3  C   UNL     1       0.833   6.081  -4.460  0.00  0.00    +0.196 C 
ATOM      4  C   UNL     1      -0.768   5.460  -4.433  0.00  0.00    +0.307 C 
ATOM      5  C   UNL     1      -1.277   6.463  -5.621  0.00  0.00    +0.196 C 
ATOM      6  O   UNL     1       1.369   4.738  -4.771  0.00  0.00    -0.345 OA
ATOM      7  O   UNL     1      -0.394   5.723  -6.450  0.00  0.00    -0.345 OA
ATOM      8  C   UNL     1       1.319   4.397  -5.982  0.00  0.00    +0.196 C 
ENDROOT
BRANCH   1   9
ATOM      9  O   UNL     1       1.447   5.526  -7.994  0.00  0.00    -0.199 OA
BRANCH   9  11
ATOM     10  O   UNL     1       1.538   4.363  -9.628  0.00  0.00    +0.093 OA
ATOM     11  N   UNL     1       1.991   4.558  -8.783  0.00  0.00    +0.285 N 
ATOM     12  O   UNL     1       3.334   4.224  -8.820  0.00  0.00    -0.534 OA
ENDBRANCH   9  11
ENDBRANCH   1   9
BRANCH   4  13
ATOM     13  O   UNL     1      -1.206   6.345  -3.277  0.00  0.00    -0.199 OA
BRANCH  13  14
ATOM     14  N   UNL     1      -2.104   6.081  -2.365  0.00  0.00    +0.285 N 
ATOM     15  O   UNL     1      -2.677   4.806  -2.402  0.00  0.00    -0.534 OA
ATOM     16  O   UNL     1      -2.956   6.972  -2.085  0.00  0.00    +0.093 OA
ENDBRANCH  13  14
ENDBRANCH   4  13
TORSDOF 4
ENDMDL
MODEL 8
REMARK VINA RESULT:      -5.1      4.693      6.308
REMARK  Name = 
REMARK  4 active torsions:
REMARK  status: ('A' for Active; 'I' for Inactive)
REMARK    1  A    between atoms: N_2  and  O_4
REMARK    2  A    between atoms: O_4  and  C_5
REMARK    3  A    between atoms: C_9  and  O_10
REMARK    4  A    between atoms: O_10  and  N_11
REMARK                            x       y       z     vdW  Elec       q    Type
REMARK                         _______ _______ _______ _____ _____    ______ ____
ROOT
ATOM      1  C   UNL     1       2.604   5.456  -6.675  0.00  0.00    +0.307 C 
ATOM      2  C   UNL     1       3.097   4.638  -5.257  0.00  0.00    +0.196 C 
ATOM      3  C   UNL     1       2.305   5.745  -4.242  0.00  0.00    +0.196 C 
ATOM      4  C   UNL     1       3.737   6.173  -3.398  0.00  0.00    +0.307 C 
ATOM      5  C   UNL     1       4.493   4.774  -3.783  0.00  0.00    +0.196 C 
ATOM      6  O   UNL     1       2.430   6.943  -5.101  0.00  0.00    -0.345 OA
ATOM      7  O   UNL     1       4.449   5.265  -5.114  0.00  0.00    -0.345 OA
ATOM      8  C   UNL     1       3.217   6.836  -6.077  0.00  0.00    +0.196 C 
ENDROOT
BRANCH   1   9
ATOM      9  O   UNL     1       3.874   5.098  -7.449  0.00  0.00    -0.199 OA
BRANCH   9  11
ATOM     10  O   UNL     1       2.981   3.808  -8.704  0.00  0.00    +0.093 OA
ATOM     11  N   UNL     1       3.743   4.417  -8.622  0.00  0.00    +0.285 N 
ATOM     12  O   UNL     1       4.191   4.862  -9.853  0.00  0.00    -0.534 OA
ENDBRANCH   9  11
ENDBRANCH   1   9
BRANCH   4  13
ATOM     13  O   UNL     1       3.211   5.706  -2.050  0.00  0.00    -0.199 OA
BRANCH  13  14
ATOM     14  N   UNL     1       3.876   5.107  -1.098  0.00  0.00    +0.285 N 
ATOM     15  O   UNL     1       3.390   3.865  -0.680  0.00  0.00    -0.534 OA
ATOM     16  O   UNL     1       4.291   5.802  -0.126  0.00  0.00    +0.093 OA
ENDBRANCH  13  14
ENDBRANCH   4  13
TORSDOF 4
ENDMDL
MODEL 9
REMARK VINA RESULT:      -5.1      2.719      6.902
REMARK  Name = 
REMARK  4 active torsions:
REMARK  status: ('A' for Active; 'I' for Inactive)
REMARK    1  A    between atoms: N_2  and  O_4
REMARK    2  A    between atoms: O_4  and  C_5
REMARK    3  A    between atoms: C_9  and  O_10
REMARK    4  A    between atoms: O_10  and  N_11
REMARK                            x       y       z     vdW  Elec       q    Type
REMARK                         _______ _______ _______ _____ _____    ______ ____
ROOT
ATOM      1  C   UNL     1       1.516   5.312  -5.726  0.00  0.00    +0.307 C 
ATOM      2  C   UNL     1       2.589   4.397  -6.692  0.00  0.00    +0.196 C 
ATOM      3  C   UNL     1       3.747   5.638  -6.731  0.00  0.00    +0.196 C 
ATOM      4  C   UNL     1       3.743   5.745  -8.444  0.00  0.00    +0.307 C 
ATOM      5  C   UNL     1       3.178   4.222  -8.632  0.00  0.00    +0.196 C 
ATOM      6  O   UNL     1       2.823   6.790  -6.637  0.00  0.00    -0.345 OA
ATOM      7  O   UNL     1       1.995   4.722  -8.027  0.00  0.00    -0.345 OA
ATOM      8  C   UNL     1       1.603   6.527  -6.801  0.00  0.00    +0.196 C 
ENDROOT
BRANCH   1   9
ATOM      9  O   UNL     1       0.262   4.700  -6.351  0.00  0.00    -0.199 OA
BRANCH   9  11
ATOM     10  O   UNL     1      -1.632   5.165  -6.830  0.00  0.00    +0.093 OA
ATOM     11  N   UNL     1      -0.925   5.344  -6.177  0.00  0.00    +0.285 N 
ATOM     12  O   UNL     1      -1.432   5.759  -4.958  0.00  0.00    -0.534 OA
ENDBRANCH   9  11
ENDBRANCH   1   9
BRANCH   4  13
ATOM     13  O   UNL     1       5.215   5.389  -8.578  0.00  0.00    -0.199 OA
BRANCH  13  14
ATOM     14  N   UNL     1       6.014   5.657  -9.576  0.00  0.00    +0.285 N 
ATOM     15  O   UNL     1       7.366   5.831  -9.267  0.00  0.00    -0.534 OA
ATOM     16  O   UNL     1       5.622   6.478 -10.455  0.00  0.00    +0.093 OA
ENDBRANCH  13  14
ENDBRANCH   4  13
TORSDOF 4
ENDMDL
