MODEL 1
REMARK VINA RESULT:      -8.5      0.000      0.000
REMARK  Name = 
REMARK  4 active torsions:
REMARK  status: ('A' for Active; 'I' for Inactive)
REMARK    1  A    between atoms: C_2  and  C_4
REMARK    2  A    between atoms: C_4  and  C_5
REMARK    3  A    between atoms: C_5  and  C_6
REMARK    4  A    between atoms: C_5  and  C_12
REMARK                            x       y       z     vdW  Elec       q    Type
REMARK                         _______ _______ _______ _____ _____    ______ ____
ROOT
ATOM      1  C   UNL     1       1.980   6.160  -7.230  0.00  0.00    +0.097 A 
ATOM      2  C   UNL     1       2.570   7.422  -7.210  0.00  0.00    +0.345 A 
ATOM      3  O   UNL     1       2.164   8.387  -7.885  0.00  0.00    -0.245 OA
ATOM      4  O   UNL     1       3.672   7.554  -6.497  0.00  0.00    -0.421 OA
ATOM      5  C   UNL     1       3.961   6.693  -5.536  0.00  0.00    +0.152 A 
ATOM      6  C   UNL     1       3.212   5.542  -5.329  0.00  0.00    +0.073 A 
ATOM      7  C   UNL     1       3.624   4.571  -4.448  0.00  0.00    +0.006 A 
ATOM      8  C   UNL     1       4.526   4.987  -3.473  0.00  0.00    +0.000 A 
ATOM      9  C   UNL     1       4.891   6.320  -3.343  0.00  0.00    +0.003 A 
ATOM     10  C   UNL     1       4.779   7.100  -4.489  0.00  0.00    +0.038 A 
ATOM     11  C   UNL     1       2.092   5.355  -6.129  0.00  0.00    +0.201 A 
ATOM     12  O   UNL     1       1.735   4.044  -6.482  0.00  0.00    -0.287 OA
ENDROOT
BRANCH   1  13
ATOM     13  C   UNL     1       0.463   6.303  -7.827  0.00  0.00    +0.061 C 
BRANCH  13  14
ATOM     14  C   UNL     1      -0.319   5.766  -6.483  0.00  0.00    -0.018 A 
ATOM     15  C   UNL     1      -1.611   5.307  -6.727  0.00  0.00    -0.004 A 
ATOM     16  C   UNL     1      -2.621   5.417  -5.778  0.00  0.00    -0.000 A 
ATOM     17  C   UNL     1      -2.633   6.628  -5.096  0.00  0.00    -0.000 A 
ATOM     18  C   UNL     1      -1.377   7.110  -4.751  0.00  0.00    -0.000 A 
ATOM     19  C   UNL     1      -0.399   6.932  -5.705  0.00  0.00    -0.004 A 
ENDBRANCH  13  14
BRANCH  13  20
ATOM     20  C   UNL     1       0.591   4.797  -8.541  0.00  0.00    +0.074 C 
BRANCH  20  22
ATOM     21  C   UNL     1       0.214   6.504 -10.393  0.00  0.00    +0.072 C 
ATOM     22  C   UNL     1       0.303   5.095  -9.964  0.00  0.00    +0.152 C 
ATOM     23  O   UNL     1       0.176   4.190 -10.785  0.00  0.00    -0.296 OA
ENDBRANCH  20  22
ENDBRANCH  13  20
ENDBRANCH   1  13
TORSDOF 4
ENDMDL
MODEL 2
REMARK VINA RESULT:      -8.3      2.685      4.969
REMARK  Name = 
REMARK  4 active torsions:
REMARK  status: ('A' for Active; 'I' for Inactive)
REMARK    1  A    between atoms: C_2  and  C_4
REMARK    2  A    between atoms: C_4  and  C_5
REMARK    3  A    between atoms: C_5  and  C_6
REMARK    4  A    between atoms: C_5  and  C_12
REMARK                            x       y       z     vdW  Elec       q    Type
REMARK                         _______ _______ _______ _____ _____    ______ ____
ROOT
ATOM      1  C   UNL     1       2.632   5.554  -7.949  0.00  0.00    +0.097 A 
ATOM      2  C   UNL     1       2.657   4.230  -7.520  0.00  0.00    +0.345 A 
ATOM      3  O   UNL     1       2.530   3.251  -8.280  0.00  0.00    -0.245 OA
ATOM      4  O   UNL     1       2.732   4.027  -6.218  0.00  0.00    -0.421 OA
ATOM      5  C   UNL     1       3.181   4.974  -5.412  0.00  0.00    +0.152 A 
ATOM      6  C   UNL     1       3.451   6.259  -5.865  0.00  0.00    +0.073 A 
ATOM      7  C   UNL     1       3.745   7.277  -4.990  0.00  0.00    +0.006 A 
ATOM      8  C   UNL     1       4.206   6.880  -3.738  0.00  0.00    +0.000 A 
ATOM      9  C   UNL     1       4.452   5.545  -3.445  0.00  0.00    +0.003 A 
ATOM     10  C   UNL     1       3.742   4.613  -4.193  0.00  0.00    +0.038 A 
ATOM     11  C   UNL     1       3.299   6.503  -7.224  0.00  0.00    +0.201 A 
ATOM     12  O   UNL     1       2.869   7.776  -7.629  0.00  0.00    -0.287 OA
ENDROOT
BRANCH   1  13
ATOM     13  C   UNL     1       2.927   5.585  -9.559  0.00  0.00    +0.061 C 
BRANCH  13  14
ATOM     14  C   UNL     1       4.278   6.520  -9.484  0.00  0.00    -0.018 A 
ATOM     15  C   UNL     1       4.515   7.265 -10.637  0.00  0.00    -0.004 A 
ATOM     16  C   UNL     1       5.802   7.584 -11.055  0.00  0.00    -0.000 A 
ATOM     17  C   UNL     1       6.717   6.546 -10.925  0.00  0.00    -0.000 A 
ATOM     18  C   UNL     1       6.589   5.805  -9.756  0.00  0.00    -0.000 A 
ATOM     19  C   UNL     1       5.294   5.559  -9.358  0.00  0.00    -0.004 A 
ENDBRANCH  13  14
BRANCH  13  20
ATOM     20  C   UNL     1       1.866   6.865  -9.740  0.00  0.00    +0.074 C 
BRANCH  20  22
ATOM     21  C   UNL     1      -0.153   7.202 -11.254  0.00  0.00    +0.072 C 
ATOM     22  C   UNL     1       0.835   6.296 -10.639  0.00  0.00    +0.152 C 
ATOM     23  O   UNL     1       0.820   5.096 -10.902  0.00  0.00    -0.296 OA
ENDBRANCH  20  22
ENDBRANCH  13  20
ENDBRANCH   1  13
TORSDOF 4
ENDMDL
MODEL 3
REMARK VINA RESULT:      -8.0      2.838      5.052
REMARK  Name = 
REMARK  4 active torsions:
REMARK  status: ('A' for Active; 'I' for Inactive)
REMARK    1  A    between atoms: C_2  and  C_4
REMARK    2  A    between atoms: C_4  and  C_5
REMARK    3  A    between atoms: C_5  and  C_6
REMARK    4  A    between atoms: C_5  and  C_12
REMARK                            x       y       z     vdW  Elec       q    Type
REMARK                         _______ _______ _______ _____ _____    ______ ____
ROOT
ATOM      1  C   UNL     1       3.351   6.073  -7.940  0.00  0.00    +0.097 A 
ATOM      2  C   UNL     1       2.836   6.988  -8.856  0.00  0.00    +0.345 A 
ATOM      3  O   UNL     1       1.774   7.616  -8.686  0.00  0.00    -0.245 OA
ATOM      4  O   UNL     1       3.482   7.114 -10.000  0.00  0.00    -0.421 OA
ATOM      5  C   UNL     1       4.744   6.737 -10.108  0.00  0.00    +0.152 A 
ATOM      6  C   UNL     1       5.400   6.063  -9.085  0.00  0.00    +0.073 A 
ATOM      7  C   UNL     1       6.649   5.521  -9.275  0.00  0.00    +0.006 A 
ATOM      8  C   UNL     1       7.387   6.063 -10.323  0.00  0.00    +0.000 A 
ATOM      9  C   UNL     1       6.923   7.150 -11.052  0.00  0.00    +0.003 A 
ATOM     10  C   UNL     1       5.544   7.327 -11.078  0.00  0.00    +0.038 A 
ATOM     11  C   UNL     1       4.701   5.855  -7.903  0.00  0.00    +0.201 A 
ATOM     12  O   UNL     1       4.957   4.684  -7.174  0.00  0.00    -0.287 OA
ENDROOT
BRANCH   1  13
ATOM     13  C   UNL     1       2.657   6.348  -6.483  0.00  0.00    +0.061 C 
BRANCH  13  14
ATOM     14  C   UNL     1       3.991   6.023  -5.577  0.00  0.00    -0.018 A 
ATOM     15  C   UNL     1       3.751   5.167  -4.505  0.00  0.00    -0.004 A 
ATOM     16  C   UNL     1       4.470   5.256  -3.319  0.00  0.00    -0.000 A 
ATOM     17  C   UNL     1       4.701   6.557  -2.887  0.00  0.00    -0.000 A 
ATOM     18  C   UNL     1       5.024   7.453  -3.899  0.00  0.00    -0.000 A 
ATOM     19  C   UNL     1       4.318   7.292  -5.071  0.00  0.00    -0.004 A 
ENDBRANCH  13  14
BRANCH  13  20
ATOM     20  C   UNL     1       2.070   4.782  -6.457  0.00  0.00    +0.074 C 
BRANCH  20  22
ATOM     21  C   UNL     1      -0.324   5.228  -7.201  0.00  0.00    +0.072 C 
ATOM     22  C   UNL     1       0.643   4.986  -6.114  0.00  0.00    +0.152 C 
ATOM     23  O   UNL     1       0.258   4.918  -4.949  0.00  0.00    -0.296 OA
ENDBRANCH  20  22
ENDBRANCH  13  20
ENDBRANCH   1  13
TORSDOF 4
ENDMDL
MODEL 4
REMARK VINA RESULT:      -7.9      1.355      5.228
REMARK  Name = 
REMARK  4 active torsions:
REMARK  status: ('A' for Active; 'I' for Inactive)
REMARK    1  A    between atoms: C_2  and  C_4
REMARK    2  A    between atoms: C_4  and  C_5
REMARK    3  A    between atoms: C_5  and  C_6
REMARK    4  A    between atoms: C_5  and  C_12
REMARK                            x       y       z     vdW  Elec       q    Type
REMARK                         _______ _______ _______ _____ _____    ______ ____
ROOT
ATOM      1  C   UNL     1       1.887   5.592  -7.301  0.00  0.00    +0.097 A 
ATOM      2  C   UNL     1       1.973   4.233  -7.594  0.00  0.00    +0.345 A 
ATOM      3  O   UNL     1       2.141   3.347  -6.735  0.00  0.00    -0.245 OA
ATOM      4  O   UNL     1       1.962   3.897  -8.871  0.00  0.00    -0.421 OA
ATOM      5  C   UNL     1       1.477   4.723  -9.782  0.00  0.00    +0.152 A 
ATOM      6  C   UNL     1       1.099   6.023  -9.469  0.00  0.00    +0.073 A 
ATOM      7  C   UNL     1       0.766   6.924 -10.452  0.00  0.00    +0.006 A 
ATOM      8  C   UNL     1       0.381   6.372 -11.670  0.00  0.00    +0.000 A 
ATOM      9  C   UNL     1       0.243   5.000 -11.834  0.00  0.00    +0.003 A 
ATOM     10  C   UNL     1       0.990   4.203 -10.974  0.00  0.00    +0.038 A 
ATOM     11  C   UNL     1       1.182   6.412  -8.138  0.00  0.00    +0.201 A 
ATOM     12  O   UNL     1       1.504   7.747  -7.852  0.00  0.00    -0.287 OA
ENDROOT
BRANCH   1  13
ATOM     13  C   UNL     1       1.531   5.760  -5.712  0.00  0.00    +0.061 C 
BRANCH  13  14
ATOM     14  C   UNL     1       0.127   6.591  -5.922  0.00  0.00    -0.018 A 
ATOM     15  C   UNL     1      -0.210   7.411  -4.848  0.00  0.00    -0.004 A 
ATOM     16  C   UNL     1      -1.533   7.675  -4.512  0.00  0.00    -0.000 A 
ATOM     17  C   UNL     1      -2.372   6.570  -4.589  0.00  0.00    -0.000 A 
ATOM     18  C   UNL     1      -2.143   5.745  -5.683  0.00  0.00    -0.000 A 
ATOM     19  C   UNL     1      -0.818   5.555  -6.006  0.00  0.00    -0.004 A 
ENDBRANCH  13  14
BRANCH  13  20
ATOM     20  C   UNL     1       2.501   7.119  -5.627  0.00  0.00    +0.074 C 
BRANCH  20  22
ATOM     21  C   UNL     1       4.698   7.604  -4.435  0.00  0.00    +0.072 C 
ATOM     22  C   UNL     1       3.617   6.658  -4.767  0.00  0.00    +0.152 C 
ATOM     23  O   UNL     1       3.628   5.520  -4.305  0.00  0.00    -0.296 OA
ENDBRANCH  20  22
ENDBRANCH  13  20
ENDBRANCH   1  13
TORSDOF 4
ENDMDL
MODEL 5
REMARK VINA RESULT:      -7.8      2.407      4.633
REMARK  Name = 
REMARK  4 active torsions:
REMARK  status: ('A' for Active; 'I' for Inactive)
REMARK    1  A    between atoms: C_2  and  C_4
REMARK    2  A    between atoms: C_4  and  C_5
REMARK    3  A    between atoms: C_5  and  C_6
REMARK    4  A    between atoms: C_5  and  C_12
REMARK                            x       y       z     vdW  Elec       q    Type
REMARK                         _______ _______ _______ _____ _____    ______ ____
ROOT
ATOM      1  C   UNL     1       2.578   5.948  -5.710  0.00  0.00    +0.097 A 
ATOM      2  C   UNL     1       3.643   5.085  -5.463  0.00  0.00    +0.345 A 
ATOM      3  O   UNL     1       3.707   4.327  -4.477  0.00  0.00    -0.245 OA
ATOM      4  O   UNL     1       4.672   5.157  -6.286  0.00  0.00    -0.421 OA
ATOM      5  C   UNL     1       4.536   5.683  -7.491  0.00  0.00    +0.152 A 
ATOM      6  C   UNL     1       3.364   6.313  -7.891  0.00  0.00    +0.073 A 
ATOM      7  C   UNL     1       3.298   7.009  -9.075  0.00  0.00    +0.006 A 
ATOM      8  C   UNL     1       4.254   6.671 -10.027  0.00  0.00    +0.000 A 
ATOM      9  C   UNL     1       5.142   5.623  -9.824  0.00  0.00    +0.003 A 
ATOM     10  C   UNL     1       5.410   5.296  -8.499  0.00  0.00    +0.038 A 
ATOM     11  C   UNL     1       2.300   6.312  -6.999  0.00  0.00    +0.201 A 
ATOM     12  O   UNL     1       1.437   7.418  -6.988  0.00  0.00    -0.287 OA
ENDROOT
BRANCH   1  13
ATOM     13  C   UNL     1       1.285   5.442  -4.843  0.00  0.00    +0.061 C 
BRANCH  13  14
ATOM     14  C   UNL     1       0.163   6.345  -5.637  0.00  0.00    -0.018 A 
ATOM     15  C   UNL     1      -0.497   7.266  -4.826  0.00  0.00    -0.004 A 
ATOM     16  C   UNL     1      -1.815   7.642  -5.062  0.00  0.00    -0.000 A 
ATOM     17  C   UNL     1      -2.651   6.591  -5.422  0.00  0.00    -0.000 A 
ATOM     18  C   UNL     1      -2.082   5.672  -6.295  0.00  0.00    -0.000 A 
ATOM     19  C   UNL     1      -0.761   5.371  -6.048  0.00  0.00    -0.004 A 
ENDBRANCH  13  14
BRANCH  13  20
ATOM     20  C   UNL     1       1.607   6.591  -3.673  0.00  0.00    +0.074 C 
BRANCH  20  22
ATOM     21  C   UNL     1       0.348   5.048  -2.086  0.00  0.00    +0.072 C 
ATOM     22  C   UNL     1       1.576   5.790  -2.426  0.00  0.00    +0.152 C 
ATOM     23  O   UNL     1       2.566   5.711  -1.703  0.00  0.00    -0.296 OA
ENDBRANCH  20  22
ENDBRANCH  13  20
ENDBRANCH   1  13
TORSDOF 4
ENDMDL
MODEL 6
REMARK VINA RESULT:      -7.7      2.870      6.751
REMARK  Name = 
REMARK  4 active torsions:
REMARK  status: ('A' for Active; 'I' for Inactive)
REMARK    1  A    between atoms: C_2  and  C_4
REMARK    2  A    between atoms: C_4  and  C_5
REMARK    3  A    between atoms: C_5  and  C_6
REMARK    4  A    between atoms: C_5  and  C_12
REMARK                            x       y       z     vdW  Elec       q    Type
REMARK                         _______ _______ _______ _____ _____    ______ ____
ROOT
ATOM      1  C   UNL     1       2.765   6.160  -8.372  0.00  0.00    +0.097 A 
ATOM      2  C   UNL     1       2.071   7.367  -8.419  0.00  0.00    +0.345 A 
ATOM      3  O   UNL     1       2.445   8.405  -7.841  0.00  0.00    -0.245 OA
ATOM      4  O   UNL     1       0.909   7.363  -9.045  0.00  0.00    -0.421 OA
ATOM      5  C   UNL     1       0.621   6.419  -9.925  0.00  0.00    +0.152 A 
ATOM      6  C   UNL     1       1.446   5.319 -10.122  0.00  0.00    +0.073 A 
ATOM      7  C   UNL     1       1.050   4.261 -10.905  0.00  0.00    +0.006 A 
ATOM      8  C   UNL     1       0.044   4.538 -11.826  0.00  0.00    +0.000 A 
ATOM      9  C   UNL     1      -0.441   5.826 -12.006  0.00  0.00    +0.003 A 
ATOM     10  C   UNL     1      -0.307   6.688 -10.924  0.00  0.00    +0.038 A 
ATOM     11  C   UNL     1       2.637   5.276  -9.408  0.00  0.00    +0.201 A 
ATOM     12  O   UNL     1       3.129   4.025  -9.007  0.00  0.00    -0.287 OA
ENDROOT
BRANCH   1  13
ATOM     13  C   UNL     1       4.306   6.463  -7.911  0.00  0.00    +0.061 C 
BRANCH  13  14
ATOM     14  C   UNL     1       5.021   5.938  -9.297  0.00  0.00    -0.018 A 
ATOM     15  C   UNL     1       6.346   5.541  -9.133  0.00  0.00    -0.004 A 
ATOM     16  C   UNL     1       7.286   5.679 -10.148  0.00  0.00    -0.000 A 
ATOM     17  C   UNL     1       7.198   6.878 -10.847  0.00  0.00    -0.000 A 
ATOM     18  C   UNL     1       5.901   7.297 -11.114  0.00  0.00    -0.000 A 
ATOM     19  C   UNL     1       4.997   7.093 -10.095  0.00  0.00    -0.004 A 
ENDBRANCH  13  14
BRANCH  13  20
ATOM     20  C   UNL     1       4.375   4.984  -7.134  0.00  0.00    +0.074 C 
BRANCH  20  22
ATOM     21  C   UNL     1       4.572   6.533  -5.123  0.00  0.00    +0.072 C 
ATOM     22  C   UNL     1       3.982   5.335  -5.749  0.00  0.00    +0.152 C 
ATOM     23  O   UNL     1       3.150   4.666  -5.141  0.00  0.00    -0.296 OA
ENDBRANCH  20  22
ENDBRANCH  13  20
ENDBRANCH   1  13
TORSDOF 4
ENDMDL
MODEL 7
REMARK VINA RESULT:      -7.6      2.168      4.940
REMARK  Name = 
REMARK  4 active torsions:
REMARK  status: ('A' for Active; 'I' for Inactive)
REMARK    1  A    between atoms: C_2  and  C_4
REMARK    2  A    between atoms: C_4  and  C_5
REMARK    3  A    between atoms: C_5  and  C_6
REMARK    4  A    between atoms: C_5  and  C_12
REMARK                            x       y       z     vdW  Elec       q    Type
REMARK                         _______ _______ _______ _____ _____    ______ ____
ROOT
ATOM      1  C   UNL     1       1.404   6.007  -7.694  0.00  0.00    +0.097 A 
ATOM      2  C   UNL     1       1.870   6.926  -6.757  0.00  0.00    +0.345 A 
ATOM      3  O   UNL     1       2.932   7.565  -6.881  0.00  0.00    -0.245 OA
ATOM      4  O   UNL     1       1.175   7.044  -5.641  0.00  0.00    -0.421 OA
ATOM      5  C   UNL     1      -0.087   6.653  -5.588  0.00  0.00    +0.152 A 
ATOM      6  C   UNL     1      -0.691   5.973  -6.638  0.00  0.00    +0.073 A 
ATOM      7  C   UNL     1      -1.941   5.417  -6.502  0.00  0.00    +0.006 A 
ATOM      8  C   UNL     1      -2.729   5.949  -5.485  0.00  0.00    +0.000 A 
ATOM      9  C   UNL     1      -2.308   7.041  -4.737  0.00  0.00    +0.003 A 
ATOM     10  C   UNL     1      -0.934   7.232  -4.652  0.00  0.00    +0.038 A 
ATOM     11  C   UNL     1       0.060   5.774  -7.789  0.00  0.00    +0.201 A 
ATOM     12  O   UNL     1      -0.152   4.601  -8.530  0.00  0.00    -0.287 OA
ENDROOT
BRANCH   1  13
ATOM     13  C   UNL     1       2.156   6.291  -9.120  0.00  0.00    +0.061 C 
BRANCH  13  14
ATOM     14  C   UNL     1       0.894   5.866 -10.085  0.00  0.00    -0.018 A 
ATOM     15  C   UNL     1       1.241   5.006 -11.124  0.00  0.00    -0.004 A 
ATOM     16  C   UNL     1       0.580   5.026 -12.347  0.00  0.00    -0.000 A 
ATOM     17  C   UNL     1       0.293   6.302 -12.819  0.00  0.00    -0.000 A 
ATOM     18  C   UNL     1      -0.136   7.195 -11.845  0.00  0.00    -0.000 A 
ATOM     19  C   UNL     1       0.517   7.101 -10.636  0.00  0.00    -0.004 A 
ENDBRANCH  13  14
BRANCH  13  20
ATOM     20  C   UNL     1       2.836   4.764  -9.078  0.00  0.00    +0.074 C 
BRANCH  20  22
ATOM     21  C   UNL     1       4.884   5.430 -10.436  0.00  0.00    +0.072 C 
ATOM     22  C   UNL     1       4.287   5.061  -9.139  0.00  0.00    +0.152 C 
ATOM     23  O   UNL     1       4.978   5.040  -8.124  0.00  0.00    -0.296 OA
ENDBRANCH  20  22
ENDBRANCH  13  20
ENDBRANCH   1  13
TORSDOF 4
ENDMDL
MODEL 8
REMARK VINA RESULT:      -7.6      4.279      5.607
REMARK  Name = 
REMARK  4 active torsions:
REMARK  status: ('A' for Active; 'I' for Inactive)
REMARK    1  A    between atoms: C_2  and  C_4
REMARK    2  A    between atoms: C_4  and  C_5
REMARK    3  A    between atoms: C_5  and  C_6
REMARK    4  A    between atoms: C_5  and  C_12
REMARK                            x       y       z     vdW  Elec       q    Type
REMARK                         _______ _______ _______ _____ _____    ______ ____
ROOT
ATOM      1  C   UNL     1       3.980   5.599 -10.959  0.00  0.00    +0.097 A 
ATOM      2  C   UNL     1       3.893   5.539 -12.348  0.00  0.00    +0.345 A 
ATOM      3  O   UNL     1       2.832   5.685 -12.983  0.00  0.00    -0.245 OA
ATOM      4  O   UNL     1       4.995   5.222 -13.001  0.00  0.00    -0.421 OA
ATOM      5  C   UNL     1       6.181   5.370 -12.436  0.00  0.00    +0.152 A 
ATOM      6  C   UNL     1       6.320   5.719 -11.098  0.00  0.00    +0.073 A 
ATOM      7  C   UNL     1       7.547   5.696 -10.479  0.00  0.00    +0.006 A 
ATOM      8  C   UNL     1       8.649   5.769 -11.325  0.00  0.00    +0.000 A 
ATOM      9  C   UNL     1       8.504   5.961 -12.692  0.00  0.00    +0.003 A 
ATOM     10  C   UNL     1       7.297   5.546 -13.244  0.00  0.00    +0.038 A 
ATOM     11  C   UNL     1       5.160   5.979 -10.380  0.00  0.00    +0.201 A 
ATOM     12  O   UNL     1       5.130   5.647  -9.017  0.00  0.00    -0.287 OA
ENDROOT
BRANCH   1  13
ATOM     13  C   UNL     1       2.653   6.368 -10.387  0.00  0.00    +0.061 C 
BRANCH  13  14
ATOM     14  C   UNL     1       2.993   6.164  -8.790  0.00  0.00    -0.018 A 
ATOM     15  C   UNL     1       2.335   5.084  -8.206  0.00  0.00    -0.004 A 
ATOM     16  C   UNL     1       1.956   5.089  -6.869  0.00  0.00    -0.000 A 
ATOM     17  C   UNL     1       1.432   6.300  -6.430  0.00  0.00    -0.000 A 
ATOM     18  C   UNL     1       2.091   7.424  -6.913  0.00  0.00    -0.000 A 
ATOM     19  C   UNL     1       2.489   7.349  -8.229  0.00  0.00    -0.004 A 
ENDBRANCH  13  14
BRANCH  13  20
ATOM     20  C   UNL     1       1.762   4.961 -10.534  0.00  0.00    +0.074 C 
BRANCH  20  22
ATOM     21  C   UNL     1       0.211   6.925 -11.007  0.00  0.00    +0.072 C 
ATOM     22  C   UNL     1       0.441   5.468 -10.975  0.00  0.00    +0.152 C 
ATOM     23  O   UNL     1      -0.440   4.696 -11.344  0.00  0.00    -0.296 OA
ENDBRANCH  20  22
ENDBRANCH  13  20
ENDBRANCH   1  13
TORSDOF 4
ENDMDL
MODEL 9
REMARK VINA RESULT:      -7.5      3.117      5.970
REMARK  Name = 
REMARK  4 active torsions:
REMARK  status: ('A' for Active; 'I' for Inactive)
REMARK    1  A    between atoms: C_2  and  C_4
REMARK    2  A    between atoms: C_4  and  C_5
REMARK    3  A    between atoms: C_5  and  C_6
REMARK    4  A    between atoms: C_5  and  C_12
REMARK                            x       y       z     vdW  Elec       q    Type
REMARK                         _______ _______ _______ _____ _____    ______ ____
ROOT
ATOM      1  C   UNL     1       1.947   5.873  -9.871  0.00  0.00    +0.097 A 
ATOM      2  C   UNL     1       0.878   4.998 -10.049  0.00  0.00    +0.345 A 
ATOM      3  O   UNL     1       0.791   4.193 -10.995  0.00  0.00    -0.245 OA
ATOM      4  O   UNL     1      -0.129   5.107  -9.203  0.00  0.00    -0.421 OA
ATOM      5  C   UNL     1       0.037   5.691  -8.028  0.00  0.00    +0.152 A 
ATOM      6  C   UNL     1       1.217   6.341  -7.690  0.00  0.00    +0.073 A 
ATOM      7  C   UNL     1       1.313   7.093  -6.543  0.00  0.00    +0.006 A 
ATOM      8  C   UNL     1       0.383   6.799  -5.551  0.00  0.00    +0.000 A 
ATOM      9  C   UNL     1      -0.507   5.742  -5.680  0.00  0.00    +0.003 A 
ATOM     10  C   UNL     1      -0.809   5.351  -6.980  0.00  0.00    +0.038 A 
ATOM     11  C   UNL     1       2.258   6.298  -8.608  0.00  0.00    +0.201 A 
ATOM     12  O   UNL     1       3.117   7.404  -8.696  0.00  0.00    -0.287 OA
ENDROOT
BRANCH   1  13
ATOM     13  C   UNL     1       3.218   5.327 -10.746  0.00  0.00    +0.061 C 
BRANCH  13  14
ATOM     14  C   UNL     1       4.349   6.310 -10.066  0.00  0.00    -0.018 A 
ATOM     15  C   UNL     1       4.963   7.174 -10.970  0.00  0.00    -0.004 A 
ATOM     16  C   UNL     1       6.280   7.589 -10.810  0.00  0.00    -0.000 A 
ATOM     17  C   UNL     1       7.149   6.585 -10.398  0.00  0.00    -0.000 A 
ATOM     18  C   UNL     1       6.627   5.728  -9.436  0.00  0.00    -0.000 A 
ATOM     19  C   UNL     1       5.305   5.387  -9.612  0.00  0.00    -0.004 A 
ENDBRANCH  13  14
BRANCH  13  20
ATOM     20  C   UNL     1       2.828   6.379 -11.987  0.00  0.00    +0.074 C 
BRANCH  20  22
ATOM     21  C   UNL     1       1.792   5.358 -14.076  0.00  0.00    +0.072 C 
ATOM     22  C   UNL     1       2.956   5.516 -13.185  0.00  0.00    +0.152 C 
ATOM     23  O   UNL     1       4.021   4.968 -13.457  0.00  0.00    -0.296 OA
ENDBRANCH  20  22
ENDBRANCH  13  20
ENDBRANCH   1  13
TORSDOF 4
ENDMDL
