MODEL 1
REMARK VINA RESULT:      -9.6      0.000      0.000
REMARK  Name = 
REMARK  2 active torsions:
REMARK  status: ('A' for Active; 'I' for Inactive)
REMARK    1  A    between atoms: C_23  and  C_25
REMARK    2  A    between atoms: C_25  and  C_27
REMARK                            x       y       z     vdW  Elec       q    Type
REMARK                         _______ _______ _______ _____ _____    ______ ____
ROOT
ATOM      1  C   UNL     1       2.168   7.396  -8.048  0.00  0.00    +0.003 C 
ATOM      2  C   UNL     1       1.888   5.896  -7.842  0.00  0.00    +0.037 C 
ATOM      3  C   UNL     1       1.922   5.367  -9.161  0.00  0.00    +0.207 C 
ATOM      4  O   UNL     1       1.344   4.127  -9.276  0.00  0.00    -0.215 OA
ATOM      5  C   UNL     1       3.504   5.218  -9.589  0.00  0.00    +0.186 C 
ATOM      6  O   UNL     1       3.700   3.864  -8.921  0.00  0.00    -0.220 OA
ATOM      7  C   UNL     1       4.097   6.094  -8.322  0.00  0.00    +0.036 C 
ATOM      8  C   UNL     1       3.251   5.280  -7.228  0.00  0.00    +0.008 C 
ATOM      9  C   UNL     1       3.174   6.452  -6.009  0.00  0.00    +0.034 C 
ATOM     10  C   UNL     1       4.697   6.346  -5.471  0.00  0.00    +0.007 C 
ATOM     11  C   UNL     1       4.638   7.221  -4.228  0.00  0.00    +0.023 C 
ATOM     12  C   UNL     1       3.301   7.069  -3.539  0.00  0.00    -0.035 C 
ATOM     13  C   UNL     1       2.782   5.656  -3.648  0.00  0.00    +0.064 C 
ATOM     14  C   UNL     1       1.706   5.356  -2.641  0.00  0.00    +0.011 C 
ATOM     15  C   UNL     1       3.919   5.010  -2.868  0.00  0.00    -0.017 C 
ATOM     16  C   UNL     1       4.143   5.537  -1.647  0.00  0.00    +0.038 C 
ATOM     17  C   UNL     1       3.282   6.628  -1.151  0.00  0.00    +0.195 C 
ATOM     18  O   UNL     1       2.717   6.725  -0.063  0.00  0.00    -0.287 OA
ATOM     19  C   UNL     1       3.096   7.552  -2.291  0.00  0.00    +0.034 C 
ATOM     20  C   UNL     1       2.665   5.315  -5.002  0.00  0.00    +0.168 C 
ATOM     21  F   UNL     1       3.496   4.184  -5.160  0.00  0.00    -0.237 F 
ATOM     22  C   UNL     1       1.225   4.799  -5.555  0.00  0.00    +0.182 C 
ATOM     23  O   UNL     1       0.433   5.735  -4.648  0.00  0.00    -0.220 OA
ATOM     24  C   UNL     1       0.974   5.836  -6.809  0.00  0.00    +0.039 C 
ENDROOT
BRANCH   3  25
ATOM     25  C   UNL     1       1.458   6.360 -10.193  0.00  0.00    +0.213 C 
ATOM     26  O   UNL     1       2.118   6.593 -11.207  0.00  0.00    -0.291 OA
BRANCH  25  27
ATOM     27  C   UNL     1       0.029   6.556 -10.587  0.00  0.00    +0.248 C 
ATOM     28  O   UNL     1      -0.206   7.719 -11.261  0.00  0.00    -0.212 OA
ENDBRANCH  25  27
ENDBRANCH   3  25
TORSDOF 2
ENDMDL
MODEL 2
REMARK VINA RESULT:      -9.5      2.459      7.566
REMARK  Name = 
REMARK  2 active torsions:
REMARK  status: ('A' for Active; 'I' for Inactive)
REMARK    1  A    between atoms: C_23  and  C_25
REMARK    2  A    between atoms: C_25  and  C_27
REMARK                            x       y       z     vdW  Elec       q    Type
REMARK                         _______ _______ _______ _____ _____    ______ ____
ROOT
ATOM      1  C   UNL     1       2.071   7.672  -7.434  0.00  0.00    +0.003 C 
ATOM      2  C   UNL     1       2.715   6.285  -7.608  0.00  0.00    +0.037 C 
ATOM      3  C   UNL     1       2.861   5.815  -6.273  0.00  0.00    +0.207 C 
ATOM      4  O   UNL     1       3.739   4.767  -6.146  0.00  0.00    -0.215 OA
ATOM      5  C   UNL     1       1.385   5.288  -5.775  0.00  0.00    +0.186 C 
ATOM      6  O   UNL     1       1.517   3.903  -6.395  0.00  0.00    -0.220 OA
ATOM      7  C   UNL     1       0.546   5.936  -7.042  0.00  0.00    +0.036 C 
ATOM      8  C   UNL     1       1.534   5.320  -8.145  0.00  0.00    +0.008 C 
ATOM      9  C   UNL     1       1.270   6.425  -9.400  0.00  0.00    +0.034 C 
ATOM     10  C   UNL     1      -0.192   5.917  -9.870  0.00  0.00    +0.007 C 
ATOM     11  C   UNL     1      -0.399   6.730 -11.140  0.00  0.00    +0.023 C 
ATOM     12  C   UNL     1       0.909   6.894 -11.880  0.00  0.00    -0.035 C 
ATOM     13  C   UNL     1       1.773   5.664 -11.751  0.00  0.00    +0.064 C 
ATOM     14  C   UNL     1       2.857   5.606 -12.793  0.00  0.00    +0.011 C 
ATOM     15  C   UNL     1       0.813   4.721 -12.464  0.00  0.00    -0.017 C 
ATOM     16  C   UNL     1       0.422   5.127 -13.690  0.00  0.00    +0.038 C 
ATOM     17  C   UNL     1       0.960   6.380 -14.253  0.00  0.00    +0.195 C 
ATOM     18  O   UNL     1       1.445   6.574 -15.366  0.00  0.00    -0.287 OA
ATOM     19  C   UNL     1       0.943   7.364 -13.149  0.00  0.00    +0.034 C 
ATOM     20  C   UNL     1       2.018   5.416 -10.394  0.00  0.00    +0.168 C 
ATOM     21  F   UNL     1       1.508   4.118 -10.169  0.00  0.00    -0.237 F 
ATOM     22  C   UNL     1       3.559   5.303  -9.888  0.00  0.00    +0.182 C 
ATOM     23  O   UNL     1       4.057   6.373 -10.854  0.00  0.00    -0.220 OA
ATOM     24  C   UNL     1       3.580   6.418  -8.676  0.00  0.00    +0.039 C 
ENDROOT
BRANCH   3  25
ATOM     25  C   UNL     1       3.092   6.934  -5.292  0.00  0.00    +0.213 C 
ATOM     26  O   UNL     1       2.356   7.097  -4.316  0.00  0.00    -0.291 OA
BRANCH  25  27
ATOM     27  C   UNL     1       4.442   7.409  -4.863  0.00  0.00    +0.248 C 
ATOM     28  O   UNL     1       4.450   8.041  -3.653  0.00  0.00    -0.212 OA
ENDBRANCH  25  27
ENDBRANCH   3  25
TORSDOF 2
ENDMDL
MODEL 3
REMARK VINA RESULT:      -8.8      1.724      6.740
REMARK  Name = 
REMARK  2 active torsions:
REMARK  status: ('A' for Active; 'I' for Inactive)
REMARK    1  A    between atoms: C_23  and  C_25
REMARK    2  A    between atoms: C_25  and  C_27
REMARK                            x       y       z     vdW  Elec       q    Type
REMARK                         _______ _______ _______ _____ _____    ______ ____
ROOT
ATOM      1  C   UNL     1       3.977   4.443  -3.765  0.00  0.00    +0.003 C 
ATOM      2  C   UNL     1       3.016   5.633  -3.595  0.00  0.00    +0.037 C 
ATOM      3  C   UNL     1       3.437   6.230  -2.376  0.00  0.00    +0.207 C 
ATOM      4  O   UNL     1       2.512   7.082  -1.826  0.00  0.00    -0.215 OA
ATOM      5  C   UNL     1       4.789   7.110  -2.702  0.00  0.00    +0.186 C 
ATOM      6  O   UNL     1       4.037   8.346  -3.176  0.00  0.00    -0.220 OA
ATOM      7  C   UNL     1       5.023   6.491  -4.215  0.00  0.00    +0.036 C 
ATOM      8  C   UNL     1       3.504   6.742  -4.666  0.00  0.00    +0.008 C 
ATOM      9  C   UNL     1       3.375   5.563  -5.873  0.00  0.00    +0.034 C 
ATOM     10  C   UNL     1       4.242   6.297  -7.026  0.00  0.00    +0.007 C 
ATOM     11  C   UNL     1       3.987   5.388  -8.219  0.00  0.00    +0.023 C 
ATOM     12  C   UNL     1       2.569   4.865  -8.189  0.00  0.00    -0.035 C 
ATOM     13  C   UNL     1       1.612   5.897  -7.646  0.00  0.00    +0.064 C 
ATOM     14  C   UNL     1       0.179   5.595  -7.991  0.00  0.00    +0.011 C 
ATOM     15  C   UNL     1       1.834   6.917  -8.754  0.00  0.00    -0.017 C 
ATOM     16  C   UNL     1       1.656   6.446 -10.005  0.00  0.00    +0.038 C 
ATOM     17  C   UNL     1       1.233   5.047 -10.208  0.00  0.00    +0.195 C 
ATOM     18  O   UNL     1       0.326   4.616 -10.918  0.00  0.00    -0.287 OA
ATOM     19  C   UNL     1       2.029   4.238  -9.260  0.00  0.00    +0.034 C 
ATOM     20  C   UNL     1       2.015   6.261  -6.354  0.00  0.00    +0.168 C 
ATOM     21  F   UNL     1       2.238   7.654  -6.428  0.00  0.00    -0.237 F 
ATOM     22  C   UNL     1       0.949   6.118  -5.135  0.00  0.00    +0.182 C 
ATOM     23  O   UNL     1       0.317   4.853  -5.706  0.00  0.00    -0.220 OA
ATOM     24  C   UNL     1       1.799   5.188  -4.074  0.00  0.00    +0.039 C 
ENDROOT
BRANCH   3  25
ATOM     25  C   UNL     1       3.999   5.224  -1.407  0.00  0.00    +0.213 C 
ATOM     26  O   UNL     1       4.698   5.570  -0.451  0.00  0.00    -0.291 OA
BRANCH  25  27
ATOM     27  C   UNL     1       3.274   3.998  -0.954  0.00  0.00    +0.248 C 
ATOM     28  O   UNL     1       1.973   4.219  -0.605  0.00  0.00    -0.212 OA
ENDBRANCH  25  27
ENDBRANCH   3  25
TORSDOF 2
ENDMDL
MODEL 4
REMARK VINA RESULT:      -8.7      1.731      7.158
REMARK  Name = 
REMARK  2 active torsions:
REMARK  status: ('A' for Active; 'I' for Inactive)
REMARK    1  A    between atoms: C_23  and  C_25
REMARK    2  A    between atoms: C_25  and  C_27
REMARK                            x       y       z     vdW  Elec       q    Type
REMARK                         _______ _______ _______ _____ _____    ______ ____
ROOT
ATOM      1  C   UNL     1       2.941   7.523  -2.471  0.00  0.00    +0.003 C 
ATOM      2  C   UNL     1       3.018   5.987  -2.528  0.00  0.00    +0.037 C 
ATOM      3  C   UNL     1       2.785   5.591  -1.183  0.00  0.00    +0.207 C 
ATOM      4  O   UNL     1       3.164   4.300  -0.910  0.00  0.00    -0.215 OA
ATOM      5  C   UNL     1       1.166   5.700  -0.913  0.00  0.00    +0.186 C 
ATOM      6  O   UNL     1       0.838   4.329  -1.490  0.00  0.00    -0.220 OA
ATOM      7  C   UNL     1       0.826   6.528  -2.301  0.00  0.00    +0.036 C 
ATOM      8  C   UNL     1       1.643   5.508  -3.232  0.00  0.00    +0.008 C 
ATOM      9  C   UNL     1       2.002   6.541  -4.524  0.00  0.00    +0.034 C 
ATOM     10  C   UNL     1       0.537   6.594  -5.209  0.00  0.00    +0.007 C 
ATOM     11  C   UNL     1       0.838   7.334  -6.504  0.00  0.00    +0.023 C 
ATOM     12  C   UNL     1       2.197   6.938  -7.035  0.00  0.00    -0.035 C 
ATOM     13  C   UNL     1       2.493   5.484  -6.761  0.00  0.00    +0.064 C 
ATOM     14  C   UNL     1       3.603   4.947  -7.622  0.00  0.00    +0.011 C 
ATOM     15  C   UNL     1       1.352   4.929  -7.604  0.00  0.00    -0.017 C 
ATOM     16  C   UNL     1       1.322   5.367  -8.879  0.00  0.00    +0.038 C 
ATOM     17  C   UNL     1       2.374   6.280  -9.365  0.00  0.00    +0.195 C 
ATOM     18  O   UNL     1       3.045   6.197 -10.393  0.00  0.00    -0.287 OA
ATOM     19  C   UNL     1       2.585   7.271  -8.288  0.00  0.00    +0.034 C 
ATOM     20  C   UNL     1       2.433   5.256  -5.380  0.00  0.00    +0.168 C 
ATOM     21  F   UNL     1       1.436   4.269  -5.222  0.00  0.00    -0.237 F 
ATOM     22  C   UNL     1       3.725   4.602  -4.640  0.00  0.00    +0.182 C 
ATOM     23  O   UNL     1       4.726   5.334  -5.529  0.00  0.00    -0.220 OA
ATOM     24  C   UNL     1       4.006   5.707  -3.451  0.00  0.00    +0.039 C 
ENDROOT
BRANCH   3  25
ATOM     25  C   UNL     1       3.291   6.603  -0.189  0.00  0.00    +0.213 C 
ATOM     26  O   UNL     1       2.592   6.990   0.750  0.00  0.00    -0.291 OA
BRANCH  25  27
ATOM     27  C   UNL     1       4.700   6.664   0.305  0.00  0.00    +0.248 C 
ATOM     28  O   UNL     1       4.809   6.774   1.661  0.00  0.00    -0.212 OA
ENDBRANCH  25  27
ENDBRANCH   3  25
TORSDOF 2
ENDMDL
MODEL 5
REMARK VINA RESULT:      -8.2      2.393      3.061
REMARK  Name = 
REMARK  2 active torsions:
REMARK  status: ('A' for Active; 'I' for Inactive)
REMARK    1  A    between atoms: C_23  and  C_25
REMARK    2  A    between atoms: C_25  and  C_27
REMARK                            x       y       z     vdW  Elec       q    Type
REMARK                         _______ _______ _______ _____ _____    ______ ____
ROOT
ATOM      1  C   UNL     1       1.432   7.170  -8.803  0.00  0.00    +0.003 C 
ATOM      2  C   UNL     1       0.945   5.710  -8.781  0.00  0.00    +0.037 C 
ATOM      3  C   UNL     1       1.694   5.093  -9.821  0.00  0.00    +0.207 C 
ATOM      4  O   UNL     1       1.179   3.891 -10.237  0.00  0.00    -0.215 OA
ATOM      5  C   UNL     1       3.204   4.809  -9.234  0.00  0.00    +0.186 C 
ATOM      6  O   UNL     1       2.845   3.492  -8.560  0.00  0.00    -0.220 OA
ATOM      7  C   UNL     1       3.024   5.725  -7.872  0.00  0.00    +0.036 C 
ATOM      8  C   UNL     1       1.626   5.044  -7.474  0.00  0.00    +0.008 C 
ATOM      9  C   UNL     1       0.961   6.297  -6.550  0.00  0.00    +0.034 C 
ATOM     10  C   UNL     1       1.863   6.123  -5.218  0.00  0.00    +0.007 C 
ATOM     11  C   UNL     1       1.170   7.081  -4.259  0.00  0.00    +0.023 C 
ATOM     12  C   UNL     1      -0.324   7.066  -4.487  0.00  0.00    -0.035 C 
ATOM     13  C   UNL     1      -0.810   5.687  -4.862  0.00  0.00    +0.064 C 
ATOM     14  C   UNL     1      -2.295   5.528  -4.677  0.00  0.00    +0.011 C 
ATOM     15  C   UNL     1      -0.412   5.018  -3.553  0.00  0.00    -0.017 C 
ATOM     16  C   UNL     1      -0.896   5.609  -2.441  0.00  0.00    +0.038 C 
ATOM     17  C   UNL     1      -1.777   6.786  -2.562  0.00  0.00    +0.195 C 
ATOM     18  O   UNL     1      -2.860   6.992  -2.015  0.00  0.00    -0.287 OA
ATOM     19  C   UNL     1      -1.174   7.643  -3.605  0.00  0.00    +0.034 C 
ATOM     20  C   UNL     1      -0.145   5.266  -6.020  0.00  0.00    +0.168 C 
ATOM     21  F   UNL     1       0.510   4.073  -5.644  0.00  0.00    -0.237 F 
ATOM     22  C   UNL     1      -1.030   4.814  -7.307  0.00  0.00    +0.182 C 
ATOM     23  O   UNL     1      -2.111   5.860  -7.053  0.00  0.00    -0.220 OA
ATOM     24  C   UNL     1      -0.402   5.781  -8.484  0.00  0.00    +0.039 C 
ENDROOT
BRANCH   3  25
ATOM     25  C   UNL     1       2.016   6.046 -10.941  0.00  0.00    +0.213 C 
ATOM     26  O   UNL     1       3.176   6.234 -11.314  0.00  0.00    -0.291 OA
BRANCH  25  27
ATOM     27  C   UNL     1       1.166   6.232 -12.156  0.00  0.00    +0.248 C 
ATOM     28  O   UNL     1       0.098   7.059 -11.966  0.00  0.00    -0.212 OA
ENDBRANCH  25  27
ENDBRANCH   3  25
TORSDOF 2
ENDMDL
MODEL 6
REMARK VINA RESULT:      -8.0      2.085      4.076
REMARK  Name = 
REMARK  2 active torsions:
REMARK  status: ('A' for Active; 'I' for Inactive)
REMARK    1  A    between atoms: C_23  and  C_25
REMARK    2  A    between atoms: C_25  and  C_27
REMARK                            x       y       z     vdW  Elec       q    Type
REMARK                         _______ _______ _______ _____ _____    ______ ____
ROOT
ATOM      1  C   UNL     1       1.351   4.115 -10.452  0.00  0.00    +0.003 C 
ATOM      2  C   UNL     1       1.799   5.584 -10.550  0.00  0.00    +0.037 C 
ATOM      3  C   UNL     1       1.219   6.028 -11.770  0.00  0.00    +0.207 C 
ATOM      4  O   UNL     1       1.771   7.186 -12.259  0.00  0.00    -0.215 OA
ATOM      5  C   UNL     1      -0.373   6.323 -11.478  0.00  0.00    +0.186 C 
ATOM      6  O   UNL     1      -0.155   7.731 -10.940  0.00  0.00    -0.220 OA
ATOM      7  C   UNL     1      -0.401   5.602  -9.992  0.00  0.00    +0.036 C 
ATOM      8  C   UNL     1       0.899   6.386  -9.473  0.00  0.00    +0.008 C 
ATOM      9  C   UNL     1       1.427   5.294  -8.292  0.00  0.00    +0.034 C 
ATOM     10  C   UNL     1       0.315   5.603  -7.158  0.00  0.00    +0.007 C 
ATOM     11  C   UNL     1       0.860   4.809  -5.979  0.00  0.00    +0.023 C 
ATOM     12  C   UNL     1       2.370   4.857  -5.964  0.00  0.00    -0.035 C 
ATOM     13  C   UNL     1       2.885   6.193  -6.440  0.00  0.00    +0.064 C 
ATOM     14  C   UNL     1       4.315   6.437  -6.044  0.00  0.00    +0.011 C 
ATOM     15  C   UNL     1       2.263   7.011  -5.316  0.00  0.00    -0.017 C 
ATOM     16  C   UNL     1       2.570   6.591  -4.071  0.00  0.00    +0.038 C 
ATOM     17  C   UNL     1       3.482   5.446  -3.888  0.00  0.00    +0.195 C 
ATOM     18  O   UNL     1       4.464   5.358  -3.152  0.00  0.00    -0.287 OA
ATOM     19  C   UNL     1       3.076   4.436  -4.888  0.00  0.00    +0.034 C 
ATOM     20  C   UNL     1       2.411   6.431  -7.737  0.00  0.00    +0.168 C 
ATOM     21  F   UNL     1       1.679   7.635  -7.636  0.00  0.00    -0.237 F 
ATOM     22  C   UNL     1       3.486   6.747  -8.915  0.00  0.00    +0.182 C 
ATOM     23  O   UNL     1       4.531   5.790  -8.351  0.00  0.00    -0.220 OA
ATOM     24  C   UNL     1       3.079   5.609 -10.034  0.00  0.00    +0.039 C 
ENDROOT
BRANCH   3  25
ATOM     25  C   UNL     1       1.104   4.924 -12.788  0.00  0.00    +0.213 C 
ATOM     26  O   UNL     1       0.007   4.532 -13.193  0.00  0.00    -0.291 OA
BRANCH  25  27
ATOM     27  C   UNL     1       2.048   4.734 -13.931  0.00  0.00    +0.248 C 
ATOM     28  O   UNL     1       1.927   3.526 -14.556  0.00  0.00    -0.212 OA
ENDBRANCH  25  27
ENDBRANCH   3  25
TORSDOF 2
ENDMDL
MODEL 7
REMARK VINA RESULT:      -7.7      1.980      2.740
REMARK  Name = 
REMARK  2 active torsions:
REMARK  status: ('A' for Active; 'I' for Inactive)
REMARK    1  A    between atoms: C_23  and  C_25
REMARK    2  A    between atoms: C_25  and  C_27
REMARK                            x       y       z     vdW  Elec       q    Type
REMARK                         _______ _______ _______ _____ _____    ______ ____
ROOT
ATOM      1  C   UNL     1       1.433   7.192  -5.958  0.00  0.00    +0.003 C 
ATOM      2  C   UNL     1       1.308   5.811  -5.289  0.00  0.00    +0.037 C 
ATOM      3  C   UNL     1       1.075   4.932  -6.382  0.00  0.00    +0.207 C 
ATOM      4  O   UNL     1       0.570   3.710  -6.012  0.00  0.00    -0.215 OA
ATOM      5  C   UNL     1       2.524   4.667  -7.115  0.00  0.00    +0.186 C 
ATOM      6  O   UNL     1       2.957   3.556  -6.168  0.00  0.00    -0.220 OA
ATOM      7  C   UNL     1       3.332   5.865  -6.315  0.00  0.00    +0.036 C 
ATOM      8  C   UNL     1       2.813   5.392  -4.872  0.00  0.00    +0.008 C 
ATOM      9  C   UNL     1       2.938   6.860  -4.038  0.00  0.00    +0.034 C 
ATOM     10  C   UNL     1       4.547   6.909  -3.869  0.00  0.00    +0.007 C 
ATOM     11  C   UNL     1       4.715   8.100  -2.936  0.00  0.00    +0.023 C 
ATOM     12  C   UNL     1       3.583   8.148  -1.935  0.00  0.00    -0.035 C 
ATOM     13  C   UNL     1       3.148   6.762  -1.527  0.00  0.00    +0.064 C 
ATOM     14  C   UNL     1       2.352   6.758  -0.250  0.00  0.00    +0.011 C 
ATOM     15  C   UNL     1       4.473   6.361  -0.892  0.00  0.00    -0.017 C 
ATOM     16  C   UNL     1       4.934   7.211   0.048  0.00  0.00    +0.038 C 
ATOM     17  C   UNL     1       4.138   8.398   0.416  0.00  0.00    +0.195 C 
ATOM     18  O   UNL     1       3.831   8.798   1.538  0.00  0.00    -0.287 OA
ATOM     19  C   UNL     1       3.636   8.963  -0.855  0.00  0.00    +0.034 C 
ATOM     20  C   UNL     1       2.748   6.053  -2.667  0.00  0.00    +0.168 C 
ATOM     21  F   UNL     1       3.594   4.923  -2.702  0.00  0.00    -0.237 F 
ATOM     22  C   UNL     1       1.258   5.404  -2.699  0.00  0.00    +0.182 C 
ATOM     23  O   UNL     1       0.633   6.558  -1.922  0.00  0.00    -0.220 OA
ATOM     24  C   UNL     1       0.659   6.045  -4.093  0.00  0.00    +0.039 C 
ENDROOT
BRANCH   3  25
ATOM     25  C   UNL     1       0.323   5.595  -7.505  0.00  0.00    +0.213 C 
ATOM     26  O   UNL     1       0.809   5.699  -8.633  0.00  0.00    -0.291 OA
BRANCH  25  27
ATOM     27  C   UNL     1      -1.153   5.480  -7.710  0.00  0.00    +0.248 C 
ATOM     28  O   UNL     1      -1.894   5.809  -6.612  0.00  0.00    -0.212 OA
ENDBRANCH  25  27
ENDBRANCH   3  25
TORSDOF 2
ENDMDL
MODEL 8
REMARK VINA RESULT:      -7.7      2.528      6.941
REMARK  Name = 
REMARK  2 active torsions:
REMARK  status: ('A' for Active; 'I' for Inactive)
REMARK    1  A    between atoms: C_23  and  C_25
REMARK    2  A    between atoms: C_25  and  C_27
REMARK                            x       y       z     vdW  Elec       q    Type
REMARK                         _______ _______ _______ _____ _____    ______ ____
ROOT
ATOM      1  C   UNL     1       2.871   7.235  -6.453  0.00  0.00    +0.003 C 
ATOM      2  C   UNL     1       3.440   5.807  -6.378  0.00  0.00    +0.037 C 
ATOM      3  C   UNL     1       2.730   5.223  -5.293  0.00  0.00    +0.207 C 
ATOM      4  O   UNL     1       3.314   4.083  -4.798  0.00  0.00    -0.215 OA
ATOM      5  C   UNL     1       1.237   4.813  -5.848  0.00  0.00    +0.186 C 
ATOM      6  O   UNL     1       1.669   3.475  -6.432  0.00  0.00    -0.220 OA
ATOM      7  C   UNL     1       1.361   5.641  -7.272  0.00  0.00    +0.036 C 
ATOM      8  C   UNL     1       2.794   5.014  -7.630  0.00  0.00    +0.008 C 
ATOM      9  C   UNL     1       3.384   6.235  -8.644  0.00  0.00    +0.034 C 
ATOM     10  C   UNL     1       2.489   5.918  -9.955  0.00  0.00    +0.007 C 
ATOM     11  C   UNL     1       3.123   6.845 -10.982  0.00  0.00    +0.023 C 
ATOM     12  C   UNL     1       4.617   6.930 -10.764  0.00  0.00    -0.035 C 
ATOM     13  C   UNL     1       5.182   5.611 -10.298  0.00  0.00    +0.064 C 
ATOM     14  C   UNL     1       6.673   5.524 -10.481  0.00  0.00    +0.011 C 
ATOM     15  C   UNL     1       4.819   4.831 -11.554  0.00  0.00    -0.017 C 
ATOM     16  C   UNL     1       5.265   5.369 -12.708  0.00  0.00    +0.038 C 
ATOM     17  C   UNL     1       6.078   6.600 -12.675  0.00  0.00    +0.195 C 
ATOM     18  O   UNL     1       7.145   6.829 -13.242  0.00  0.00    -0.287 OA
ATOM     19  C   UNL     1       5.430   7.492 -11.689  0.00  0.00    +0.034 C 
ATOM     20  C   UNL     1       4.546   5.234  -9.109  0.00  0.00    +0.168 C 
ATOM     21  F   UNL     1       3.958   3.983  -9.397  0.00  0.00    -0.237 F 
ATOM     22  C   UNL     1       5.459   4.924  -7.800  0.00  0.00    +0.182 C 
ATOM     23  O   UNL     1       6.478   6.009  -8.133  0.00  0.00    -0.220 OA
ATOM     24  C   UNL     1       4.779   5.933  -6.689  0.00  0.00    +0.039 C 
ENDROOT
BRANCH   3  25
ATOM     25  C   UNL     1       2.358   6.231  -4.239  0.00  0.00    +0.213 C 
ATOM     26  O   UNL     1       1.201   6.334  -3.826  0.00  0.00    -0.291 OA
BRANCH  25  27
ATOM     27  C   UNL     1       3.233   6.604  -3.086  0.00  0.00    +0.248 C 
ATOM     28  O   UNL     1       3.603   7.917  -3.071  0.00  0.00    -0.212 OA
ENDBRANCH  25  27
ENDBRANCH   3  25
TORSDOF 2
ENDMDL
MODEL 9
REMARK VINA RESULT:      -7.5      2.882      4.479
REMARK  Name = 
REMARK  2 active torsions:
REMARK  status: ('A' for Active; 'I' for Inactive)
REMARK    1  A    between atoms: C_23  and  C_25
REMARK    2  A    between atoms: C_25  and  C_27
REMARK                            x       y       z     vdW  Elec       q    Type
REMARK                         _______ _______ _______ _____ _____    ______ ____
ROOT
ATOM      1  C   UNL     1       1.627   4.194  -6.925  0.00  0.00    +0.003 C 
ATOM      2  C   UNL     1       2.094   5.634  -6.645  0.00  0.00    +0.037 C 
ATOM      3  C   UNL     1       2.835   5.976  -7.810  0.00  0.00    +0.207 C 
ATOM      4  O   UNL     1       3.654   7.066  -7.646  0.00  0.00    -0.215 OA
ATOM      5  C   UNL     1       1.750   6.344  -8.990  0.00  0.00    +0.186 C 
ATOM      6  O   UNL     1       1.556   7.790  -8.553  0.00  0.00    -0.220 OA
ATOM      7  C   UNL     1       0.430   5.768  -8.182  0.00  0.00    +0.036 C 
ATOM      8  C   UNL     1       0.782   6.560  -6.832  0.00  0.00    +0.008 C 
ATOM      9  C   UNL     1      -0.015   5.571  -5.714  0.00  0.00    +0.034 C 
ATOM     10  C   UNL     1      -1.537   6.018  -6.034  0.00  0.00    +0.007 C 
ATOM     11  C   UNL     1      -2.296   5.324  -4.912  0.00  0.00    +0.023 C 
ATOM     12  C   UNL     1      -1.479   5.329  -3.641  0.00  0.00    -0.035 C 
ATOM     13  C   UNL     1      -0.674   6.598  -3.507  0.00  0.00    +0.064 C 
ATOM     14  C   UNL     1      -0.199   6.837  -2.099  0.00  0.00    +0.011 C 
ATOM     15  C   UNL     1      -1.871   7.537  -3.435  0.00  0.00    -0.017 C 
ATOM     16  C   UNL     1      -2.779   7.229  -2.487  0.00  0.00    +0.038 C 
ATOM     17  C   UNL     1      -2.543   6.080  -1.592  0.00  0.00    +0.195 C 
ATOM     18  O   UNL     1      -2.628   6.034  -0.365  0.00  0.00    -0.287 OA
ATOM     19  C   UNL     1      -2.029   4.992  -2.451  0.00  0.00    +0.034 C 
ATOM     20  C   UNL     1       0.169   6.726  -4.619  0.00  0.00    +0.168 C 
ATOM     21  F   UNL     1      -0.200   7.954  -5.209  0.00  0.00    -0.237 F 
ATOM     22  C   UNL     1       1.766   6.897  -4.371  0.00  0.00    +0.182 C 
ATOM     23  O   UNL     1       1.777   5.967  -3.162  0.00  0.00    -0.220 OA
ATOM     24  C   UNL     1       2.367   5.670  -5.292  0.00  0.00    +0.039 C 
ENDROOT
BRANCH   3  25
ATOM     25  C   UNL     1       3.514   4.784  -8.431  0.00  0.00    +0.213 C 
ATOM     26  O   UNL     1       3.105   4.285  -9.482  0.00  0.00    -0.291 OA
BRANCH  25  27
ATOM     27  C   UNL     1       4.992   4.563  -8.427  0.00  0.00    +0.248 C 
ATOM     28  O   UNL     1       5.669   5.316  -9.342  0.00  0.00    -0.212 OA
ENDBRANCH  25  27
ENDBRANCH   3  25
TORSDOF 2
ENDMDL
