MODEL 1
REMARK VINA RESULT:      -4.9      0.000      0.000
REMARK  Name = 
REMARK  28 active torsions:
REMARK  status: ('A' for Active; 'I' for Inactive)
REMARK    1  A    between atoms: C_2  and  C_4
REMARK    2  A    between atoms: C_4  and  O_5
REMARK    3  A    between atoms: O_5  and  C_6
REMARK    4  A    between atoms: C_6  and  C_7
REMARK    5  A    between atoms: C_9  and  O_10
REMARK    6  A    between atoms: O_10  and  C_11
REMARK    7  A    between atoms: C_12  and  O_13
REMARK    8  A    between atoms: O_13  and  C_14
REMARK    9  A    between atoms: C_14  and  C_15
REMARK   10  A    between atoms: C_18  and  O_19
REMARK   11  A    between atoms: O_19  and  C_20
REMARK   12  A    between atoms: C_20  and  C_21
REMARK   13  A    between atoms: C_24  and  O_25
REMARK   14  A    between atoms: O_25  and  C_26
REMARK   15  A    between atoms: C_26  and  C_27
REMARK   16  A    between atoms: C_31  and  C_32
REMARK   17  A    between atoms: C_32  and  O_33
REMARK   18  A    between atoms: O_33  and  C_34
REMARK   19  A    between atoms: C_34  and  C_35
REMARK   20  A    between atoms: C_38  and  O_39
REMARK   21  A    between atoms: O_39  and  C_40
REMARK   22  A    between atoms: C_40  and  C_41
REMARK   23  A    between atoms: C_44  and  O_45
REMARK   24  A    between atoms: O_45  and  C_46
REMARK   25  A    between atoms: C_46  and  C_47
REMARK   26  A    between atoms: C_50  and  O_51
REMARK   27  A    between atoms: O_51  and  C_52
REMARK   28  A    between atoms: C_52  and  C_53
REMARK                            x       y       z     vdW  Elec       q    Type
REMARK                         _______ _______ _______ _____ _____    ______ ____
ROOT
ATOM      1  O   UNL     1       3.357   5.521  -7.945  0.00  0.00    -0.326 OA
ENDROOT
BRANCH   1   2
ATOM      2  C   UNL     1       3.053   4.475  -8.959  0.00  0.00    +0.177 C 
ATOM      3  C   UNL     1       4.465   4.705  -9.917  0.00  0.00    +0.177 C 
ATOM      4  O   UNL     1       4.278   6.128 -10.322  0.00  0.00    -0.326 OA
ATOM      5  C   UNL     1       3.694   6.011 -11.726  0.00  0.00    +0.266 C 
ATOM      6  C   UNL     1       2.692   4.661 -11.333  0.00  0.00    +0.201 C 
ATOM      7  C   UNL     1       1.919   5.308  -9.950  0.00  0.00    +0.177 C 
BRANCH   3   8
ATOM      8  C   UNL     1       5.444   5.111  -8.641  0.00  0.00    +0.174 C 
BRANCH   8   9
ATOM      9  O   UNL     1       6.528   5.778  -9.083  0.00  0.00    -0.348 OA
BRANCH   9  10
ATOM     10  C   UNL     1       7.336   5.470 -10.083  0.00  0.00    +0.175 C 
BRANCH  10  11
ATOM     11  C   UNL     1       8.295   6.816 -10.144  0.00  0.00    +0.181 C 
ATOM     12  O   UNL     1       8.873   6.418 -11.494  0.00  0.00    -0.220 OA
ATOM     13  C   UNL     1       7.085   7.680 -10.858  0.00  0.00    +0.038 C 
ENDBRANCH  10  11
ENDBRANCH   9  10
ENDBRANCH   8   9
ENDBRANCH   3   8
BRANCH   5  14
ATOM     14  O   UNL     1       4.795   5.048 -12.192  0.00  0.00    -0.326 OA
BRANCH  14  15
ATOM     15  C   UNL     1       4.860   5.400 -13.501  0.00  0.00    +0.178 C 
BRANCH  15  16
ATOM     16  C   UNL     1       6.285   6.230 -13.592  0.00  0.00    +0.182 C 
ATOM     17  O   UNL     1       7.055   4.948 -13.869  0.00  0.00    -0.220 OA
ATOM     18  C   UNL     1       6.068   6.504 -15.207  0.00  0.00    +0.038 C 
ENDBRANCH  15  16
ENDBRANCH  14  15
ENDBRANCH   5  14
BRANCH   6  19
ATOM     19  O   UNL     1       1.574   5.149 -12.210  0.00  0.00    -0.346 OA
BRANCH  19  20
ATOM     20  C   UNL     1       1.015   4.011 -12.735  0.00  0.00    +0.175 C 
BRANCH  20  21
ATOM     21  C   UNL     1       1.461   4.224 -14.312  0.00  0.00    +0.181 C 
ATOM     22  O   UNL     1       0.156   3.626 -14.810  0.00  0.00    -0.220 OA
ATOM     23  C   UNL     1       0.837   5.751 -14.361  0.00  0.00    +0.038 C 
ENDBRANCH  20  21
ENDBRANCH  19  20
ENDBRANCH   6  19
BRANCH   7  24
ATOM     24  O   UNL     1       2.510   6.668  -9.864  0.00  0.00    -0.348 OA
BRANCH  24  25
ATOM     25  C   UNL     1       1.328   7.449  -9.897  0.00  0.00    +0.175 C 
BRANCH  25  26
ATOM     26  C   UNL     1       0.168   6.449 -10.510  0.00  0.00    +0.181 C 
ATOM     27  O   UNL     1      -0.789   6.704  -9.356  0.00  0.00    -0.220 OA
ATOM     28  C   UNL     1      -0.469   7.699 -11.382  0.00  0.00    +0.038 C 
ENDBRANCH  25  26
ENDBRANCH  24  25
ENDBRANCH   7  24
ENDBRANCH   1   2
BRANCH   1  33
ATOM     29  C   UNL     1       1.676   3.885  -5.743  0.00  0.00    +0.177 C 
ATOM     30  C   UNL     1       0.323   4.847  -5.230  0.00  0.00    +0.174 C 
ATOM     31  C   UNL     1       0.977   6.383  -5.077  0.00  0.00    +0.177 C 
ATOM     32  C   UNL     1       2.533   6.112  -5.688  0.00  0.00    +0.201 C 
ATOM     33  C   UNL     1       2.029   5.886  -7.299  0.00  0.00    +0.266 C 
ATOM     34  O   UNL     1       1.666   4.439  -7.145  0.00  0.00    -0.326 OA
BRANCH  32  35
ATOM     35  O   UNL     1       2.962   7.538  -5.724  0.00  0.00    -0.346 OA
BRANCH  35  36
ATOM     36  C   UNL     1       4.353   7.473  -5.558  0.00  0.00    +0.175 C 
BRANCH  36  37
ATOM     37  C   UNL     1       4.844   8.340  -4.250  0.00  0.00    +0.181 C 
ATOM     38  O   UNL     1       3.700   7.852  -3.363  0.00  0.00    -0.220 OA
ATOM     39  C   UNL     1       5.823   7.158  -3.623  0.00  0.00    +0.038 C 
ENDBRANCH  36  37
ENDBRANCH  35  36
ENDBRANCH  32  35
BRANCH  31  40
ATOM     40  O   UNL     1       1.250   6.064  -3.635  0.00  0.00    -0.348 OA
BRANCH  40  41
ATOM     41  C   UNL     1       0.460   6.401  -2.713  0.00  0.00    +0.175 C 
BRANCH  41  42
ATOM     42  C   UNL     1      -0.112   5.342  -1.631  0.00  0.00    +0.181 C 
ATOM     43  O   UNL     1       0.592   6.018  -0.452  0.00  0.00    -0.220 OA
ATOM     44  C   UNL     1      -1.444   6.299  -1.407  0.00  0.00    +0.038 C 
ENDBRANCH  41  42
ENDBRANCH  40  41
ENDBRANCH  31  40
BRANCH  30  45
ATOM     45  O   UNL     1      -0.275   5.083  -6.592  0.00  0.00    -0.348 OA
BRANCH  45  46
ATOM     46  C   UNL     1      -1.522   5.565  -6.525  0.00  0.00    +0.175 C 
BRANCH  46  47
ATOM     47  C   UNL     1      -2.097   5.501  -4.989  0.00  0.00    +0.181 C 
ATOM     48  O   UNL     1      -3.434   4.922  -5.425  0.00  0.00    -0.220 OA
ATOM     49  C   UNL     1      -2.667   7.053  -5.099  0.00  0.00    +0.038 C 
ENDBRANCH  46  47
ENDBRANCH  45  46
ENDBRANCH  30  45
BRANCH  29  50
ATOM     50  C   UNL     1       2.941   4.516  -4.991  0.00  0.00    +0.174 C 
BRANCH  50  51
ATOM     51  O   UNL     1       3.672   4.218  -4.075  0.00  0.00    -0.348 OA
BRANCH  51  52
ATOM     52  C   UNL     1       3.248   4.508  -2.767  0.00  0.00    +0.175 C 
BRANCH  52  54
ATOM     53  C   UNL     1       4.035   5.576  -0.941  0.00  0.00    +0.038 C 
ATOM     54  C   UNL     1       4.537   4.280  -1.756  0.00  0.00    +0.181 C 
ATOM     55  O   UNL     1       3.734   3.380  -0.825  0.00  0.00    -0.220 OA
ENDBRANCH  52  54
ENDBRANCH  51  52
ENDBRANCH  50  51
ENDBRANCH  29  50
ENDBRANCH   1  33
TORSDOF 28
ENDMDL
MODEL 2
REMARK VINA RESULT:      -4.7      4.008      8.644
REMARK  Name = 
REMARK  28 active torsions:
REMARK  status: ('A' for Active; 'I' for Inactive)
REMARK    1  A    between atoms: C_2  and  C_4
REMARK    2  A    between atoms: C_4  and  O_5
REMARK    3  A    between atoms: O_5  and  C_6
REMARK    4  A    between atoms: C_6  and  C_7
REMARK    5  A    between atoms: C_9  and  O_10
REMARK    6  A    between atoms: O_10  and  C_11
REMARK    7  A    between atoms: C_12  and  O_13
REMARK    8  A    between atoms: O_13  and  C_14
REMARK    9  A    between atoms: C_14  and  C_15
REMARK   10  A    between atoms: C_18  and  O_19
REMARK   11  A    between atoms: O_19  and  C_20
REMARK   12  A    between atoms: C_20  and  C_21
REMARK   13  A    between atoms: C_24  and  O_25
REMARK   14  A    between atoms: O_25  and  C_26
REMARK   15  A    between atoms: C_26  and  C_27
REMARK   16  A    between atoms: C_31  and  C_32
REMARK   17  A    between atoms: C_32  and  O_33
REMARK   18  A    between atoms: O_33  and  C_34
REMARK   19  A    between atoms: C_34  and  C_35
REMARK   20  A    between atoms: C_38  and  O_39
REMARK   21  A    between atoms: O_39  and  C_40
REMARK   22  A    between atoms: C_40  and  C_41
REMARK   23  A    between atoms: C_44  and  O_45
REMARK   24  A    between atoms: O_45  and  C_46
REMARK   25  A    between atoms: C_46  and  C_47
REMARK   26  A    between atoms: C_50  and  O_51
REMARK   27  A    between atoms: O_51  and  C_52
REMARK   28  A    between atoms: C_52  and  C_53
REMARK                            x       y       z     vdW  Elec       q    Type
REMARK                         _______ _______ _______ _____ _____    ______ ____
ROOT
ATOM      1  O   UNL     1       2.045   7.150  -1.174  0.00  0.00    -0.326 OA
ENDROOT
BRANCH   1   2
ATOM      2  C   UNL     1       1.673   7.655  -2.524  0.00  0.00    +0.177 C 
ATOM      3  C   UNL     1       0.598   6.373  -2.932  0.00  0.00    +0.177 C 
ATOM      4  O   UNL     1       1.535   5.215  -2.867  0.00  0.00    -0.326 OA
ATOM      5  C   UNL     1       1.901   4.989  -4.330  0.00  0.00    +0.266 C 
ATOM      6  C   UNL     1       1.988   6.672  -4.700  0.00  0.00    +0.201 C 
ATOM      7  C   UNL     1       3.041   7.158  -3.442  0.00  0.00    +0.177 C 
BRANCH   3   8
ATOM      8  C   UNL     1       0.062   6.131  -1.380  0.00  0.00    +0.174 C 
BRANCH   8   9
ATOM      9  O   UNL     1      -1.076   5.412  -1.391  0.00  0.00    -0.348 OA
BRANCH   9  10
ATOM     10  C   UNL     1      -2.080   5.467  -2.249  0.00  0.00    +0.175 C 
BRANCH  10  11
ATOM     11  C   UNL     1      -2.831   6.862  -1.773  0.00  0.00    +0.181 C 
ATOM     12  O   UNL     1      -2.283   7.635  -2.964  0.00  0.00    -0.220 OA
ATOM     13  C   UNL     1      -4.193   6.445  -2.605  0.00  0.00    +0.038 C 
ENDBRANCH  10  11
ENDBRANCH   9  10
ENDBRANCH   8   9
ENDBRANCH   3   8
BRANCH   5  14
ATOM     14  O   UNL     1       0.433   4.973  -4.780  0.00  0.00    -0.326 OA
BRANCH  14  15
ATOM     15  C   UNL     1       0.585   4.443  -6.019  0.00  0.00    +0.178 C 
BRANCH  15  16
ATOM     16  C   UNL     1      -0.913   4.630  -6.689  0.00  0.00    +0.182 C 
ATOM     17  O   UNL     1      -1.102   5.964  -5.981  0.00  0.00    -0.220 OA
ATOM     18  C   UNL     1      -0.271   5.373  -8.018  0.00  0.00    +0.038 C 
ENDBRANCH  15  16
ENDBRANCH  14  15
ENDBRANCH   5  14
BRANCH   6  19
ATOM     19  O   UNL     1       3.154   6.478  -5.627  0.00  0.00    -0.346 OA
BRANCH  19  20
ATOM     20  C   UNL     1       2.786   7.101  -6.793  0.00  0.00    +0.175 C 
BRANCH  20  21
ATOM     21  C   UNL     1       4.005   6.549  -7.761  0.00  0.00    +0.181 C 
ATOM     22  O   UNL     1       4.008   5.197  -7.068  0.00  0.00    -0.220 OA
ATOM     23  C   UNL     1       2.951   6.012  -8.912  0.00  0.00    +0.038 C 
ENDBRANCH  20  21
ENDBRANCH  19  20
ENDBRANCH   6  19
BRANCH   7  24
ATOM     24  O   UNL     1       3.318   5.875  -2.747  0.00  0.00    -0.348 OA
BRANCH  24  25
ATOM     25  C   UNL     1       4.734   5.917  -2.714  0.00  0.00    +0.175 C 
BRANCH  25  26
ATOM     26  C   UNL     1       5.121   7.514  -2.863  0.00  0.00    +0.181 C 
ATOM     27  O   UNL     1       6.241   7.431  -1.837  0.00  0.00    -0.220 OA
ATOM     28  C   UNL     1       6.159   7.160  -4.099  0.00  0.00    +0.038 C 
ENDBRANCH  25  26
ENDBRANCH  24  25
ENDBRANCH   7  24
ENDBRANCH   1   2
BRANCH   1  33
ATOM     29  C   UNL     1       2.751   7.374   1.956  0.00  0.00    +0.177 C 
ATOM     30  C   UNL     1       2.214   8.916   2.551  0.00  0.00    +0.174 C 
ATOM     31  C   UNL     1       2.655   9.976   1.329  0.00  0.00    +0.177 C 
ATOM     32  C   UNL     1       3.204   8.881   0.161  0.00  0.00    +0.201 C 
ATOM     33  C   UNL     1       1.663   8.245  -0.191  0.00  0.00    +0.266 C 
ATOM     34  O   UNL     1       1.638   7.265   0.945  0.00  0.00    -0.326 OA
BRANCH  32  35
ATOM     35  O   UNL     1       3.362   9.864  -0.947  0.00  0.00    -0.346 OA
BRANCH  35  36
ATOM     36  C   UNL     1       3.561  11.084  -0.285  0.00  0.00    +0.175 C 
BRANCH  36  37
ATOM     37  C   UNL     1       4.383  12.152  -1.226  0.00  0.00    +0.181 C 
ATOM     38  O   UNL     1       3.124  12.897  -1.667  0.00  0.00    -0.220 OA
ATOM     39  C   UNL     1       4.623  13.278  -0.034  0.00  0.00    +0.038 C 
ENDBRANCH  36  37
ENDBRANCH  35  36
ENDBRANCH  32  35
BRANCH  31  40
ATOM     40  O   UNL     1       3.952  10.188   2.056  0.00  0.00    -0.348 OA
BRANCH  40  41
ATOM     41  C   UNL     1       4.004  10.743   3.186  0.00  0.00    +0.175 C 
BRANCH  41  42
ATOM     42  C   UNL     1       5.335  11.489   3.725  0.00  0.00    +0.181 C 
ATOM     43  O   UNL     1       5.997  11.514   2.345  0.00  0.00    -0.220 OA
ATOM     44  C   UNL     1       4.625  12.956   3.430  0.00  0.00    +0.038 C 
ENDBRANCH  41  42
ENDBRANCH  40  41
ENDBRANCH  31  40
BRANCH  30  45
ATOM     45  O   UNL     1       0.775   8.799   2.124  0.00  0.00    -0.348 OA
BRANCH  45  46
ATOM     46  C   UNL     1       0.026   9.817   2.567  0.00  0.00    +0.175 C 
BRANCH  46  47
ATOM     47  C   UNL     1      -1.516   9.333   2.854  0.00  0.00    +0.181 C 
ATOM     48  O   UNL     1      -2.016   9.853   1.515  0.00  0.00    -0.220 OA
ATOM     49  C   UNL     1      -1.863  10.767   3.607  0.00  0.00    +0.038 C 
ENDBRANCH  46  47
ENDBRANCH  45  46
ENDBRANCH  30  45
BRANCH  29  50
ATOM     50  C   UNL     1       4.098   7.688   1.150  0.00  0.00    +0.174 C 
BRANCH  50  51
ATOM     51  O   UNL     1       5.229   7.264   1.107  0.00  0.00    -0.348 OA
BRANCH  51  52
ATOM     52  C   UNL     1       6.234   7.985   1.773  0.00  0.00    +0.175 C 
BRANCH  52  54
ATOM     53  C   UNL     1       6.870   6.479   3.330  0.00  0.00    +0.038 C 
ATOM     54  C   UNL     1       5.981   7.821   3.399  0.00  0.00    +0.181 C 
ATOM     55  O   UNL     1       7.225   8.631   3.743  0.00  0.00    -0.220 OA
ENDBRANCH  52  54
ENDBRANCH  51  52
ENDBRANCH  50  51
ENDBRANCH  29  50
ENDBRANCH   1  33
TORSDOF 28
ENDMDL
MODEL 3
REMARK VINA RESULT:      -4.7      1.558      9.214
REMARK  Name = 
REMARK  28 active torsions:
REMARK  status: ('A' for Active; 'I' for Inactive)
REMARK    1  A    between atoms: C_2  and  C_4
REMARK    2  A    between atoms: C_4  and  O_5
REMARK    3  A    between atoms: O_5  and  C_6
REMARK    4  A    between atoms: C_6  and  C_7
REMARK    5  A    between atoms: C_9  and  O_10
REMARK    6  A    between atoms: O_10  and  C_11
REMARK    7  A    between atoms: C_12  and  O_13
REMARK    8  A    between atoms: O_13  and  C_14
REMARK    9  A    between atoms: C_14  and  C_15
REMARK   10  A    between atoms: C_18  and  O_19
REMARK   11  A    between atoms: O_19  and  C_20
REMARK   12  A    between atoms: C_20  and  C_21
REMARK   13  A    between atoms: C_24  and  O_25
REMARK   14  A    between atoms: O_25  and  C_26
REMARK   15  A    between atoms: C_26  and  C_27
REMARK   16  A    between atoms: C_31  and  C_32
REMARK   17  A    between atoms: C_32  and  O_33
REMARK   18  A    between atoms: O_33  and  C_34
REMARK   19  A    between atoms: C_34  and  C_35
REMARK   20  A    between atoms: C_38  and  O_39
REMARK   21  A    between atoms: O_39  and  C_40
REMARK   22  A    between atoms: C_40  and  C_41
REMARK   23  A    between atoms: C_44  and  O_45
REMARK   24  A    between atoms: O_45  and  C_46
REMARK   25  A    between atoms: C_46  and  C_47
REMARK   26  A    between atoms: C_50  and  O_51
REMARK   27  A    between atoms: O_51  and  C_52
REMARK   28  A    between atoms: C_52  and  C_53
REMARK                            x       y       z     vdW  Elec       q    Type
REMARK                         _______ _______ _______ _____ _____    ______ ____
ROOT
ATOM      1  O   UNL     1       1.684   5.765  -7.207  0.00  0.00    -0.326 OA
ENDROOT
BRANCH   1   2
ATOM      2  C   UNL     1       1.452   6.805  -6.167  0.00  0.00    +0.177 C 
ATOM      3  C   UNL     1       2.075   5.905  -4.838  0.00  0.00    +0.177 C 
ATOM      4  O   UNL     1       1.150   4.736  -4.857  0.00  0.00    -0.326 OA
ATOM      5  C   UNL     1       0.135   5.085  -3.773  0.00  0.00    +0.266 C 
ATOM      6  C   UNL     1       0.074   6.758  -4.192  0.00  0.00    +0.201 C 
ATOM      7  C   UNL     1      -0.229   6.593  -5.869  0.00  0.00    +0.177 C 
BRANCH   3   8
ATOM      8  C   UNL     1       3.229   5.110  -5.727  0.00  0.00    +0.174 C 
BRANCH   8   9
ATOM      9  O   UNL     1       4.412   5.142  -5.082  0.00  0.00    -0.348 OA
BRANCH   9  10
ATOM     10  C   UNL     1       4.742   5.816  -3.994  0.00  0.00    +0.175 C 
BRANCH  10  11
ATOM     11  C   UNL     1       4.944   7.337  -4.609  0.00  0.00    +0.181 C 
ATOM     12  O   UNL     1       4.306   7.982  -3.387  0.00  0.00    -0.220 OA
ATOM     13  C   UNL     1       6.448   7.438  -3.941  0.00  0.00    +0.038 C 
ENDBRANCH  10  11
ENDBRANCH   9  10
ENDBRANCH   8   9
ENDBRANCH   3   8
BRANCH   5  14
ATOM     14  O   UNL     1       1.225   5.392  -2.736  0.00  0.00    -0.326 OA
BRANCH  14  15
ATOM     15  C   UNL     1       0.734   4.693  -1.682  0.00  0.00    +0.178 C 
BRANCH  15  16
ATOM     16  C   UNL     1       1.815   5.026  -0.480  0.00  0.00    +0.182 C 
ATOM     17  O   UNL     1       2.977   4.567  -1.348  0.00  0.00    -0.220 OA
ATOM     18  C   UNL     1       1.979   6.584  -1.002  0.00  0.00    +0.038 C 
ENDBRANCH  15  16
ENDBRANCH  14  15
ENDBRANCH   5  14
BRANCH   6  19
ATOM     19  O   UNL     1      -1.400   6.845  -3.915  0.00  0.00    -0.346 OA
BRANCH  19  20
ATOM     20  C   UNL     1      -1.497   7.546  -2.740  0.00  0.00    +0.175 C 
BRANCH  20  21
ATOM     21  C   UNL     1      -2.237   6.388  -1.823  0.00  0.00    +0.181 C 
ATOM     22  O   UNL     1      -2.494   7.376  -0.697  0.00  0.00    -0.220 OA
ATOM     23  C   UNL     1      -3.714   6.694  -2.493  0.00  0.00    +0.038 C 
ENDBRANCH  20  21
ENDBRANCH  19  20
ENDBRANCH   6  19
BRANCH   7  24
ATOM     24  O   UNL     1      -0.297   5.119  -6.034  0.00  0.00    -0.348 OA
BRANCH  24  25
ATOM     25  C   UNL     1      -1.434   5.021  -6.876  0.00  0.00    +0.175 C 
BRANCH  25  26
ATOM     26  C   UNL     1      -2.549   6.040  -6.213  0.00  0.00    +0.181 C 
ATOM     27  O   UNL     1      -3.424   6.035  -7.457  0.00  0.00    -0.220 OA
ATOM     28  C   UNL     1      -3.364   4.753  -5.573  0.00  0.00    +0.038 C 
ENDBRANCH  25  26
ENDBRANCH  24  25
ENDBRANCH   7  24
ENDBRANCH   1   2
BRANCH   1  33
ATOM     29  C   UNL     1       3.393   4.181  -9.424  0.00  0.00    +0.177 C 
ATOM     30  C   UNL     1       4.444   5.301 -10.239  0.00  0.00    +0.174 C 
ATOM     31  C   UNL     1       3.469   6.645 -10.473  0.00  0.00    +0.177 C 
ATOM     32  C   UNL     1       2.089   6.171  -9.614  0.00  0.00    +0.201 C 
ATOM     33  C   UNL     1       2.818   6.281  -8.078  0.00  0.00    +0.266 C 
ATOM     34  O   UNL     1       3.455   4.924  -8.113  0.00  0.00    -0.326 OA
BRANCH  32  35
ATOM     35  O   UNL     1       1.378   7.478  -9.682  0.00  0.00    -0.346 OA
BRANCH  35  36
ATOM     36  C   UNL     1       0.087   7.135 -10.106  0.00  0.00    +0.175 C 
BRANCH  36  37
ATOM     37  C   UNL     1      -0.481   8.195 -11.226  0.00  0.00    +0.181 C 
ATOM     38  O   UNL     1       0.401   7.647 -12.348  0.00  0.00    -0.220 OA
ATOM     39  C   UNL     1      -1.728   7.237 -11.749  0.00  0.00    +0.038 C 
ENDBRANCH  36  37
ENDBRANCH  35  36
ENDBRANCH  32  35
BRANCH  31  40
ATOM     40  O   UNL     1       3.098   6.074 -11.813  0.00  0.00    -0.348 OA
BRANCH  40  41
ATOM     41  C   UNL     1       3.736   6.357 -12.861  0.00  0.00    +0.175 C 
BRANCH  41  42
ATOM     42  C   UNL     1       4.174   5.232 -13.939  0.00  0.00    +0.181 C 
ATOM     43  O   UNL     1       3.498   5.951 -15.110  0.00  0.00    -0.220 OA
ATOM     44  C   UNL     1       5.581   6.059 -14.222  0.00  0.00    +0.038 C 
ENDBRANCH  41  42
ENDBRANCH  40  41
ENDBRANCH  31  40
BRANCH  30  45
ATOM     45  O   UNL     1       5.137   5.841  -9.016  0.00  0.00    -0.348 OA
BRANCH  45  46
ATOM     46  C   UNL     1       6.459   5.968  -9.194  0.00  0.00    +0.175 C 
BRANCH  46  47
ATOM     47  C   UNL     1       6.864   5.755 -10.770  0.00  0.00    +0.181 C 
ATOM     48  O   UNL     1       8.263   5.264 -10.430  0.00  0.00    -0.220 OA
ATOM     49  C   UNL     1       7.381   7.326 -10.885  0.00  0.00    +0.038 C 
ENDBRANCH  46  47
ENDBRANCH  45  46
ENDBRANCH  30  45
BRANCH  29  50
ATOM     50  C   UNL     1       1.944   4.443 -10.051  0.00  0.00    +0.174 C 
BRANCH  50  51
ATOM     51  O   UNL     1       0.990   3.784 -10.395  0.00  0.00    -0.348 OA
BRANCH  51  52
ATOM     52  C   UNL     1       0.223   4.242 -11.479  0.00  0.00    +0.175 C 
BRANCH  52  54
ATOM     53  C   UNL     1      -0.144   3.284 -13.490  0.00  0.00    +0.038 C 
ATOM     54  C   UNL     1       1.123   4.049 -12.854  0.00  0.00    +0.181 C 
ATOM     55  O   UNL     1       0.629   5.365 -13.443  0.00  0.00    -0.220 OA
ENDBRANCH  52  54
ENDBRANCH  51  52
ENDBRANCH  50  51
ENDBRANCH  29  50
ENDBRANCH   1  33
TORSDOF 28
ENDMDL
MODEL 4
REMARK VINA RESULT:      -4.7      1.437      9.868
REMARK  Name = 
REMARK  28 active torsions:
REMARK  status: ('A' for Active; 'I' for Inactive)
REMARK    1  A    between atoms: C_2  and  C_4
REMARK    2  A    between atoms: C_4  and  O_5
REMARK    3  A    between atoms: O_5  and  C_6
REMARK    4  A    between atoms: C_6  and  C_7
REMARK    5  A    between atoms: C_9  and  O_10
REMARK    6  A    between atoms: O_10  and  C_11
REMARK    7  A    between atoms: C_12  and  O_13
REMARK    8  A    between atoms: O_13  and  C_14
REMARK    9  A    between atoms: C_14  and  C_15
REMARK   10  A    between atoms: C_18  and  O_19
REMARK   11  A    between atoms: O_19  and  C_20
REMARK   12  A    between atoms: C_20  and  C_21
REMARK   13  A    between atoms: C_24  and  O_25
REMARK   14  A    between atoms: O_25  and  C_26
REMARK   15  A    between atoms: C_26  and  C_27
REMARK   16  A    between atoms: C_31  and  C_32
REMARK   17  A    between atoms: C_32  and  O_33
REMARK   18  A    between atoms: O_33  and  C_34
REMARK   19  A    between atoms: C_34  and  C_35
REMARK   20  A    between atoms: C_38  and  O_39
REMARK   21  A    between atoms: O_39  and  C_40
REMARK   22  A    between atoms: C_40  and  C_41
REMARK   23  A    between atoms: C_44  and  O_45
REMARK   24  A    between atoms: O_45  and  C_46
REMARK   25  A    between atoms: C_46  and  C_47
REMARK   26  A    between atoms: C_50  and  O_51
REMARK   27  A    between atoms: O_51  and  C_52
REMARK   28  A    between atoms: C_52  and  C_53
REMARK                            x       y       z     vdW  Elec       q    Type
REMARK                         _______ _______ _______ _____ _____    ______ ____
ROOT
ATOM      1  O   UNL     1       1.722   5.902  -6.976  0.00  0.00    -0.326 OA
ENDROOT
BRANCH   1   2
ATOM      2  C   UNL     1       2.190   4.784  -6.111  0.00  0.00    +0.177 C 
ATOM      3  C   UNL     1       0.800   4.717  -5.097  0.00  0.00    +0.177 C 
ATOM      4  O   UNL     1       0.831   6.091  -4.519  0.00  0.00    -0.326 OA
ATOM      5  C   UNL     1       1.481   5.874  -3.156  0.00  0.00    +0.266 C 
ATOM      6  C   UNL     1       2.621   4.718  -3.743  0.00  0.00    +0.201 C 
ATOM      7  C   UNL     1       3.255   5.622  -5.051  0.00  0.00    +0.177 C 
BRANCH   3   8
ATOM      8  C   UNL     1      -0.272   5.154  -6.286  0.00  0.00    +0.174 C 
BRANCH   8   9
ATOM      9  O   UNL     1      -1.226   5.957  -5.777  0.00  0.00    -0.348 OA
BRANCH   9  10
ATOM     10  C   UNL     1      -2.442   6.190  -6.239  0.00  0.00    +0.175 C 
BRANCH  10  11
ATOM     11  C   UNL     1      -3.181   6.808  -4.895  0.00  0.00    +0.181 C 
ATOM     12  O   UNL     1      -2.506   5.795  -3.983  0.00  0.00    -0.220 OA
ATOM     13  C   UNL     1      -1.956   7.892  -4.685  0.00  0.00    +0.038 C 
ENDBRANCH  10  11
ENDBRANCH   9  10
ENDBRANCH   8   9
ENDBRANCH   3   8
BRANCH   5  14
ATOM     14  O   UNL     1       0.523   4.732  -2.789  0.00  0.00    -0.326 OA
BRANCH  14  15
ATOM     15  C   UNL     1       0.428   4.941  -1.452  0.00  0.00    +0.178 C 
BRANCH  15  16
ATOM     16  C   UNL     1      -0.322   6.409  -1.358  0.00  0.00    +0.182 C 
ATOM     17  O   UNL     1      -1.566   5.775  -0.753  0.00  0.00    -0.220 OA
ATOM     18  C   UNL     1       0.321   6.687   0.138  0.00  0.00    +0.038 C 
ENDBRANCH  15  16
ENDBRANCH  14  15
ENDBRANCH   5  14
BRANCH   6  19
ATOM     19  O   UNL     1       3.707   5.228  -2.839  0.00  0.00    -0.346 OA
BRANCH  19  20
ATOM     20  C   UNL     1       4.372   4.104  -2.418  0.00  0.00    +0.175 C 
BRANCH  20  21
ATOM     21  C   UNL     1       3.825   4.067  -0.858  0.00  0.00    +0.181 C 
ATOM     22  O   UNL     1       5.165   3.558  -0.352  0.00  0.00    -0.220 OA
ATOM     23  C   UNL     1       4.264   5.635  -0.587  0.00  0.00    +0.038 C 
ENDBRANCH  20  21
ENDBRANCH  19  20
ENDBRANCH   6  19
BRANCH   7  24
ATOM     24  O   UNL     1       2.502   6.898  -4.947  0.00  0.00    -0.348 OA
BRANCH  24  25
ATOM     25  C   UNL     1       3.569   7.821  -5.086  0.00  0.00    +0.175 C 
BRANCH  25  26
ATOM     26  C   UNL     1       4.686   7.361  -3.963  0.00  0.00    +0.181 C 
ATOM     27  O   UNL     1       5.717   8.371  -4.443  0.00  0.00    -0.220 OA
ATOM     28  C   UNL     1       4.059   8.438  -2.879  0.00  0.00    +0.038 C 
ENDBRANCH  25  26
ENDBRANCH  24  25
ENDBRANCH   7  24
ENDBRANCH   1   2
BRANCH   1  33
ATOM     29  C   UNL     1       3.315   4.021  -9.043  0.00  0.00    +0.177 C 
ATOM     30  C   UNL     1       4.445   4.990  -9.939  0.00  0.00    +0.174 C 
ATOM     31  C   UNL     1       3.571   6.377 -10.290  0.00  0.00    +0.177 C 
ATOM     32  C   UNL     1       2.159   6.077  -9.405  0.00  0.00    +0.201 C 
ATOM     33  C   UNL     1       2.892   6.260  -7.878  0.00  0.00    +0.266 C 
ATOM     34  O   UNL     1       3.429   4.862  -7.797  0.00  0.00    -0.326 OA
BRANCH  32  35
ATOM     35  O   UNL     1       1.545   7.422  -9.586  0.00  0.00    -0.346 OA
BRANCH  35  36
ATOM     36  C   UNL     1       0.263   7.142 -10.077  0.00  0.00    +0.175 C 
BRANCH  36  37
ATOM     37  C   UNL     1      -0.157   8.171 -11.288  0.00  0.00    +0.181 C 
ATOM     38  O   UNL     1       0.478   7.314 -12.382  0.00  0.00    -0.220 OA
ATOM     39  C   UNL     1      -1.626   7.471 -11.603  0.00  0.00    +0.038 C 
ENDBRANCH  36  37
ENDBRANCH  35  36
ENDBRANCH  32  35
BRANCH  31  40
ATOM     40  O   UNL     1       3.162   5.726 -11.581  0.00  0.00    -0.348 OA
BRANCH  40  41
ATOM     41  C   UNL     1       3.674   6.048 -12.686  0.00  0.00    +0.175 C 
BRANCH  41  42
ATOM     42  C   UNL     1       4.111   4.950 -13.791  0.00  0.00    +0.181 C 
ATOM     43  O   UNL     1       3.302   5.611 -14.910  0.00  0.00    -0.220 OA
ATOM     44  C   UNL     1       5.431   5.872 -14.177  0.00  0.00    +0.038 C 
ENDBRANCH  41  42
ENDBRANCH  40  41
ENDBRANCH  31  40
BRANCH  30  45
ATOM     45  O   UNL     1       5.175   5.578  -8.760  0.00  0.00    -0.348 OA
BRANCH  45  46
ATOM     46  C   UNL     1       6.470   5.798  -9.019  0.00  0.00    +0.175 C 
BRANCH  46  47
ATOM     47  C   UNL     1       6.770   5.714 -10.631  0.00  0.00    +0.181 C 
ATOM     48  O   UNL     1       8.185   5.195 -10.424  0.00  0.00    -0.220 OA
ATOM     49  C   UNL     1       7.288   7.288 -10.652  0.00  0.00    +0.038 C 
ENDBRANCH  46  47
ENDBRANCH  45  46
ENDBRANCH  30  45
BRANCH  29  50
ATOM     50  C   UNL     1       1.889   4.334  -9.700  0.00  0.00    +0.174 C 
BRANCH  50  51
ATOM     51  O   UNL     1       0.868   3.732  -9.940  0.00  0.00    -0.348 OA
BRANCH  51  52
ATOM     52  C   UNL     1       0.641   3.313 -11.262  0.00  0.00    +0.175 C 
BRANCH  52  54
ATOM     53  C   UNL     1       0.589   3.777 -13.470  0.00  0.00    +0.038 C 
ATOM     54  C   UNL     1       0.258   4.650 -12.158  0.00  0.00    +0.181 C 
ATOM     55  O   UNL     1      -1.208   4.247 -12.256  0.00  0.00    -0.220 OA
ENDBRANCH  52  54
ENDBRANCH  51  52
ENDBRANCH  50  51
ENDBRANCH  29  50
ENDBRANCH   1  33
TORSDOF 28
ENDMDL
MODEL 5
REMARK VINA RESULT:      -4.6      2.358      6.515
REMARK  Name = 
REMARK  28 active torsions:
REMARK  status: ('A' for Active; 'I' for Inactive)
REMARK    1  A    between atoms: C_2  and  C_4
REMARK    2  A    between atoms: C_4  and  O_5
REMARK    3  A    between atoms: O_5  and  C_6
REMARK    4  A    between atoms: C_6  and  C_7
REMARK    5  A    between atoms: C_9  and  O_10
REMARK    6  A    between atoms: O_10  and  C_11
REMARK    7  A    between atoms: C_12  and  O_13
REMARK    8  A    between atoms: O_13  and  C_14
REMARK    9  A    between atoms: C_14  and  C_15
REMARK   10  A    between atoms: C_18  and  O_19
REMARK   11  A    between atoms: O_19  and  C_20
REMARK   12  A    between atoms: C_20  and  C_21
REMARK   13  A    between atoms: C_24  and  O_25
REMARK   14  A    between atoms: O_25  and  C_26
REMARK   15  A    between atoms: C_26  and  C_27
REMARK   16  A    between atoms: C_31  and  C_32
REMARK   17  A    between atoms: C_32  and  O_33
REMARK   18  A    between atoms: O_33  and  C_34
REMARK   19  A    between atoms: C_34  and  C_35
REMARK   20  A    between atoms: C_38  and  O_39
REMARK   21  A    between atoms: O_39  and  C_40
REMARK   22  A    between atoms: C_40  and  C_41
REMARK   23  A    between atoms: C_44  and  O_45
REMARK   24  A    between atoms: O_45  and  C_46
REMARK   25  A    between atoms: C_46  and  C_47
REMARK   26  A    between atoms: C_50  and  O_51
REMARK   27  A    between atoms: O_51  and  C_52
REMARK   28  A    between atoms: C_52  and  C_53
REMARK                            x       y       z     vdW  Elec       q    Type
REMARK                         _______ _______ _______ _____ _____    ______ ____
ROOT
ATOM      1  O   UNL     1       0.735   6.043  -4.071  0.00  0.00    -0.326 OA
ENDROOT
BRANCH   1   2
ATOM      2  C   UNL     1       0.815   6.965  -5.237  0.00  0.00    +0.177 C 
ATOM      3  C   UNL     1      -0.072   5.979  -6.335  0.00  0.00    +0.177 C 
ATOM      4  O   UNL     1       0.795   4.767  -6.358  0.00  0.00    -0.326 OA
ATOM      5  C   UNL     1       1.610   4.953  -7.634  0.00  0.00    +0.266 C 
ATOM      6  C   UNL     1       1.811   6.652  -7.407  0.00  0.00    +0.201 C 
ATOM      7  C   UNL     1       2.406   6.630  -5.803  0.00  0.00    +0.177 C 
BRANCH   3   8
ATOM      8  C   UNL     1      -1.077   5.340  -5.180  0.00  0.00    +0.174 C 
BRANCH   8   9
ATOM      9  O   UNL     1      -2.272   5.962  -5.211  0.00  0.00    -0.348 OA
BRANCH   9  10
ATOM     10  C   UNL     1      -2.865   6.658  -4.257  0.00  0.00    +0.175 C 
BRANCH  10  11
ATOM     11  C   UNL     1      -4.026   5.592  -3.758  0.00  0.00    +0.181 C 
ATOM     12  O   UNL     1      -3.022   4.781  -2.951  0.00  0.00    -0.220 OA
ATOM     13  C   UNL     1      -4.381   6.543  -2.458  0.00  0.00    +0.038 C 
ENDBRANCH  10  11
ENDBRANCH   9  10
ENDBRANCH   8   9
ENDBRANCH   3   8
BRANCH   5  14
ATOM     14  O   UNL     1       0.364   5.221  -8.489  0.00  0.00    -0.326 OA
BRANCH  14  15
ATOM     15  C   UNL     1       0.779   4.684  -9.663  0.00  0.00    +0.178 C 
BRANCH  15  16
ATOM     16  C   UNL     1      -0.353   5.221 -10.739  0.00  0.00    +0.182 C 
ATOM     17  O   UNL     1       0.222   6.629 -10.696  0.00  0.00    -0.220 OA
ATOM     18  C   UNL     1       0.610   4.815 -12.018  0.00  0.00    +0.038 C 
ENDBRANCH  15  16
ENDBRANCH  14  15
ENDBRANCH   5  14
BRANCH   6  19
ATOM     19  O   UNL     1       3.213   6.628  -7.947  0.00  0.00    -0.346 OA
BRANCH  19  20
ATOM     20  C   UNL     1       3.140   7.287  -9.148  0.00  0.00    +0.175 C 
BRANCH  20  21
ATOM     21  C   UNL     1       4.574   6.780  -9.793  0.00  0.00    +0.181 C 
ATOM     22  O   UNL     1       4.331   5.353  -9.332  0.00  0.00    -0.220 OA
ATOM     23  C   UNL     1       3.891   6.473 -11.264  0.00  0.00    +0.038 C 
ENDBRANCH  20  21
ENDBRANCH  19  20
ENDBRANCH   6  19
BRANCH   7  24
ATOM     24  O   UNL     1       2.445   5.176  -5.500  0.00  0.00    -0.348 OA
BRANCH  24  25
ATOM     25  C   UNL     1       3.595   5.132  -4.673  0.00  0.00    +0.175 C 
BRANCH  25  26
ATOM     26  C   UNL     1       4.457   6.484  -5.061  0.00  0.00    +0.181 C 
ATOM     27  O   UNL     1       5.383   6.347  -3.863  0.00  0.00    -0.220 OA
ATOM     28  C   UNL     1       5.467   5.585  -6.010  0.00  0.00    +0.038 C 
ENDBRANCH  25  26
ENDBRANCH  24  25
ENDBRANCH   7  24
ENDBRANCH   1   2
BRANCH   1  33
ATOM     29  C   UNL     1      -0.110   5.111  -1.110  0.00  0.00    +0.177 C 
ATOM     30  C   UNL     1      -0.260   6.512  -0.093  0.00  0.00    +0.174 C 
ATOM     31  C   UNL     1       1.063   7.447  -0.528  0.00  0.00    +0.177 C 
ATOM     32  C   UNL     1       1.658   6.544  -1.830  0.00  0.00    +0.201 C 
ATOM     33  C   UNL     1       0.361   6.904  -2.874  0.00  0.00    +0.266 C 
ATOM     34  O   UNL     1      -0.558   5.840  -2.351  0.00  0.00    -0.326 OA
BRANCH  32  35
ATOM     35  O   UNL     1       2.671   7.535  -2.288  0.00  0.00    -0.346 OA
BRANCH  35  36
ATOM     36  C   UNL     1       2.739   8.456  -1.233  0.00  0.00    +0.175 C 
BRANCH  36  37
ATOM     37  C   UNL     1       4.136   9.320  -1.276  0.00  0.00    +0.181 C 
ATOM     38  O   UNL     1       3.465  10.628  -0.860  0.00  0.00    -0.220 OA
ATOM     39  C   UNL     1       4.556   9.042   0.303  0.00  0.00    +0.038 C 
ENDBRANCH  36  37
ENDBRANCH  35  36
ENDBRANCH  32  35
BRANCH  31  40
ATOM     40  O   UNL     1       1.831   6.775   0.574  0.00  0.00    -0.348 OA
BRANCH  40  41
ATOM     41  C   UNL     1       1.581   6.986   1.791  0.00  0.00    +0.175 C 
BRANCH  41  42
ATOM     42  C   UNL     1       1.682   8.459   2.453  0.00  0.00    +0.181 C 
ATOM     43  O   UNL     1       0.806   8.087   3.652  0.00  0.00    -0.220 OA
ATOM     44  C   UNL     1       3.039   7.990   3.277  0.00  0.00    +0.038 C 
ENDBRANCH  41  42
ENDBRANCH  40  41
ENDBRANCH  31  40
BRANCH  30  45
ATOM     45  O   UNL     1      -1.250   7.264  -0.943  0.00  0.00    -0.348 OA
BRANCH  45  46
ATOM     46  C   UNL     1      -2.059   8.044  -0.215  0.00  0.00    +0.175 C 
BRANCH  46  47
ATOM     47  C   UNL     1      -1.850   7.772   1.391  0.00  0.00    +0.181 C 
ATOM     48  O   UNL     1      -3.346   7.728   1.662  0.00  0.00    -0.220 OA
ATOM     49  C   UNL     1      -1.784   9.400   1.694  0.00  0.00    +0.038 C 
ENDBRANCH  46  47
ENDBRANCH  45  46
ENDBRANCH  30  45
BRANCH  29  50
ATOM     50  C   UNL     1       1.466   4.864  -1.245  0.00  0.00    +0.174 C 
BRANCH  50  51
ATOM     51  O   UNL     1       2.204   3.942  -1.505  0.00  0.00    -0.348 OA
BRANCH  51  52
ATOM     52  C   UNL     1       3.232   3.639  -0.597  0.00  0.00    +0.175 C 
BRANCH  52  54
ATOM     53  C   UNL     1       4.679   5.366  -0.460  0.00  0.00    +0.038 C 
ATOM     54  C   UNL     1       4.672   4.006  -1.322  0.00  0.00    +0.181 C 
ATOM     55  O   UNL     1       5.476   3.307  -0.232  0.00  0.00    -0.220 OA
ENDBRANCH  52  54
ENDBRANCH  51  52
ENDBRANCH  50  51
ENDBRANCH  29  50
ENDBRANCH   1  33
TORSDOF 28
ENDMDL
MODEL 6
REMARK VINA RESULT:      -4.5      2.181      9.349
REMARK  Name = 
REMARK  28 active torsions:
REMARK  status: ('A' for Active; 'I' for Inactive)
REMARK    1  A    between atoms: C_2  and  C_4
REMARK    2  A    between atoms: C_4  and  O_5
REMARK    3  A    between atoms: O_5  and  C_6
REMARK    4  A    between atoms: C_6  and  C_7
REMARK    5  A    between atoms: C_9  and  O_10
REMARK    6  A    between atoms: O_10  and  C_11
REMARK    7  A    between atoms: C_12  and  O_13
REMARK    8  A    between atoms: O_13  and  C_14
REMARK    9  A    between atoms: C_14  and  C_15
REMARK   10  A    between atoms: C_18  and  O_19
REMARK   11  A    between atoms: O_19  and  C_20
REMARK   12  A    between atoms: C_20  and  C_21
REMARK   13  A    between atoms: C_24  and  O_25
REMARK   14  A    between atoms: O_25  and  C_26
REMARK   15  A    between atoms: C_26  and  C_27
REMARK   16  A    between atoms: C_31  and  C_32
REMARK   17  A    between atoms: C_32  and  O_33
REMARK   18  A    between atoms: O_33  and  C_34
REMARK   19  A    between atoms: C_34  and  C_35
REMARK   20  A    between atoms: C_38  and  O_39
REMARK   21  A    between atoms: O_39  and  C_40
REMARK   22  A    between atoms: C_40  and  C_41
REMARK   23  A    between atoms: C_44  and  O_45
REMARK   24  A    between atoms: O_45  and  C_46
REMARK   25  A    between atoms: C_46  and  C_47
REMARK   26  A    between atoms: C_50  and  O_51
REMARK   27  A    between atoms: O_51  and  C_52
REMARK   28  A    between atoms: C_52  and  C_53
REMARK                            x       y       z     vdW  Elec       q    Type
REMARK                         _______ _______ _______ _____ _____    ______ ____
ROOT
ATOM      1  O   UNL     1       3.854   5.611 -10.869  0.00  0.00    -0.326 OA
ENDROOT
BRANCH   1   2
ATOM      2  C   UNL     1       3.634   6.635  -9.811  0.00  0.00    +0.177 C 
ATOM      3  C   UNL     1       4.855   6.077  -8.733  0.00  0.00    +0.177 C 
ATOM      4  O   UNL     1       4.357   4.697  -8.465  0.00  0.00    -0.326 OA
ATOM      5  C   UNL     1       3.644   4.845  -7.125  0.00  0.00    +0.266 C 
ATOM      6  C   UNL     1       2.967   6.385  -7.511  0.00  0.00    +0.201 C 
ATOM      7  C   UNL     1       2.255   5.984  -9.014  0.00  0.00    +0.177 C 
BRANCH   3   8
ATOM      8  C   UNL     1       5.884   5.563  -9.928  0.00  0.00    +0.174 C 
BRANCH   8   9
ATOM      9  O   UNL     1       6.880   6.454 -10.096  0.00  0.00    -0.348 OA
BRANCH   9  10
ATOM     10  C   UNL     1       7.630   6.663 -11.165  0.00  0.00    +0.175 C 
BRANCH  10  11
ATOM     11  C   UNL     1       8.483   5.249 -11.238  0.00  0.00    +0.181 C 
ATOM     12  O   UNL     1       7.774   4.815 -12.512  0.00  0.00    -0.220 OA
ATOM     13  C   UNL     1       9.684   5.985 -12.095  0.00  0.00    +0.038 C 
ENDBRANCH  10  11
ENDBRANCH   9  10
ENDBRANCH   8   9
ENDBRANCH   3   8
BRANCH   5  14
ATOM     14  O   UNL     1       4.844   5.543  -6.470  0.00  0.00    -0.326 OA
BRANCH  14  15
ATOM     15  C   UNL     1       4.582   5.265  -5.169  0.00  0.00    +0.178 C 
BRANCH  15  16
ATOM     16  C   UNL     1       5.413   6.442  -4.362  0.00  0.00    +0.182 C 
ATOM     17  O   UNL     1       4.478   7.517  -4.897  0.00  0.00    -0.220 OA
ATOM     18  C   UNL     1       4.479   6.234  -3.015  0.00  0.00    +0.038 C 
ENDBRANCH  15  16
ENDBRANCH  14  15
ENDBRANCH   5  14
BRANCH   6  19
ATOM     19  O   UNL     1       1.682   6.075  -6.798  0.00  0.00    -0.346 OA
BRANCH  19  20
ATOM     20  C   UNL     1       1.314   7.257  -6.204  0.00  0.00    +0.175 C 
BRANCH  20  21
ATOM     21  C   UNL     1       1.044   6.689  -4.676  0.00  0.00    +0.181 C 
ATOM     22  O   UNL     1      -0.356   7.279  -4.654  0.00  0.00    -0.220 OA
ATOM     23  C   UNL     1       0.480   5.241  -5.231  0.00  0.00    +0.038 C 
ENDBRANCH  20  21
ENDBRANCH  19  20
ENDBRANCH   6  19
BRANCH   7  24
ATOM     24  O   UNL     1       2.586   4.542  -9.147  0.00  0.00    -0.348 OA
BRANCH  24  25
ATOM     25  C   UNL     1       1.279   4.000  -9.231  0.00  0.00    +0.175 C 
BRANCH  25  26
ATOM     26  C   UNL     1       0.355   5.201  -9.884  0.00  0.00    +0.181 C 
ATOM     27  O   UNL     1      -0.419   4.243 -10.776  0.00  0.00    -0.220 OA
ATOM     28  C   UNL     1      -0.746   5.036  -8.664  0.00  0.00    +0.038 C 
ENDBRANCH  25  26
ENDBRANCH  24  25
ENDBRANCH   7  24
ENDBRANCH   1   2
BRANCH   1  33
ATOM     29  C   UNL     1       4.129   4.509 -13.879  0.00  0.00    +0.177 C 
ATOM     30  C   UNL     1       4.406   5.848 -14.952  0.00  0.00    +0.174 C 
ATOM     31  C   UNL     1       3.346   7.019 -14.389  0.00  0.00    +0.177 C 
ATOM     32  C   UNL     1       2.764   6.256 -12.995  0.00  0.00    +0.201 C 
ATOM     33  C   UNL     1       4.226   6.375 -12.130  0.00  0.00    +0.266 C 
ATOM     34  O   UNL     1       4.858   5.153 -12.727  0.00  0.00    -0.326 OA
BRANCH  32  35
ATOM     35  O   UNL     1       2.018   7.424 -12.449  0.00  0.00    -0.346 OA
BRANCH  35  36
ATOM     36  C   UNL     1       0.801   6.874 -12.023  0.00  0.00    +0.175 C 
BRANCH  36  37
ATOM     37  C   UNL     1      -0.473   7.540 -12.820  0.00  0.00    +0.181 C 
ATOM     38  O   UNL     1      -0.848   8.468 -11.666  0.00  0.00    -0.220 OA
ATOM     39  C   UNL     1       0.389   8.770 -13.520  0.00  0.00    +0.038 C 
ENDBRANCH  36  37
ENDBRANCH  35  36
ENDBRANCH  32  35
BRANCH  31  40
ATOM     40  O   UNL     1       2.333   6.494 -15.366  0.00  0.00    -0.348 OA
BRANCH  40  41
ATOM     41  C   UNL     1       1.756   7.241 -16.200  0.00  0.00    +0.175 C 
BRANCH  41  42
ATOM     42  C   UNL     1       2.514   8.470 -16.932  0.00  0.00    +0.181 C 
ATOM     43  O   UNL     1       2.875   7.639 -18.166  0.00  0.00    -0.220 OA
ATOM     44  C   UNL     1       1.086   8.925 -17.634  0.00  0.00    +0.038 C 
ENDBRANCH  41  42
ENDBRANCH  40  41
ENDBRANCH  31  40
BRANCH  30  45
ATOM     45  O   UNL     1       5.618   6.408 -14.255  0.00  0.00    -0.348 OA
BRANCH  45  46
ATOM     46  C   UNL     1       6.299   7.266 -15.025  0.00  0.00    +0.175 C 
BRANCH  46  47
ATOM     47  C   UNL     1       5.990   7.002 -16.615  0.00  0.00    +0.181 C 
ATOM     48  O   UNL     1       7.436   6.640 -16.921  0.00  0.00    -0.220 OA
ATOM     49  C   UNL     1       6.255   8.599 -16.968  0.00  0.00    +0.038 C 
ENDBRANCH  46  47
ENDBRANCH  45  46
ENDBRANCH  30  45
BRANCH  29  50
ATOM     50  C   UNL     1       2.565   4.565 -13.544  0.00  0.00    +0.174 C 
BRANCH  50  51
ATOM     51  O   UNL     1       1.672   3.779 -13.328  0.00  0.00    -0.348 OA
BRANCH  51  52
ATOM     52  C   UNL     1       1.096   3.113 -14.422  0.00  0.00    +0.175 C 
BRANCH  52  54
ATOM     53  C   UNL     1      -0.372   4.714 -15.037  0.00  0.00    +0.038 C 
ATOM     54  C   UNL     1      -0.546   3.285 -14.313  0.00  0.00    +0.181 C 
ATOM     55  O   UNL     1      -0.773   2.624 -15.667  0.00  0.00    -0.220 OA
ENDBRANCH  52  54
ENDBRANCH  51  52
ENDBRANCH  50  51
ENDBRANCH  29  50
ENDBRANCH   1  33
TORSDOF 28
ENDMDL
MODEL 7
REMARK VINA RESULT:      -4.4      1.313      4.217
REMARK  Name = 
REMARK  28 active torsions:
REMARK  status: ('A' for Active; 'I' for Inactive)
REMARK    1  A    between atoms: C_2  and  C_4
REMARK    2  A    between atoms: C_4  and  O_5
REMARK    3  A    between atoms: O_5  and  C_6
REMARK    4  A    between atoms: C_6  and  C_7
REMARK    5  A    between atoms: C_9  and  O_10
REMARK    6  A    between atoms: O_10  and  C_11
REMARK    7  A    between atoms: C_12  and  O_13
REMARK    8  A    between atoms: O_13  and  C_14
REMARK    9  A    between atoms: C_14  and  C_15
REMARK   10  A    between atoms: C_18  and  O_19
REMARK   11  A    between atoms: O_19  and  C_20
REMARK   12  A    between atoms: C_20  and  C_21
REMARK   13  A    between atoms: C_24  and  O_25
REMARK   14  A    between atoms: O_25  and  C_26
REMARK   15  A    between atoms: C_26  and  C_27
REMARK   16  A    between atoms: C_31  and  C_32
REMARK   17  A    between atoms: C_32  and  O_33
REMARK   18  A    between atoms: O_33  and  C_34
REMARK   19  A    between atoms: C_34  and  C_35
REMARK   20  A    between atoms: C_38  and  O_39
REMARK   21  A    between atoms: O_39  and  C_40
REMARK   22  A    between atoms: C_40  and  C_41
REMARK   23  A    between atoms: C_44  and  O_45
REMARK   24  A    between atoms: O_45  and  C_46
REMARK   25  A    between atoms: C_46  and  C_47
REMARK   26  A    between atoms: C_50  and  O_51
REMARK   27  A    between atoms: O_51  and  C_52
REMARK   28  A    between atoms: C_52  and  C_53
REMARK                            x       y       z     vdW  Elec       q    Type
REMARK                         _______ _______ _______ _____ _____    ______ ____
ROOT
ATOM      1  O   UNL     1       2.933   5.791  -8.235  0.00  0.00    -0.326 OA
ENDROOT
BRANCH   1   2
ATOM      2  C   UNL     1       3.177   6.859  -9.243  0.00  0.00    +0.177 C 
ATOM      3  C   UNL     1       2.546   6.005 -10.599  0.00  0.00    +0.177 C 
ATOM      4  O   UNL     1       3.459   4.826 -10.614  0.00  0.00    -0.326 OA
ATOM      5  C   UNL     1       4.479   5.198 -11.686  0.00  0.00    +0.266 C 
ATOM      6  C   UNL     1       4.557   6.857 -11.217  0.00  0.00    +0.201 C 
ATOM      7  C   UNL     1       4.856   6.638  -9.546  0.00  0.00    +0.177 C 
BRANCH   3   8
ATOM      8  C   UNL     1       1.383   5.196  -9.735  0.00  0.00    +0.174 C 
BRANCH   8   9
ATOM      9  O   UNL     1       0.156   5.575 -10.145  0.00  0.00    -0.348 OA
BRANCH   9  10
ATOM     10  C   UNL     1      -0.303   6.796 -10.356  0.00  0.00    +0.175 C 
BRANCH  10  11
ATOM     11  C   UNL     1      -0.986   6.626 -11.853  0.00  0.00    +0.181 C 
ATOM     12  O   UNL     1      -2.117   7.586 -11.513  0.00  0.00    -0.220 OA
ATOM     13  C   UNL     1      -0.055   7.851 -12.447  0.00  0.00    +0.038 C 
ENDBRANCH  10  11
ENDBRANCH   9  10
ENDBRANCH   8   9
ENDBRANCH   3   8
BRANCH   5  14
ATOM     14  O   UNL     1       3.394   5.546 -12.714  0.00  0.00    -0.326 OA
BRANCH  14  15
ATOM     15  C   UNL     1       3.534   4.491 -13.554  0.00  0.00    +0.178 C 
BRANCH  15  16
ATOM     16  C   UNL     1       2.169   4.569 -14.480  0.00  0.00    +0.182 C 
ATOM     17  O   UNL     1       1.284   4.511 -13.244  0.00  0.00    -0.220 OA
ATOM     18  C   UNL     1       2.191   6.221 -14.446  0.00  0.00    +0.038 C 
ENDBRANCH  15  16
ENDBRANCH  14  15
ENDBRANCH   5  14
BRANCH   6  19
ATOM     19  O   UNL     1       6.031   6.936 -11.490  0.00  0.00    -0.346 OA
BRANCH  19  20
ATOM     20  C   UNL     1       6.135   7.641 -12.662  0.00  0.00    +0.175 C 
BRANCH  20  21
ATOM     21  C   UNL     1       6.501   6.386 -13.672  0.00  0.00    +0.181 C 
ATOM     22  O   UNL     1       6.945   7.337 -14.771  0.00  0.00    -0.220 OA
ATOM     23  C   UNL     1       8.039   6.264 -13.089  0.00  0.00    +0.038 C 
ENDBRANCH  20  21
ENDBRANCH  19  20
ENDBRANCH   6  19
BRANCH   7  24
ATOM     24  O   UNL     1       4.909   5.158  -9.424  0.00  0.00    -0.348 OA
BRANCH  24  25
ATOM     25  C   UNL     1       6.083   5.021  -8.643  0.00  0.00    +0.175 C 
BRANCH  25  26
ATOM     26  C   UNL     1       7.194   6.011  -9.356  0.00  0.00    +0.181 C 
ATOM     27  O   UNL     1       8.037   6.122  -8.096  0.00  0.00    -0.220 OA
ATOM     28  C   UNL     1       8.051   4.698  -9.876  0.00  0.00    +0.038 C 
ENDBRANCH  25  26
ENDBRANCH  24  25
ENDBRANCH   7  24
ENDBRANCH   1   2
BRANCH   1  33
ATOM     29  C   UNL     1       1.332   4.218  -5.929  0.00  0.00    +0.177 C 
ATOM     30  C   UNL     1       0.288   5.334  -5.101  0.00  0.00    +0.174 C 
ATOM     31  C   UNL     1       1.244   6.700  -4.926  0.00  0.00    +0.177 C 
ATOM     32  C   UNL     1       2.602   6.237  -5.823  0.00  0.00    +0.201 C 
ATOM     33  C   UNL     1       1.819   6.301  -7.335  0.00  0.00    +0.266 C 
ATOM     34  O   UNL     1       1.211   4.933  -7.252  0.00  0.00    -0.326 OA
BRANCH  32  35
ATOM     35  O   UNL     1       3.289   7.558  -5.805  0.00  0.00    -0.346 OA
BRANCH  35  36
ATOM     36  C   UNL     1       4.584   7.256  -5.362  0.00  0.00    +0.175 C 
BRANCH  36  37
ATOM     37  C   UNL     1       5.152   8.406  -4.333  0.00  0.00    +0.181 C 
ATOM     38  O   UNL     1       4.318   7.913  -3.151  0.00  0.00    -0.220 OA
ATOM     39  C   UNL     1       6.441   7.520  -3.784  0.00  0.00    +0.038 C 
ENDBRANCH  36  37
ENDBRANCH  35  36
ENDBRANCH  32  35
BRANCH  31  40
ATOM     40  O   UNL     1       1.671   6.164  -3.590  0.00  0.00    -0.348 OA
BRANCH  40  41
ATOM     41  C   UNL     1       0.953   6.279  -2.561  0.00  0.00    +0.175 C 
BRANCH  41  42
ATOM     42  C   UNL     1       0.699   5.049  -1.540  0.00  0.00    +0.181 C 
ATOM     43  O   UNL     1       1.382   5.756  -0.366  0.00  0.00    -0.220 OA
ATOM     44  C   UNL     1      -0.758   5.711  -1.113  0.00  0.00    +0.038 C 
ENDBRANCH  41  42
ENDBRANCH  40  41
ENDBRANCH  31  40
BRANCH  30  45
ATOM     45  O   UNL     1      -0.458   5.836  -6.309  0.00  0.00    -0.348 OA
BRANCH  45  46
ATOM     46  C   UNL     1      -1.773   5.954  -6.084  0.00  0.00    +0.175 C 
BRANCH  46  47
ATOM     47  C   UNL     1      -2.126   5.687  -4.503  0.00  0.00    +0.181 C 
ATOM     48  O   UNL     1      -3.485   5.082  -4.824  0.00  0.00    -0.220 OA
ATOM     49  C   UNL     1      -2.773   7.205  -4.355  0.00  0.00    +0.038 C 
ENDBRANCH  46  47
ENDBRANCH  45  46
ENDBRANCH  30  45
BRANCH  29  50
ATOM     50  C   UNL     1       2.796   4.520  -5.358  0.00  0.00    +0.174 C 
BRANCH  50  51
ATOM     51  O   UNL     1       3.680   3.908  -4.804  0.00  0.00    -0.348 OA
BRANCH  51  52
ATOM     52  C   UNL     1       3.592   3.729  -3.414  0.00  0.00    +0.175 C 
BRANCH  52  54
ATOM     53  C   UNL     1       4.354   4.163  -1.334  0.00  0.00    +0.038 C 
ATOM     54  C   UNL     1       4.305   5.033  -2.689  0.00  0.00    +0.181 C 
ATOM     55  O   UNL     1       5.705   4.554  -3.052  0.00  0.00    -0.220 OA
ENDBRANCH  52  54
ENDBRANCH  51  52
ENDBRANCH  50  51
ENDBRANCH  29  50
ENDBRANCH   1  33
TORSDOF 28
ENDMDL
MODEL 8
REMARK VINA RESULT:      -4.3      1.586      4.183
REMARK  Name = 
REMARK  28 active torsions:
REMARK  status: ('A' for Active; 'I' for Inactive)
REMARK    1  A    between atoms: C_2  and  C_4
REMARK    2  A    between atoms: C_4  and  O_5
REMARK    3  A    between atoms: O_5  and  C_6
REMARK    4  A    between atoms: C_6  and  C_7
REMARK    5  A    between atoms: C_9  and  O_10
REMARK    6  A    between atoms: O_10  and  C_11
REMARK    7  A    between atoms: C_12  and  O_13
REMARK    8  A    between atoms: O_13  and  C_14
REMARK    9  A    between atoms: C_14  and  C_15
REMARK   10  A    between atoms: C_18  and  O_19
REMARK   11  A    between atoms: O_19  and  C_20
REMARK   12  A    between atoms: C_20  and  C_21
REMARK   13  A    between atoms: C_24  and  O_25
REMARK   14  A    between atoms: O_25  and  C_26
REMARK   15  A    between atoms: C_26  and  C_27
REMARK   16  A    between atoms: C_31  and  C_32
REMARK   17  A    between atoms: C_32  and  O_33
REMARK   18  A    between atoms: O_33  and  C_34
REMARK   19  A    between atoms: C_34  and  C_35
REMARK   20  A    between atoms: C_38  and  O_39
REMARK   21  A    between atoms: O_39  and  C_40
REMARK   22  A    between atoms: C_40  and  C_41
REMARK   23  A    between atoms: C_44  and  O_45
REMARK   24  A    between atoms: O_45  and  C_46
REMARK   25  A    between atoms: C_46  and  C_47
REMARK   26  A    between atoms: C_50  and  O_51
REMARK   27  A    between atoms: O_51  and  C_52
REMARK   28  A    between atoms: C_52  and  C_53
REMARK                            x       y       z     vdW  Elec       q    Type
REMARK                         _______ _______ _______ _____ _____    ______ ____
ROOT
ATOM      1  O   UNL     1       2.732   5.882  -8.353  0.00  0.00    -0.326 OA
ENDROOT
BRANCH   1   2
ATOM      2  C   UNL     1       2.614   4.736  -9.295  0.00  0.00    +0.177 C 
ATOM      3  C   UNL     1       3.888   5.211 -10.352  0.00  0.00    +0.177 C 
ATOM      4  O   UNL     1       3.370   6.531 -10.810  0.00  0.00    -0.326 OA
ATOM      5  C   UNL     1       2.753   6.205 -12.166  0.00  0.00    +0.266 C 
ATOM      6  C   UNL     1       2.097   4.696 -11.647  0.00  0.00    +0.201 C 
ATOM      7  C   UNL     1       1.273   5.241 -10.249  0.00  0.00    +0.177 C 
BRANCH   3   8
ATOM      8  C   UNL     1       4.819   5.896  -9.162  0.00  0.00    +0.174 C 
BRANCH   8   9
ATOM      9  O   UNL     1       6.105   5.956  -9.558  0.00  0.00    -0.348 OA
BRANCH   9  10
ATOM     10  C   UNL     1       6.664   6.781 -10.426  0.00  0.00    +0.175 C 
BRANCH  10  11
ATOM     11  C   UNL     1       8.206   6.185 -10.486  0.00  0.00    +0.181 C 
ATOM     12  O   UNL     1       7.881   5.076  -9.495  0.00  0.00    -0.220 OA
ATOM     13  C   UNL     1       7.814   5.225 -11.768  0.00  0.00    +0.038 C 
ENDBRANCH  10  11
ENDBRANCH   9  10
ENDBRANCH   8   9
ENDBRANCH   3   8
BRANCH   5  14
ATOM     14  O   UNL     1       4.014   5.480 -12.657  0.00  0.00    -0.326 OA
BRANCH  14  15
ATOM     15  C   UNL     1       4.668   6.525 -13.222  0.00  0.00    +0.178 C 
BRANCH  15  16
ATOM     16  C   UNL     1       5.271   5.878 -14.616  0.00  0.00    +0.182 C 
ATOM     17  O   UNL     1       4.125   6.466 -15.426  0.00  0.00    -0.220 OA
ATOM     18  C   UNL     1       6.206   7.214 -14.880  0.00  0.00    +0.038 C 
ENDBRANCH  15  16
ENDBRANCH  14  15
ENDBRANCH   5  14
BRANCH   6  19
ATOM     19  O   UNL     1       0.854   4.874 -12.472  0.00  0.00    -0.346 OA
BRANCH  19  20
ATOM     20  C   UNL     1       0.507   3.607 -12.866  0.00  0.00    +0.175 C 
BRANCH  20  21
ATOM     21  C   UNL     1       0.882   3.738 -14.470  0.00  0.00    +0.181 C 
ATOM     22  O   UNL     1       1.556   2.376 -14.472  0.00  0.00    -0.220 OA
ATOM     23  C   UNL     1      -0.558   3.081 -14.938  0.00  0.00    +0.038 C 
ENDBRANCH  20  21
ENDBRANCH  19  20
ENDBRANCH   6  19
BRANCH   7  24
ATOM     24  O   UNL     1       1.553   6.700 -10.265  0.00  0.00    -0.348 OA
BRANCH  24  25
ATOM     25  C   UNL     1       0.238   7.200 -10.096  0.00  0.00    +0.175 C 
BRANCH  25  26
ATOM     26  C   UNL     1      -0.597   6.677 -11.419  0.00  0.00    +0.181 C 
ATOM     27  O   UNL     1      -1.885   7.361 -10.989  0.00  0.00    -0.220 OA
ATOM     28  C   UNL     1      -0.113   8.009 -12.268  0.00  0.00    +0.038 C 
ENDBRANCH  25  26
ENDBRANCH  24  25
ENDBRANCH   7  24
ENDBRANCH   1   2
BRANCH   1  33
ATOM     29  C   UNL     1       2.777   7.296  -5.463  0.00  0.00    +0.177 C 
ATOM     30  C   UNL     1       3.156   6.106  -4.254  0.00  0.00    +0.174 C 
ATOM     31  C   UNL     1       2.249   4.776  -4.723  0.00  0.00    +0.177 C 
ATOM     32  C   UNL     1       1.640   5.331  -6.202  0.00  0.00    +0.201 C 
ATOM     33  C   UNL     1       3.137   5.290  -7.012  0.00  0.00    +0.266 C 
ATOM     34  O   UNL     1       3.612   6.627  -6.525  0.00  0.00    -0.326 OA
BRANCH  32  35
ATOM     35  O   UNL     1       1.044   4.041  -6.646  0.00  0.00    -0.346 OA
BRANCH  35  36
ATOM     36  C   UNL     1      -0.319   4.181  -6.349  0.00  0.00    +0.175 C 
BRANCH  36  37
ATOM     37  C   UNL     1      -0.986   5.446  -7.159  0.00  0.00    +0.181 C 
ATOM     38  O   UNL     1      -1.329   4.613  -8.393  0.00  0.00    -0.220 OA
ATOM     39  C   UNL     1      -2.526   5.218  -6.588  0.00  0.00    +0.038 C 
ENDBRANCH  36  37
ENDBRANCH  35  36
ENDBRANCH  32  35
BRANCH  31  40
ATOM     40  O   UNL     1       1.150   5.279  -3.831  0.00  0.00    -0.348 OA
BRANCH  40  41
ATOM     41  C   UNL     1       1.350   5.574  -2.623  0.00  0.00    +0.175 C 
BRANCH  41  42
ATOM     42  C   UNL     1       0.601   4.811  -1.409  0.00  0.00    +0.181 C 
ATOM     43  O   UNL     1       1.909   4.344  -0.765  0.00  0.00    -0.220 OA
ATOM     44  C   UNL     1       0.639   6.205  -0.516  0.00  0.00    +0.038 C 
ENDBRANCH  41  42
ENDBRANCH  40  41
ENDBRANCH  31  40
BRANCH  30  45
ATOM     45  O   UNL     1       4.445   5.619  -4.859  0.00  0.00    -0.348 OA
BRANCH  45  46
ATOM     46  C   UNL     1       5.500   5.845  -4.065  0.00  0.00    +0.175 C 
BRANCH  46  47
ATOM     47  C   UNL     1       5.708   7.453  -3.808  0.00  0.00    +0.181 C 
ATOM     48  O   UNL     1       7.194   7.298  -3.518  0.00  0.00    -0.220 OA
ATOM     49  C   UNL     1       5.320   7.283  -2.206  0.00  0.00    +0.038 C 
ENDBRANCH  46  47
ENDBRANCH  45  46
ENDBRANCH  30  45
BRANCH  29  50
ATOM     50  C   UNL     1       1.241   7.035  -5.832  0.00  0.00    +0.174 C 
BRANCH  50  51
ATOM     51  O   UNL     1       0.193   7.634  -5.755  0.00  0.00    -0.348 OA
BRANCH  51  52
ATOM     52  C   UNL     1      -0.428   7.727  -4.498  0.00  0.00    +0.175 C 
BRANCH  52  54
ATOM     53  C   UNL     1      -2.345   7.280  -3.395  0.00  0.00    +0.038 C 
ATOM     54  C   UNL     1      -2.021   8.094  -4.746  0.00  0.00    +0.181 C 
ATOM     55  O   UNL     1      -1.917   9.387  -3.946  0.00  0.00    -0.220 OA
ENDBRANCH  52  54
ENDBRANCH  51  52
ENDBRANCH  50  51
ENDBRANCH  29  50
ENDBRANCH   1  33
TORSDOF 28
ENDMDL
MODEL 9
REMARK VINA RESULT:      -4.2      1.991      5.459
REMARK  Name = 
REMARK  28 active torsions:
REMARK  status: ('A' for Active; 'I' for Inactive)
REMARK    1  A    between atoms: C_2  and  C_4
REMARK    2  A    between atoms: C_4  and  O_5
REMARK    3  A    between atoms: O_5  and  C_6
REMARK    4  A    between atoms: C_6  and  C_7
REMARK    5  A    between atoms: C_9  and  O_10
REMARK    6  A    between atoms: O_10  and  C_11
REMARK    7  A    between atoms: C_12  and  O_13
REMARK    8  A    between atoms: O_13  and  C_14
REMARK    9  A    between atoms: C_14  and  C_15
REMARK   10  A    between atoms: C_18  and  O_19
REMARK   11  A    between atoms: O_19  and  C_20
REMARK   12  A    between atoms: C_20  and  C_21
REMARK   13  A    between atoms: C_24  and  O_25
REMARK   14  A    between atoms: O_25  and  C_26
REMARK   15  A    between atoms: C_26  and  C_27
REMARK   16  A    between atoms: C_31  and  C_32
REMARK   17  A    between atoms: C_32  and  O_33
REMARK   18  A    between atoms: O_33  and  C_34
REMARK   19  A    between atoms: C_34  and  C_35
REMARK   20  A    between atoms: C_38  and  O_39
REMARK   21  A    between atoms: O_39  and  C_40
REMARK   22  A    between atoms: C_40  and  C_41
REMARK   23  A    between atoms: C_44  and  O_45
REMARK   24  A    between atoms: O_45  and  C_46
REMARK   25  A    between atoms: C_46  and  C_47
REMARK   26  A    between atoms: C_50  and  O_51
REMARK   27  A    between atoms: O_51  and  C_52
REMARK   28  A    between atoms: C_52  and  C_53
REMARK                            x       y       z     vdW  Elec       q    Type
REMARK                         _______ _______ _______ _____ _____    ______ ____
ROOT
ATOM      1  O   UNL     1       1.332   5.988  -5.488  0.00  0.00    -0.326 OA
ENDROOT
BRANCH   1   2
ATOM      2  C   UNL     1       1.153   6.950  -6.609  0.00  0.00    +0.177 C 
ATOM      3  C   UNL     1       0.283   5.889  -7.650  0.00  0.00    +0.177 C 
ATOM      4  O   UNL     1       1.295   4.809  -7.828  0.00  0.00    -0.326 OA
ATOM      5  C   UNL     1       1.926   5.148  -9.174  0.00  0.00    +0.266 C 
ATOM      6  C   UNL     1       1.923   6.851  -8.889  0.00  0.00    +0.201 C 
ATOM      7  C   UNL     1       2.697   6.857  -7.363  0.00  0.00    +0.177 C 
BRANCH   3   8
ATOM      8  C   UNL     1      -0.486   5.078  -6.424  0.00  0.00    +0.174 C 
BRANCH   8   9
ATOM      9  O   UNL     1      -1.790   4.919  -6.722  0.00  0.00    -0.348 OA
BRANCH   9  10
ATOM     10  C   UNL     1      -2.805   5.720  -6.447  0.00  0.00    +0.175 C 
BRANCH  10  11
ATOM     11  C   UNL     1      -2.194   6.583  -5.175  0.00  0.00    +0.181 C 
ATOM     12  O   UNL     1      -3.117   7.761  -5.452  0.00  0.00    -0.220 OA
ATOM     13  C   UNL     1      -3.290   5.899  -4.149  0.00  0.00    +0.038 C 
ENDBRANCH  10  11
ENDBRANCH   9  10
ENDBRANCH   8   9
ENDBRANCH   3   8
BRANCH   5  14
ATOM     14  O   UNL     1       0.564   5.271  -9.873  0.00  0.00    -0.326 OA
BRANCH  14  15
ATOM     15  C   UNL     1       0.679   4.256 -10.766  0.00  0.00    +0.178 C 
BRANCH  15  16
ATOM     16  C   UNL     1      -0.416   4.663 -11.934  0.00  0.00    +0.182 C 
ATOM     17  O   UNL     1      -0.349   6.130 -11.535  0.00  0.00    -0.220 OA
ATOM     18  C   UNL     1       0.787   4.862 -13.049  0.00  0.00    +0.038 C 
ENDBRANCH  15  16
ENDBRANCH  14  15
ENDBRANCH   5  14
BRANCH   6  19
ATOM     19  O   UNL     1       3.243   7.038  -9.581  0.00  0.00    -0.346 OA
BRANCH  19  20
ATOM     20  C   UNL     1       2.951   6.982 -10.920  0.00  0.00    +0.175 C 
BRANCH  20  21
ATOM     21  C   UNL     1       4.229   6.058 -11.412  0.00  0.00    +0.181 C 
ATOM     22  O   UNL     1       3.956   6.374 -12.873  0.00  0.00    -0.220 OA
ATOM     23  C   UNL     1       5.287   7.318 -11.285  0.00  0.00    +0.038 C 
ENDBRANCH  20  21
ENDBRANCH  19  20
ENDBRANCH   6  19
BRANCH   7  24
ATOM     24  O   UNL     1       2.965   5.413  -7.137  0.00  0.00    -0.348 OA
BRANCH  24  25
ATOM     25  C   UNL     1       4.300   5.484  -6.667  0.00  0.00    +0.175 C 
BRANCH  25  26
ATOM     26  C   UNL     1       5.090   4.251  -7.426  0.00  0.00    +0.181 C 
ATOM     27  O   UNL     1       4.041   4.133  -8.521  0.00  0.00    -0.220 OA
ATOM     28  C   UNL     1       5.965   5.338  -8.311  0.00  0.00    +0.038 C 
ENDBRANCH  25  26
ENDBRANCH  24  25
ENDBRANCH   7  24
ENDBRANCH   1   2
BRANCH   1  33
ATOM     29  C   UNL     1       1.139   4.863  -2.480  0.00  0.00    +0.177 C 
ATOM     30  C   UNL     1       0.734   6.170  -1.409  0.00  0.00    +0.174 C 
ATOM     31  C   UNL     1       1.686   7.434  -1.964  0.00  0.00    +0.177 C 
ATOM     32  C   UNL     1       2.345   6.728  -3.355  0.00  0.00    +0.201 C 
ATOM     33  C   UNL     1       0.883   6.714  -4.229  0.00  0.00    +0.266 C 
ATOM     34  O   UNL     1       0.362   5.438  -3.637  0.00  0.00    -0.326 OA
BRANCH  32  35
ATOM     35  O   UNL     1       2.984   7.960  -3.896  0.00  0.00    -0.346 OA
BRANCH  35  36
ATOM     36  C   UNL     1       4.215   7.508  -4.391  0.00  0.00    +0.175 C 
BRANCH  36  37
ATOM     37  C   UNL     1       5.476   8.228  -3.621  0.00  0.00    +0.181 C 
ATOM     38  O   UNL     1       5.451   7.254  -2.443  0.00  0.00    -0.220 OA
ATOM     39  C   UNL     1       6.658   7.315  -4.340  0.00  0.00    +0.038 C 
ENDBRANCH  36  37
ENDBRANCH  35  36
ENDBRANCH  32  35
BRANCH  31  40
ATOM     40  O   UNL     1       2.737   7.002  -0.981  0.00  0.00    -0.348 OA
BRANCH  40  41
ATOM     41  C   UNL     1       3.218   7.792  -0.126  0.00  0.00    +0.175 C 
BRANCH  41  42
ATOM     42  C   UNL     1       2.333   8.947   0.582  0.00  0.00    +0.181 C 
ATOM     43  O   UNL     1       3.153   8.919   1.875  0.00  0.00    -0.220 OA
ATOM     44  C   UNL     1       3.340  10.099  -0.052  0.00  0.00    +0.038 C 
ENDBRANCH  41  42
ENDBRANCH  40  41
ENDBRANCH  31  40
BRANCH  30  45
ATOM     45  O   UNL     1      -0.519   6.617  -2.113  0.00  0.00    -0.348 OA
BRANCH  45  46
ATOM     46  C   UNL     1      -1.459   7.047  -1.261  0.00  0.00    +0.175 C 
BRANCH  46  47
ATOM     47  C   UNL     1      -0.895   7.054   0.281  0.00  0.00    +0.181 C 
ATOM     48  O   UNL     1      -2.074   6.246   0.803  0.00  0.00    -0.220 OA
ATOM     49  C   UNL     1      -1.665   8.487   0.594  0.00  0.00    +0.038 C 
ENDBRANCH  46  47
ENDBRANCH  45  46
ENDBRANCH  30  45
BRANCH  29  50
ATOM     50  C   UNL     1       2.694   5.062  -2.805  0.00  0.00    +0.174 C 
BRANCH  50  51
ATOM     51  O   UNL     1       3.593   4.412  -3.286  0.00  0.00    -0.348 OA
BRANCH  51  52
ATOM     52  C   UNL     1       4.528   3.828  -2.415  0.00  0.00    +0.175 C 
BRANCH  52  54
ATOM     53  C   UNL     1       3.581   2.645  -0.743  0.00  0.00    +0.038 C 
ATOM     54  C   UNL     1       4.064   4.176  -0.866  0.00  0.00    +0.181 C 
ATOM     55  O   UNL     1       5.427   3.795  -0.300  0.00  0.00    -0.220 OA
ENDBRANCH  52  54
ENDBRANCH  51  52
ENDBRANCH  50  51
ENDBRANCH  29  50
ENDBRANCH   1  33
TORSDOF 28
ENDMDL
