MODEL 1
REMARK VINA RESULT:      -8.6      0.000      0.000
REMARK  Name = 
REMARK  7 active torsions:
REMARK  status: ('A' for Active; 'I' for Inactive)
REMARK    1  A    between atoms: C_10  and  C_11
REMARK    2  A    between atoms: C_11  and  C_12
REMARK    3  A    between atoms: C_12  and  N_13
REMARK    4  A    between atoms: N_13  and  C_14
REMARK    5  A    between atoms: C_14  and  C_15
REMARK    6  A    between atoms: C_18  and  C_19
REMARK    7  A    between atoms: C_20  and  C_21
REMARK                            x       y       z     vdW  Elec       q    Type
REMARK                         _______ _______ _______ _____ _____    ______ ____
ROOT
ATOM      1  N   UNL     1       3.941   6.223  -4.200  0.00  0.00    -0.213 NA
ENDROOT
BRANCH   1   2
ATOM      2  C   UNL     1       2.827   6.331  -3.289  0.00  0.00    +0.094 C 
BRANCH   2   3
ATOM      3  C   UNL     1       1.778   5.275  -3.512  0.00  0.00    +0.046 C 
BRANCH   3   6
ATOM      4  C   UNL     1      -0.352   5.620  -1.167  0.00  0.00    +0.052 C 
ATOM      5  C   UNL     1      -0.406   6.149  -2.564  0.00  0.00    +0.055 A 
ATOM      6  C   UNL     1       0.410   5.847  -3.635  0.00  0.00    -0.006 A 
ATOM      7  C   UNL     1      -0.287   6.014  -4.826  0.00  0.00    +0.015 A 
ATOM      8  C   UNL     1      -1.483   6.606  -4.440  0.00  0.00    +0.081 A 
ATOM      9  C   UNL     1      -2.470   6.710  -5.411  0.00  0.00    +0.019 A 
ATOM     10  C   UNL     1      -2.466   5.806  -6.462  0.00  0.00    +0.002 A 
ATOM     11  C   UNL     1      -1.279   5.225  -6.889  0.00  0.00    +0.000 A 
ATOM     12  C   UNL     1      -0.166   5.470  -6.098  0.00  0.00    +0.001 A 
ATOM     13  N   UNL     1      -1.446   6.829  -3.104  0.00  0.00    -0.250 NA
ENDBRANCH   3   6
ENDBRANCH   2   3
ENDBRANCH   1   2
BRANCH   1  14
ATOM     14  C   UNL     1       3.841   7.231  -5.245  0.00  0.00    +0.115 C 
BRANCH  14  15
ATOM     15  C   UNL     1       3.408   6.544  -6.502  0.00  0.00    -0.005 A 
ATOM     16  C   UNL     1       4.093   5.432  -6.973  0.00  0.00    -0.003 A 
ATOM     17  C   UNL     1       4.113   5.183  -8.340  0.00  0.00    -0.000 A 
ATOM     18  C   UNL     1       3.669   6.120  -9.265  0.00  0.00    +0.000 A 
ATOM     19  C   UNL     1       2.843   7.113  -8.793  0.00  0.00    -0.000 A 
ATOM     20  C   UNL     1       2.674   7.271  -7.425  0.00  0.00    -0.003 A 
BRANCH  18  21
ATOM     21  C   UNL     1       4.448   6.292 -10.498  0.00  0.00    +0.002 C 
ATOM     22  C   UNL     1       5.655   6.818 -10.502  0.00  0.00    +0.025 C 
BRANCH  22  23
ATOM     23  C   UNL     1       6.783   6.298 -11.245  0.00  0.00    +0.110 C 
ATOM     24  N   UNL     1       6.692   5.413 -12.341  0.00  0.00    -0.198 NA
ATOM     25  O   UNL     1       7.707   4.554 -12.636  0.00  0.00    -0.402 OA
ATOM     26  O   UNL     1       7.936   6.674 -10.894  0.00  0.00    -0.536 OA
ENDBRANCH  22  23
ENDBRANCH  18  21
ENDBRANCH  14  15
ENDBRANCH   1  14
TORSDOF 7
ENDMDL
MODEL 2
REMARK VINA RESULT:      -8.5      4.686      7.370
REMARK  Name = 
REMARK  7 active torsions:
REMARK  status: ('A' for Active; 'I' for Inactive)
REMARK    1  A    between atoms: C_10  and  C_11
REMARK    2  A    between atoms: C_11  and  C_12
REMARK    3  A    between atoms: C_12  and  N_13
REMARK    4  A    between atoms: N_13  and  C_14
REMARK    5  A    between atoms: C_14  and  C_15
REMARK    6  A    between atoms: C_18  and  C_19
REMARK    7  A    between atoms: C_20  and  C_21
REMARK                            x       y       z     vdW  Elec       q    Type
REMARK                         _______ _______ _______ _____ _____    ______ ____
ROOT
ATOM      1  N   UNL     1       3.582   5.029  -5.364  0.00  0.00    -0.213 NA
ENDROOT
BRANCH   1   2
ATOM      2  C   UNL     1       3.455   5.642  -6.664  0.00  0.00    +0.094 C 
BRANCH   2   3
ATOM      3  C   UNL     1       2.460   6.771  -6.689  0.00  0.00    +0.046 C 
BRANCH   3   6
ATOM      4  C   UNL     1       1.162   6.015  -9.500  0.00  0.00    +0.052 C 
ATOM      5  C   UNL     1       0.607   5.806  -8.128  0.00  0.00    +0.055 A 
ATOM      6  C   UNL     1       1.068   6.300  -6.924  0.00  0.00    -0.006 A 
ATOM      7  C   UNL     1       0.014   6.427  -6.027  0.00  0.00    +0.015 A 
ATOM      8  C   UNL     1      -1.055   5.818  -6.670  0.00  0.00    +0.081 A 
ATOM      9  C   UNL     1      -2.306   5.971  -6.085  0.00  0.00    +0.019 A 
ATOM     10  C   UNL     1      -2.534   7.082  -5.288  0.00  0.00    +0.002 A 
ATOM     11  C   UNL     1      -1.487   7.690  -4.608  0.00  0.00    +0.000 A 
ATOM     12  C   UNL     1      -0.215   7.230  -4.918  0.00  0.00    +0.001 A 
ATOM     13  N   UNL     1      -0.621   5.307  -7.848  0.00  0.00    -0.250 NA
ENDBRANCH   3   6
ENDBRANCH   2   3
ENDBRANCH   1   2
BRANCH   1  14
ATOM     14  C   UNL     1       4.669   5.646  -4.617  0.00  0.00    +0.115 C 
BRANCH  14  15
ATOM     15  C   UNL     1       4.171   5.925  -3.234  0.00  0.00    -0.005 A 
ATOM     16  C   UNL     1       4.082   4.907  -2.294  0.00  0.00    -0.003 A 
ATOM     17  C   UNL     1       3.116   4.991  -1.299  0.00  0.00    -0.000 A 
ATOM     18  C   UNL     1       2.097   5.935  -1.342  0.00  0.00    +0.000 A 
ATOM     19  C   UNL     1       2.297   7.027  -2.153  0.00  0.00    -0.000 A 
ATOM     20  C   UNL     1       3.364   7.035  -3.040  0.00  0.00    -0.003 A 
BRANCH  18  21
ATOM     21  C   UNL     1       0.747   5.508  -0.949  0.00  0.00    +0.002 C 
ATOM     22  C   UNL     1      -0.259   6.352  -0.852  0.00  0.00    +0.025 C 
BRANCH  22  23
ATOM     23  C   UNL     1      -1.593   6.112  -1.357  0.00  0.00    +0.110 C 
ATOM     24  N   UNL     1      -2.041   4.895  -1.916  0.00  0.00    -0.198 NA
ATOM     25  O   UNL     1      -3.045   4.872  -2.836  0.00  0.00    -0.402 OA
ATOM     26  O   UNL     1      -2.425   7.059  -1.281  0.00  0.00    -0.536 OA
ENDBRANCH  22  23
ENDBRANCH  18  21
ENDBRANCH  14  15
ENDBRANCH   1  14
TORSDOF 7
ENDMDL
MODEL 3
REMARK VINA RESULT:      -8.5      4.708      9.138
REMARK  Name = 
REMARK  7 active torsions:
REMARK  status: ('A' for Active; 'I' for Inactive)
REMARK    1  A    between atoms: C_10  and  C_11
REMARK    2  A    between atoms: C_11  and  C_12
REMARK    3  A    between atoms: C_12  and  N_13
REMARK    4  A    between atoms: N_13  and  C_14
REMARK    5  A    between atoms: C_14  and  C_15
REMARK    6  A    between atoms: C_18  and  C_19
REMARK    7  A    between atoms: C_20  and  C_21
REMARK                            x       y       z     vdW  Elec       q    Type
REMARK                         _______ _______ _______ _____ _____    ______ ____
ROOT
ATOM      1  N   UNL     1       0.359   5.306  -8.606  0.00  0.00    -0.213 NA
ENDROOT
BRANCH   1   2
ATOM      2  C   UNL     1       1.630   5.295  -9.289  0.00  0.00    +0.094 C 
BRANCH   2   3
ATOM      3  C   UNL     1       2.539   6.417  -8.862  0.00  0.00    +0.046 C 
BRANCH   3   6
ATOM      4  C   UNL     1       4.164   5.465  -6.292  0.00  0.00    +0.052 C 
ATOM      5  C   UNL     1       4.579   5.427  -7.728  0.00  0.00    +0.055 A 
ATOM      6  C   UNL     1       3.969   6.009  -8.820  0.00  0.00    -0.006 A 
ATOM      7  C   UNL     1       4.913   6.286  -9.801  0.00  0.00    +0.015 A 
ATOM      8  C   UNL     1       6.074   5.682  -9.337  0.00  0.00    +0.081 A 
ATOM      9  C   UNL     1       7.246   5.966 -10.026  0.00  0.00    +0.019 A 
ATOM     10  C   UNL     1       7.333   7.162 -10.722  0.00  0.00    +0.002 A 
ATOM     11  C   UNL     1       6.190   7.771 -11.225  0.00  0.00    +0.000 A 
ATOM     12  C   UNL     1       4.983   7.208 -10.838  0.00  0.00    +0.001 A 
ATOM     13  N   UNL     1       5.793   5.032  -8.181  0.00  0.00    -0.250 NA
ENDBRANCH   3   6
ENDBRANCH   2   3
ENDBRANCH   1   2
BRANCH   1  14
ATOM     14  C   UNL     1       0.558   5.288  -7.164  0.00  0.00    +0.115 C 
BRANCH  14  15
ATOM     15  C   UNL     1      -0.526   6.113  -6.544  0.00  0.00    -0.005 A 
ATOM     16  C   UNL     1      -0.216   7.149  -5.671  0.00  0.00    -0.003 A 
ATOM     17  C   UNL     1      -1.126   7.484  -4.676  0.00  0.00    -0.000 A 
ATOM     18  C   UNL     1      -2.222   6.684  -4.380  0.00  0.00    +0.000 A 
ATOM     19  C   UNL     1      -2.612   5.786  -5.346  0.00  0.00    -0.000 A 
ATOM     20  C   UNL     1      -1.792   5.560  -6.443  0.00  0.00    -0.003 A 
BRANCH  18  21
ATOM     21  C   UNL     1      -2.571   6.489  -2.967  0.00  0.00    +0.002 C 
ATOM     22  C   UNL     1      -1.660   6.304  -2.034  0.00  0.00    +0.025 C 
BRANCH  22  23
ATOM     23  C   UNL     1      -1.658   6.948  -0.739  0.00  0.00    +0.110 C 
ATOM     24  N   UNL     1      -1.662   8.344  -0.528  0.00  0.00    -0.198 NA
ATOM     25  O   UNL     1      -1.123   8.886   0.599  0.00  0.00    -0.402 OA
ATOM     26  O   UNL     1      -1.665   6.205   0.282  0.00  0.00    -0.536 OA
ENDBRANCH  22  23
ENDBRANCH  18  21
ENDBRANCH  14  15
ENDBRANCH   1  14
TORSDOF 7
ENDMDL
MODEL 4
REMARK VINA RESULT:      -8.5      5.431      8.957
REMARK  Name = 
REMARK  7 active torsions:
REMARK  status: ('A' for Active; 'I' for Inactive)
REMARK    1  A    between atoms: C_10  and  C_11
REMARK    2  A    between atoms: C_11  and  C_12
REMARK    3  A    between atoms: C_12  and  N_13
REMARK    4  A    between atoms: N_13  and  C_14
REMARK    5  A    between atoms: C_14  and  C_15
REMARK    6  A    between atoms: C_18  and  C_19
REMARK    7  A    between atoms: C_20  and  C_21
REMARK                            x       y       z     vdW  Elec       q    Type
REMARK                         _______ _______ _______ _____ _____    ______ ____
ROOT
ATOM      1  N   UNL     1      -0.340   6.207  -6.608  0.00  0.00    -0.213 NA
ENDROOT
BRANCH   1   2
ATOM      2  C   UNL     1       0.792   5.401  -6.997  0.00  0.00    +0.094 C 
BRANCH   2   3
ATOM      3  C   UNL     1       1.354   4.588  -5.862  0.00  0.00    +0.046 C 
BRANCH   3   6
ATOM      4  C   UNL     1       4.374   5.598  -5.747  0.00  0.00    +0.052 C 
ATOM      5  C   UNL     1       3.220   6.002  -4.887  0.00  0.00    +0.055 A 
ATOM      6  C   UNL     1       1.965   5.434  -4.802  0.00  0.00    -0.006 A 
ATOM      7  C   UNL     1       1.432   5.647  -3.536  0.00  0.00    +0.015 A 
ATOM      8  C   UNL     1       2.328   6.519  -2.932  0.00  0.00    +0.081 A 
ATOM      9  C   UNL     1       2.152   6.753  -1.574  0.00  0.00    +0.019 A 
ATOM     10  C   UNL     1       1.525   5.782  -0.808  0.00  0.00    +0.002 A 
ATOM     11  C   UNL     1       0.601   4.919  -1.382  0.00  0.00    +0.000 A 
ATOM     12  C   UNL     1       0.490   4.980  -2.763  0.00  0.00    +0.001 A 
ATOM     13  N   UNL     1       3.290   6.844  -3.828  0.00  0.00    -0.250 NA
ENDBRANCH   3   6
ENDBRANCH   2   3
ENDBRANCH   1   2
BRANCH   1  14
ATOM     14  C   UNL     1      -1.430   5.362  -6.144  0.00  0.00    +0.115 C 
BRANCH  14  15
ATOM     15  C   UNL     1      -2.207   6.136  -5.127  0.00  0.00    -0.005 A 
ATOM     16  C   UNL     1      -1.723   7.340  -4.631  0.00  0.00    -0.003 A 
ATOM     17  C   UNL     1      -2.072   7.725  -3.342  0.00  0.00    -0.000 A 
ATOM     18  C   UNL     1      -2.695   6.854  -2.457  0.00  0.00    +0.000 A 
ATOM     19  C   UNL     1      -3.322   5.758  -3.003  0.00  0.00    -0.000 A 
ATOM     20  C   UNL     1      -3.120   5.451  -4.342  0.00  0.00    -0.003 A 
BRANCH  18  21
ATOM     21  C   UNL     1      -2.257   6.867  -1.055  0.00  0.00    +0.002 C 
ATOM     22  C   UNL     1      -1.584   7.873  -0.536  0.00  0.00    +0.025 C 
BRANCH  22  23
ATOM     23  C   UNL     1      -1.847   8.466   0.757  0.00  0.00    +0.110 C 
ATOM     24  N   UNL     1      -2.742   7.949   1.719  0.00  0.00    -0.198 NA
ATOM     25  O   UNL     1      -3.356   8.766   2.619  0.00  0.00    -0.402 OA
ATOM     26  O   UNL     1      -1.220   9.521   1.054  0.00  0.00    -0.536 OA
ENDBRANCH  22  23
ENDBRANCH  18  21
ENDBRANCH  14  15
ENDBRANCH   1  14
TORSDOF 7
ENDMDL
MODEL 5
REMARK VINA RESULT:      -8.4      2.627      3.610
REMARK  Name = 
REMARK  7 active torsions:
REMARK  status: ('A' for Active; 'I' for Inactive)
REMARK    1  A    between atoms: C_10  and  C_11
REMARK    2  A    between atoms: C_11  and  C_12
REMARK    3  A    between atoms: C_12  and  N_13
REMARK    4  A    between atoms: N_13  and  C_14
REMARK    5  A    between atoms: C_14  and  C_15
REMARK    6  A    between atoms: C_18  and  C_19
REMARK    7  A    between atoms: C_20  and  C_21
REMARK                            x       y       z     vdW  Elec       q    Type
REMARK                         _______ _______ _______ _____ _____    ______ ____
ROOT
ATOM      1  N   UNL     1       2.237   6.717  -1.404  0.00  0.00    -0.213 NA
ENDROOT
BRANCH   1   2
ATOM      2  C   UNL     1       1.095   6.203  -0.687  0.00  0.00    +0.094 C 
BRANCH   2   3
ATOM      3  C   UNL     1       0.238   5.288  -1.520  0.00  0.00    +0.046 C 
BRANCH   3   6
ATOM      4  C   UNL     1      -2.604   6.700  -1.822  0.00  0.00    +0.052 C 
ATOM      5  C   UNL     1      -1.447   6.716  -2.768  0.00  0.00    +0.055 A 
ATOM      6  C   UNL     1      -0.294   5.958  -2.738  0.00  0.00    -0.006 A 
ATOM      7  C   UNL     1       0.202   5.795  -4.026  0.00  0.00    +0.015 A 
ATOM      8  C   UNL     1      -0.585   6.635  -4.802  0.00  0.00    +0.081 A 
ATOM      9  C   UNL     1      -0.444   6.528  -6.180  0.00  0.00    +0.019 A 
ATOM     10  C   UNL     1      -0.006   5.324  -6.710  0.00  0.00    +0.002 A 
ATOM     11  C   UNL     1       0.810   4.480  -5.966  0.00  0.00    +0.000 A 
ATOM     12  C   UNL     1       0.996   4.834  -4.638  0.00  0.00    +0.001 A 
ATOM     13  N   UNL     1      -1.444   7.299  -3.991  0.00  0.00    -0.250 NA
ENDBRANCH   3   6
ENDBRANCH   2   3
ENDBRANCH   1   2
BRANCH   1  14
ATOM     14  C   UNL     1       3.230   5.670  -1.595  0.00  0.00    +0.115 C 
BRANCH  14  15
ATOM     15  C   UNL     1       4.039   6.021  -2.803  0.00  0.00    -0.005 A 
ATOM     16  C   UNL     1       3.910   7.267  -3.404  0.00  0.00    -0.003 A 
ATOM     17  C   UNL     1       4.145   7.384  -4.768  0.00  0.00    -0.000 A 
ATOM     18  C   UNL     1       4.282   6.271  -5.589  0.00  0.00    +0.000 A 
ATOM     19  C   UNL     1       4.587   5.080  -4.973  0.00  0.00    -0.000 A 
ATOM     20  C   UNL     1       4.523   4.989  -3.589  0.00  0.00    -0.003 A 
BRANCH  18  21
ATOM     21  C   UNL     1       3.644   6.309  -6.911  0.00  0.00    +0.002 C 
ATOM     22  C   UNL     1       4.039   5.544  -7.908  0.00  0.00    +0.025 C 
BRANCH  22  23
ATOM     23  C   UNL     1       3.158   4.814  -8.792  0.00  0.00    +0.110 C 
ATOM     24  N   UNL     1       2.473   5.370  -9.894  0.00  0.00    -0.198 NA
ATOM     25  O   UNL     1       1.297   4.841 -10.331  0.00  0.00    -0.402 OA
ATOM     26  O   UNL     1       2.997   3.581  -8.568  0.00  0.00    -0.536 OA
ENDBRANCH  22  23
ENDBRANCH  18  21
ENDBRANCH  14  15
ENDBRANCH   1  14
TORSDOF 7
ENDMDL
MODEL 6
REMARK VINA RESULT:      -8.3      2.593      4.355
REMARK  Name = 
REMARK  7 active torsions:
REMARK  status: ('A' for Active; 'I' for Inactive)
REMARK    1  A    between atoms: C_10  and  C_11
REMARK    2  A    between atoms: C_11  and  C_12
REMARK    3  A    between atoms: C_12  and  N_13
REMARK    4  A    between atoms: N_13  and  C_14
REMARK    5  A    between atoms: C_14  and  C_15
REMARK    6  A    between atoms: C_18  and  C_19
REMARK    7  A    between atoms: C_20  and  C_21
REMARK                            x       y       z     vdW  Elec       q    Type
REMARK                         _______ _______ _______ _____ _____    ______ ____
ROOT
ATOM      1  N   UNL     1       4.832   5.505  -7.251  0.00  0.00    -0.213 NA
ENDROOT
BRANCH   1   2
ATOM      2  C   UNL     1       3.527   5.373  -6.650  0.00  0.00    +0.094 C 
BRANCH   2   3
ATOM      3  C   UNL     1       2.623   6.541  -6.940  0.00  0.00    +0.046 C 
BRANCH   3   6
ATOM      4  C   UNL     1       1.285   6.203  -9.812  0.00  0.00    +0.052 C 
ATOM      5  C   UNL     1       0.743   5.809  -8.476  0.00  0.00    +0.055 A 
ATOM      6  C   UNL     1       1.223   6.123  -7.221  0.00  0.00    -0.006 A 
ATOM      7  C   UNL     1       0.181   6.133  -6.302  0.00  0.00    +0.015 A 
ATOM      8  C   UNL     1      -0.903   5.633  -7.011  0.00  0.00    +0.081 A 
ATOM      9  C   UNL     1      -2.145   5.715  -6.395  0.00  0.00    +0.019 A 
ATOM     10  C   UNL     1      -2.351   6.705  -5.446  0.00  0.00    +0.002 A 
ATOM     11  C   UNL     1      -1.289   7.199  -4.700  0.00  0.00    +0.000 A 
ATOM     12  C   UNL     1      -0.026   6.774  -5.088  0.00  0.00    +0.001 A 
ATOM     13  N   UNL     1      -0.488   5.289  -8.254  0.00  0.00    -0.250 NA
ENDBRANCH   3   6
ENDBRANCH   2   3
ENDBRANCH   1   2
BRANCH   1  14
ATOM     14  C   UNL     1       4.787   5.106  -8.650  0.00  0.00    +0.115 C 
BRANCH  14  15
ATOM     15  C   UNL     1       5.661   6.046  -9.421  0.00  0.00    -0.005 A 
ATOM     16  C   UNL     1       5.113   6.922 -10.350  0.00  0.00    -0.003 A 
ATOM     17  C   UNL     1       5.882   7.315 -11.438  0.00  0.00    -0.000 A 
ATOM     18  C   UNL     1       7.086   6.697 -11.750  0.00  0.00    +0.000 A 
ATOM     19  C   UNL     1       7.694   5.980 -10.746  0.00  0.00    -0.000 A 
ATOM     20  C   UNL     1       6.998   5.719  -9.574  0.00  0.00    -0.003 A 
BRANCH  18  21
ATOM     21  C   UNL     1       7.377   6.432 -13.166  0.00  0.00    +0.002 C 
ATOM     22  C   UNL     1       6.450   6.494 -14.100  0.00  0.00    +0.025 C 
BRANCH  22  23
ATOM     23  C   UNL     1       6.615   7.128 -15.389  0.00  0.00    +0.110 C 
ATOM     24  N   UNL     1       6.018   8.348 -15.774  0.00  0.00    -0.198 NA
ATOM     25  O   UNL     1       5.745   8.614 -17.082  0.00  0.00    -0.402 OA
ATOM     26  O   UNL     1       7.360   6.553 -16.231  0.00  0.00    -0.536 OA
ENDBRANCH  22  23
ENDBRANCH  18  21
ENDBRANCH  14  15
ENDBRANCH   1  14
TORSDOF 7
ENDMDL
MODEL 7
REMARK VINA RESULT:      -8.2      2.442      4.194
REMARK  Name = 
REMARK  7 active torsions:
REMARK  status: ('A' for Active; 'I' for Inactive)
REMARK    1  A    between atoms: C_10  and  C_11
REMARK    2  A    between atoms: C_11  and  C_12
REMARK    3  A    between atoms: C_12  and  N_13
REMARK    4  A    between atoms: N_13  and  C_14
REMARK    5  A    between atoms: C_14  and  C_15
REMARK    6  A    between atoms: C_18  and  C_19
REMARK    7  A    between atoms: C_20  and  C_21
REMARK                            x       y       z     vdW  Elec       q    Type
REMARK                         _______ _______ _______ _____ _____    ______ ____
ROOT
ATOM      1  N   UNL     1       4.096   4.706  -9.566  0.00  0.00    -0.213 NA
ENDROOT
BRANCH   1   2
ATOM      2  C   UNL     1       2.784   4.998  -9.040  0.00  0.00    +0.094 C 
BRANCH   2   3
ATOM      3  C   UNL     1       2.504   4.304  -7.734  0.00  0.00    +0.046 C 
BRANCH   3   6
ATOM      4  C   UNL     1       3.757   4.868  -4.858  0.00  0.00    +0.052 C 
ATOM      5  C   UNL     1       2.640   5.584  -5.548  0.00  0.00    +0.055 A 
ATOM      6  C   UNL     1       1.967   5.230  -6.700  0.00  0.00    -0.006 A 
ATOM      7  C   UNL     1       0.675   5.742  -6.672  0.00  0.00    +0.015 A 
ATOM      8  C   UNL     1       0.660   6.568  -5.556  0.00  0.00    +0.081 A 
ATOM      9  C   UNL     1      -0.575   7.066  -5.163  0.00  0.00    +0.019 A 
ATOM     10  C   UNL     1      -1.715   6.350  -5.495  0.00  0.00    +0.002 A 
ATOM     11  C   UNL     1      -1.737   5.541  -6.624  0.00  0.00    +0.000 A 
ATOM     12  C   UNL     1      -0.522   5.369  -7.270  0.00  0.00    +0.001 A 
ATOM     13  N   UNL     1       1.901   6.583  -5.010  0.00  0.00    -0.250 NA
ENDBRANCH   3   6
ENDBRANCH   2   3
ENDBRANCH   1   2
BRANCH   1  14
ATOM     14  C   UNL     1       5.125   5.140  -8.633  0.00  0.00    +0.115 C 
BRANCH  14  15
ATOM     15  C   UNL     1       6.128   5.942  -9.401  0.00  0.00    -0.005 A 
ATOM     16  C   UNL     1       5.718   6.956 -10.258  0.00  0.00    -0.003 A 
ATOM     17  C   UNL     1       6.503   7.260 -11.363  0.00  0.00    -0.000 A 
ATOM     18  C   UNL     1       7.555   6.447 -11.765  0.00  0.00    +0.000 A 
ATOM     19  C   UNL     1       8.056   5.574 -10.829  0.00  0.00    -0.000 A 
ATOM     20  C   UNL     1       7.372   5.381  -9.637  0.00  0.00    -0.003 A 
BRANCH  18  21
ATOM     21  C   UNL     1       7.733   6.213 -13.204  0.00  0.00    +0.002 C 
ATOM     22  C   UNL     1       6.724   6.220 -14.050  0.00  0.00    +0.025 C 
BRANCH  22  23
ATOM     23  C   UNL     1       6.728   6.873 -15.341  0.00  0.00    +0.110 C 
ATOM     24  N   UNL     1       7.164   6.283 -16.546  0.00  0.00    -0.198 NA
ATOM     25  O   UNL     1       7.660   7.043 -17.562  0.00  0.00    -0.402 OA
ATOM     26  O   UNL     1       6.299   8.060 -15.394  0.00  0.00    -0.536 OA
ENDBRANCH  22  23
ENDBRANCH  18  21
ENDBRANCH  14  15
ENDBRANCH   1  14
TORSDOF 7
ENDMDL
MODEL 8
REMARK VINA RESULT:      -8.1      4.184      8.176
REMARK  Name = 
REMARK  7 active torsions:
REMARK  status: ('A' for Active; 'I' for Inactive)
REMARK    1  A    between atoms: C_10  and  C_11
REMARK    2  A    between atoms: C_11  and  C_12
REMARK    3  A    between atoms: C_12  and  N_13
REMARK    4  A    between atoms: N_13  and  C_14
REMARK    5  A    between atoms: C_14  and  C_15
REMARK    6  A    between atoms: C_18  and  C_19
REMARK    7  A    between atoms: C_20  and  C_21
REMARK                            x       y       z     vdW  Elec       q    Type
REMARK                         _______ _______ _______ _____ _____    ______ ____
ROOT
ATOM      1  N   UNL     1      -0.621   5.720  -6.437  0.00  0.00    -0.213 NA
ENDROOT
BRANCH   1   2
ATOM      2  C   UNL     1       0.124   4.574  -5.975  0.00  0.00    +0.094 C 
BRANCH   2   3
ATOM      3  C   UNL     1       1.482   4.455  -6.614  0.00  0.00    +0.046 C 
BRANCH   3   6
ATOM      4  C   UNL     1       2.522   6.533  -8.795  0.00  0.00    +0.052 C 
ATOM      5  C   UNL     1       2.606   6.621  -7.305  0.00  0.00    +0.055 A 
ATOM      6  C   UNL     1       2.336   5.648  -6.365  0.00  0.00    -0.006 A 
ATOM      7  C   UNL     1       3.091   5.871  -5.219  0.00  0.00    +0.015 A 
ATOM      8  C   UNL     1       3.678   7.110  -5.434  0.00  0.00    +0.081 A 
ATOM      9  C   UNL     1       4.655   7.505  -4.529  0.00  0.00    +0.019 A 
ATOM     10  C   UNL     1       5.362   6.526  -3.847  0.00  0.00    +0.002 A 
ATOM     11  C   UNL     1       4.785   5.289  -3.591  0.00  0.00    +0.000 A 
ATOM     12  C   UNL     1       3.563   5.050  -4.203  0.00  0.00    +0.001 A 
ATOM     13  N   UNL     1       3.229   7.606  -6.613  0.00  0.00    -0.250 NA
ENDBRANCH   3   6
ENDBRANCH   2   3
ENDBRANCH   1   2
BRANCH   1  14
ATOM     14  C   UNL     1      -2.050   5.464  -6.350  0.00  0.00    +0.115 C 
BRANCH  14  15
ATOM     15  C   UNL     1      -2.571   6.183  -5.146  0.00  0.00    -0.005 A 
ATOM     16  C   UNL     1      -2.080   7.437  -4.802  0.00  0.00    -0.003 A 
ATOM     17  C   UNL     1      -2.077   7.814  -3.465  0.00  0.00    -0.000 A 
ATOM     18  C   UNL     1      -2.335   6.908  -2.443  0.00  0.00    +0.000 A 
ATOM     19  C   UNL     1      -2.985   5.748  -2.794  0.00  0.00    -0.000 A 
ATOM     20  C   UNL     1      -3.151   5.433  -4.135  0.00  0.00    -0.003 A 
BRANCH  18  21
ATOM     21  C   UNL     1      -1.514   6.990  -1.228  0.00  0.00    +0.002 C 
ATOM     22  C   UNL     1      -0.685   6.031  -0.870  0.00  0.00    +0.025 C 
BRANCH  22  23
ATOM     23  C   UNL     1       0.665   6.239  -0.393  0.00  0.00    +0.110 C 
ATOM     24  N   UNL     1       1.836   5.957  -1.129  0.00  0.00    -0.198 NA
ATOM     25  O   UNL     1       3.003   5.644  -0.499  0.00  0.00    -0.402 OA
ATOM     26  O   UNL     1       0.806   6.719   0.766  0.00  0.00    -0.536 OA
ENDBRANCH  22  23
ENDBRANCH  18  21
ENDBRANCH  14  15
ENDBRANCH   1  14
TORSDOF 7
ENDMDL
MODEL 9
REMARK VINA RESULT:      -8.0      4.610      8.995
REMARK  Name = 
REMARK  7 active torsions:
REMARK  status: ('A' for Active; 'I' for Inactive)
REMARK    1  A    between atoms: C_10  and  C_11
REMARK    2  A    between atoms: C_11  and  C_12
REMARK    3  A    between atoms: C_12  and  N_13
REMARK    4  A    between atoms: N_13  and  C_14
REMARK    5  A    between atoms: C_14  and  C_15
REMARK    6  A    between atoms: C_18  and  C_19
REMARK    7  A    between atoms: C_20  and  C_21
REMARK                            x       y       z     vdW  Elec       q    Type
REMARK                         _______ _______ _______ _____ _____    ______ ____
ROOT
ATOM      1  N   UNL     1       0.281   6.221  -6.367  0.00  0.00    -0.213 NA
ENDROOT
BRANCH   1   2
ATOM      2  C   UNL     1       1.423   5.391  -6.066  0.00  0.00    +0.094 C 
BRANCH   2   3
ATOM      3  C   UNL     1       1.840   4.521  -7.220  0.00  0.00    +0.046 C 
BRANCH   3   6
ATOM      4  C   UNL     1       0.274   4.847  -9.977  0.00  0.00    +0.052 C 
ATOM      5  C   UNL     1       1.488   5.578  -9.499  0.00  0.00    +0.055 A 
ATOM      6  C   UNL     1       2.281   5.311  -8.401  0.00  0.00    -0.006 A 
ATOM      7  C   UNL     1       3.577   5.759  -8.631  0.00  0.00    +0.015 A 
ATOM      8  C   UNL     1       3.486   6.467  -9.822  0.00  0.00    +0.081 A 
ATOM      9  C   UNL     1       4.682   6.866 -10.404  0.00  0.00    +0.019 A 
ATOM     10  C   UNL     1       5.829   6.137 -10.132  0.00  0.00    +0.002 A 
ATOM     11  C   UNL     1       5.958   5.446  -8.934  0.00  0.00    +0.000 A 
ATOM     12  C   UNL     1       4.823   5.395  -8.138  0.00  0.00    +0.001 A 
ATOM     13  N   UNL     1       2.191   6.484 -10.220  0.00  0.00    -0.250 NA
ENDBRANCH   3   6
ENDBRANCH   2   3
ENDBRANCH   1   2
BRANCH   1  14
ATOM     14  C   UNL     1      -0.943   5.433  -6.326  0.00  0.00    +0.115 C 
BRANCH  14  15
ATOM     15  C   UNL     1      -1.907   6.135  -5.423  0.00  0.00    -0.005 A 
ATOM     16  C   UNL     1      -1.621   7.400  -4.926  0.00  0.00    -0.003 A 
ATOM     17  C   UNL     1      -2.145   7.774  -3.694  0.00  0.00    -0.000 A 
ATOM     18  C   UNL     1      -2.753   6.859  -2.845  0.00  0.00    +0.000 A 
ATOM     19  C   UNL     1      -3.188   5.683  -3.410  0.00  0.00    -0.000 A 
ATOM     20  C   UNL     1      -2.813   5.367  -4.709  0.00  0.00    -0.003 A 
BRANCH  18  21
ATOM     21  C   UNL     1      -2.469   6.959  -1.408  0.00  0.00    +0.002 C 
ATOM     22  C   UNL     1      -1.273   6.730  -0.907  0.00  0.00    +0.025 C 
BRANCH  22  23
ATOM     23  C   UNL     1      -0.623   7.548   0.093  0.00  0.00    +0.110 C 
ATOM     24  N   UNL     1      -1.023   8.852   0.459  0.00  0.00    -0.198 NA
ATOM     25  O   UNL     1      -0.125   9.751   0.949  0.00  0.00    -0.402 OA
ATOM     26  O   UNL     1       0.372   7.054   0.694  0.00  0.00    -0.536 OA
ENDBRANCH  22  23
ENDBRANCH  18  21
ENDBRANCH  14  15
ENDBRANCH   1  14
TORSDOF 7
ENDMDL
