MODEL 1
REMARK VINA RESULT:      -4.5      0.000      0.000
REMARK  Name = 
REMARK  3 active torsions:
REMARK  status: ('A' for Active; 'I' for Inactive)
REMARK    1  A    between atoms: C_2  and  C_4
REMARK    2  A    between atoms: N_6  and  C_7
REMARK    3  A    between atoms: C_7  and  C_8
REMARK                            x       y       z     vdW  Elec       q    Type
REMARK                         _______ _______ _______ _____ _____    ______ ____
ROOT
ATOM      1  C   UNL     1       5.285   6.230 -10.468  0.00  0.00    +0.252 C 
ATOM      2  N   UNL     1       6.570   5.666 -10.653  0.00  0.00    -0.192 NA
ATOM      3  O   UNL     1       5.014   7.385 -10.766  0.00  0.00    -0.272 OA
ENDROOT
BRANCH   1   5
ATOM      4  C   UNL     1       5.215   5.159  -8.344  0.00  0.00    +0.022 C 
ATOM      5  C   UNL     1       4.335   5.300  -9.661  0.00  0.00    +0.136 C 
ATOM      6  S   UNL     1       3.270   6.734  -8.975  0.00  0.00    -0.073 S 
ENDBRANCH   1   5
BRANCH   2   7
ATOM      7  C   UNL     1       7.660   6.444 -11.181  0.00  0.00    +0.228 C 
BRANCH   7   8
ATOM      8  C   UNL     1       8.430   5.651 -12.178  0.00  0.00    +0.387 C 
ATOM      9  O   UNL     1       7.781   4.609 -12.800  0.00  0.00    -0.244 OA
ATOM     10  O   UNL     1       9.629   5.964 -12.348  0.00  0.00    -0.244 OA
ENDBRANCH   7   8
ENDBRANCH   2   7
TORSDOF 3
ENDMDL
MODEL 2
REMARK VINA RESULT:      -4.3      2.760      4.386
REMARK  Name = 
REMARK  3 active torsions:
REMARK  status: ('A' for Active; 'I' for Inactive)
REMARK    1  A    between atoms: C_2  and  C_4
REMARK    2  A    between atoms: N_6  and  C_7
REMARK    3  A    between atoms: C_7  and  C_8
REMARK                            x       y       z     vdW  Elec       q    Type
REMARK                         _______ _______ _______ _____ _____    ______ ____
ROOT
ATOM      1  C   UNL     1       7.081   5.613 -12.258  0.00  0.00    +0.252 C 
ATOM      2  N   UNL     1       5.718   5.910 -12.499  0.00  0.00    -0.192 NA
ATOM      3  O   UNL     1       7.624   4.594 -12.663  0.00  0.00    -0.272 OA
ENDROOT
BRANCH   1   5
ATOM      4  C   UNL     1       6.665   7.772 -11.347  0.00  0.00    +0.022 C 
ATOM      5  C   UNL     1       7.740   6.603 -11.257  0.00  0.00    +0.136 C 
ATOM      6  S   UNL     1       6.956   5.797  -9.709  0.00  0.00    -0.073 S 
ENDBRANCH   1   5
BRANCH   2   7
ATOM      7  C   UNL     1       4.870   4.997 -13.220  0.00  0.00    +0.228 C 
BRANCH   7   8
ATOM      8  C   UNL     1       3.533   5.607 -13.456  0.00  0.00    +0.387 C 
ATOM      9  O   UNL     1       2.862   6.113 -12.365  0.00  0.00    -0.244 OA
ATOM     10  O   UNL     1       3.094   5.577 -14.627  0.00  0.00    -0.244 OA
ENDBRANCH   7   8
ENDBRANCH   2   7
TORSDOF 3
ENDMDL
MODEL 3
REMARK VINA RESULT:      -4.3      3.395      4.001
REMARK  Name = 
REMARK  3 active torsions:
REMARK  status: ('A' for Active; 'I' for Inactive)
REMARK    1  A    between atoms: C_2  and  C_4
REMARK    2  A    between atoms: N_6  and  C_7
REMARK    3  A    between atoms: C_7  and  C_8
REMARK                            x       y       z     vdW  Elec       q    Type
REMARK                         _______ _______ _______ _____ _____    ______ ____
ROOT
ATOM      1  C   UNL     1       6.908   5.569 -12.554  0.00  0.00    +0.252 C 
ATOM      2  N   UNL     1       6.358   6.489 -13.479  0.00  0.00    -0.192 NA
ATOM      3  O   UNL     1       7.639   4.646 -12.885  0.00  0.00    -0.272 OA
ENDROOT
BRANCH   1   5
ATOM      4  C   UNL     1       7.682   5.719 -10.309  0.00  0.00    +0.022 C 
ATOM      5  C   UNL     1       6.317   5.733 -11.125  0.00  0.00    +0.136 C 
ATOM      6  S   UNL     1       6.220   7.642 -11.222  0.00  0.00    -0.073 S 
ENDBRANCH   1   5
BRANCH   2   7
ATOM      7  C   UNL     1       6.605   6.367 -14.892  0.00  0.00    +0.228 C 
BRANCH   7   8
ATOM      8  C   UNL     1       5.724   7.293 -15.655  0.00  0.00    +0.387 C 
ATOM      9  O   UNL     1       4.517   6.802 -16.099  0.00  0.00    -0.244 OA
ATOM     10  O   UNL     1       6.165   8.442 -15.876  0.00  0.00    -0.244 OA
ENDBRANCH   7   8
ENDBRANCH   2   7
TORSDOF 3
ENDMDL
MODEL 4
REMARK VINA RESULT:      -4.2      6.538      7.825
REMARK  Name = 
REMARK  3 active torsions:
REMARK  status: ('A' for Active; 'I' for Inactive)
REMARK    1  A    between atoms: C_2  and  C_4
REMARK    2  A    between atoms: N_6  and  C_7
REMARK    3  A    between atoms: C_7  and  C_8
REMARK                            x       y       z     vdW  Elec       q    Type
REMARK                         _______ _______ _______ _____ _____    ______ ____
ROOT
ATOM      1  C   UNL     1       0.068   5.792  -5.087  0.00  0.00    +0.252 C 
ATOM      2  N   UNL     1       0.283   6.465  -6.314  0.00  0.00    -0.192 NA
ATOM      3  O   UNL     1       0.863   4.989  -4.617  0.00  0.00    -0.272 OA
ENDROOT
BRANCH   1   5
ATOM      4  C   UNL     1      -1.418   7.605  -4.673  0.00  0.00    +0.022 C 
ATOM      5  C   UNL     1      -1.362   6.023  -4.522  0.00  0.00    +0.136 C 
ATOM      6  S   UNL     1      -2.238   5.682  -6.188  0.00  0.00    -0.073 S 
ENDBRANCH   1   5
BRANCH   2   7
ATOM      7  C   UNL     1       1.456   6.212  -7.110  0.00  0.00    +0.228 C 
BRANCH   7   8
ATOM      8  C   UNL     1       2.365   7.390  -7.085  0.00  0.00    +0.387 C 
ATOM      9  O   UNL     1       3.355   7.410  -6.129  0.00  0.00    -0.244 OA
ATOM     10  O   UNL     1       2.134   8.302  -7.909  0.00  0.00    -0.244 OA
ENDBRANCH   7   8
ENDBRANCH   2   7
TORSDOF 3
ENDMDL
MODEL 5
REMARK VINA RESULT:      -4.2      8.667     10.878
REMARK  Name = 
REMARK  3 active torsions:
REMARK  status: ('A' for Active; 'I' for Inactive)
REMARK    1  A    between atoms: C_2  and  C_4
REMARK    2  A    between atoms: N_6  and  C_7
REMARK    3  A    between atoms: C_7  and  C_8
REMARK                            x       y       z     vdW  Elec       q    Type
REMARK                         _______ _______ _______ _____ _____    ______ ____
ROOT
ATOM      1  C   UNL     1      -0.260   5.773  -4.889  0.00  0.00    +0.252 C 
ATOM      2  N   UNL     1      -1.667   5.904  -4.814  0.00  0.00    -0.192 NA
ATOM      3  O   UNL     1       0.506   6.361  -4.138  0.00  0.00    -0.272 OA
ENDROOT
BRANCH   1   5
ATOM      4  C   UNL     1      -1.061   5.264  -7.071  0.00  0.00    +0.022 C 
ATOM      5  C   UNL     1       0.201   4.981  -6.145  0.00  0.00    +0.136 C 
ATOM      6  S   UNL     1       1.236   6.423  -6.859  0.00  0.00    -0.073 S 
ENDBRANCH   1   5
BRANCH   2   7
ATOM      7  C   UNL     1      -2.288   6.779  -3.854  0.00  0.00    +0.228 C 
BRANCH   7   8
ATOM      8  C   UNL     1      -3.136   6.000  -2.912  0.00  0.00    +0.387 C 
ATOM      9  O   UNL     1      -2.825   4.672  -2.725  0.00  0.00    -0.244 OA
ATOM     10  O   UNL     1      -4.101   6.599  -2.388  0.00  0.00    -0.244 OA
ENDBRANCH   7   8
ENDBRANCH   2   7
TORSDOF 3
ENDMDL
MODEL 6
REMARK VINA RESULT:      -4.2     11.370     12.294
REMARK  Name = 
REMARK  3 active torsions:
REMARK  status: ('A' for Active; 'I' for Inactive)
REMARK    1  A    between atoms: C_2  and  C_4
REMARK    2  A    between atoms: N_6  and  C_7
REMARK    3  A    between atoms: C_7  and  C_8
REMARK                            x       y       z     vdW  Elec       q    Type
REMARK                         _______ _______ _______ _____ _____    ______ ____
ROOT
ATOM      1  C   UNL     1      -2.557   5.771  -3.222  0.00  0.00    +0.252 C 
ATOM      2  N   UNL     1      -2.431   6.976  -2.491  0.00  0.00    -0.192 NA
ATOM      3  O   UNL     1      -2.740   4.684  -2.692  0.00  0.00    -0.272 OA
ENDROOT
BRANCH   1   5
ATOM      4  C   UNL     1      -2.208   7.540  -4.775  0.00  0.00    +0.022 C 
ATOM      5  C   UNL     1      -2.229   5.951  -4.732  0.00  0.00    +0.136 C 
ATOM      6  S   UNL     1      -0.338   5.783  -4.495  0.00  0.00    -0.073 S 
ENDBRANCH   1   5
BRANCH   2   7
ATOM      7  C   UNL     1      -2.478   6.986  -1.052  0.00  0.00    +0.228 C 
BRANCH   7   8
ATOM      8  C   UNL     1      -1.227   7.571  -0.496  0.00  0.00    +0.387 C 
ATOM      9  O   UNL     1      -1.322   8.787   0.143  0.00  0.00    -0.244 OA
ATOM     10  O   UNL     1      -0.169   6.933  -0.687  0.00  0.00    -0.244 OA
ENDBRANCH   7   8
ENDBRANCH   2   7
TORSDOF 3
ENDMDL
MODEL 7
REMARK VINA RESULT:      -4.1     10.304     10.957
REMARK  Name = 
REMARK  3 active torsions:
REMARK  status: ('A' for Active; 'I' for Inactive)
REMARK    1  A    between atoms: C_2  and  C_4
REMARK    2  A    between atoms: N_6  and  C_7
REMARK    3  A    between atoms: C_7  and  C_8
REMARK                            x       y       z     vdW  Elec       q    Type
REMARK                         _______ _______ _______ _____ _____    ______ ____
ROOT
ATOM      1  C   UNL     1      -2.004   5.439  -3.232  0.00  0.00    +0.252 C 
ATOM      2  N   UNL     1      -0.744   5.849  -2.733  0.00  0.00    -0.192 NA
ATOM      3  O   UNL     1      -2.770   4.721  -2.604  0.00  0.00    -0.272 OA
ENDROOT
BRANCH   1   5
ATOM      4  C   UNL     1      -2.139   7.402  -4.571  0.00  0.00    +0.022 C 
ATOM      5  C   UNL     1      -2.208   5.821  -4.726  0.00  0.00    +0.136 C 
ATOM      6  S   UNL     1      -0.360   5.635  -5.182  0.00  0.00    -0.073 S 
ENDBRANCH   1   5
BRANCH   2   7
ATOM      7  C   UNL     1      -0.269   5.407  -1.448  0.00  0.00    +0.228 C 
BRANCH   7   8
ATOM      8  C   UNL     1       1.219   5.358  -1.433  0.00  0.00    +0.387 C 
ATOM      9  O   UNL     1       1.892   6.187  -2.302  0.00  0.00    -0.244 OA
ATOM     10  O   UNL     1       1.751   4.532  -0.660  0.00  0.00    -0.244 OA
ENDBRANCH   7   8
ENDBRANCH   2   7
TORSDOF 3
ENDMDL
MODEL 8
REMARK VINA RESULT:      -4.0      9.228     11.058
REMARK  Name = 
REMARK  3 active torsions:
REMARK  status: ('A' for Active; 'I' for Inactive)
REMARK    1  A    between atoms: C_2  and  C_4
REMARK    2  A    between atoms: N_6  and  C_7
REMARK    3  A    between atoms: C_7  and  C_8
REMARK                            x       y       z     vdW  Elec       q    Type
REMARK                         _______ _______ _______ _____ _____    ______ ____
ROOT
ATOM      1  C   UNL     1      -0.829   6.941  -4.822  0.00  0.00    +0.252 C 
ATOM      2  N   UNL     1      -1.400   5.685  -4.509  0.00  0.00    -0.192 NA
ATOM      3  O   UNL     1      -1.472   7.982  -4.840  0.00  0.00    -0.272 OA
ENDROOT
BRANCH   1   5
ATOM      4  C   UNL     1       1.337   6.459  -3.960  0.00  0.00    +0.022 C 
ATOM      5  C   UNL     1       0.633   6.821  -5.339  0.00  0.00    +0.136 C 
ATOM      6  S   UNL     1       0.446   4.999  -5.894  0.00  0.00    -0.073 S 
ENDBRANCH   1   5
BRANCH   2   7
ATOM      7  C   UNL     1      -2.805   5.553  -4.222  0.00  0.00    +0.228 C 
BRANCH   7   8
ATOM      8  C   UNL     1      -3.057   5.729  -2.766  0.00  0.00    +0.387 C 
ATOM      9  O   UNL     1      -2.423   4.866  -1.901  0.00  0.00    -0.244 OA
ATOM     10  O   UNL     1      -3.864   6.625  -2.435  0.00  0.00    -0.244 OA
ENDBRANCH   7   8
ENDBRANCH   2   7
TORSDOF 3
ENDMDL
MODEL 9
REMARK VINA RESULT:      -4.0      7.578      9.134
REMARK  Name = 
REMARK  3 active torsions:
REMARK  status: ('A' for Active; 'I' for Inactive)
REMARK    1  A    between atoms: C_2  and  C_4
REMARK    2  A    between atoms: N_6  and  C_7
REMARK    3  A    between atoms: C_7  and  C_8
REMARK                            x       y       z     vdW  Elec       q    Type
REMARK                         _______ _______ _______ _____ _____    ______ ____
ROOT
ATOM      1  C   UNL     1      -1.211   5.796  -3.740  0.00  0.00    +0.252 C 
ATOM      2  N   UNL     1      -0.054   5.999  -4.528  0.00  0.00    -0.192 NA
ATOM      3  O   UNL     1      -1.225   5.084  -2.745  0.00  0.00    -0.272 OA
ENDROOT
BRANCH   1   5
ATOM      4  C   UNL     1      -1.940   7.859  -4.676  0.00  0.00    +0.022 C 
ATOM      5  C   UNL     1      -2.491   6.395  -4.389  0.00  0.00    +0.136 C 
ATOM      6  S   UNL     1      -2.090   5.739  -6.141  0.00  0.00    -0.073 S 
ENDBRANCH   1   5
BRANCH   2   7
ATOM      7  C   UNL     1       1.188   5.341  -4.219  0.00  0.00    +0.228 C 
BRANCH   7   8
ATOM      8  C   UNL     1       1.765   4.719  -5.441  0.00  0.00    +0.387 C 
ATOM      9  O   UNL     1       2.977   5.196  -5.888  0.00  0.00    -0.244 OA
ATOM     10  O   UNL     1       1.084   3.833  -6.003  0.00  0.00    -0.244 OA
ENDBRANCH   7   8
ENDBRANCH   2   7
TORSDOF 3
ENDMDL
