MODEL 1
REMARK VINA RESULT:      -3.2      0.000      0.000
REMARK  Name = 
REMARK  2 active torsions:
REMARK  status: ('A' for Active; 'I' for Inactive)
REMARK    1  A    between atoms: N_2  and  C_5
REMARK    2  A    between atoms: C_5  and  C_6
REMARK                            x       y       z     vdW  Elec       q    Type
REMARK                         _______ _______ _______ _____ _____    ______ ____
ROOT
ATOM      1  C   UNL     1      -2.211   7.463  -4.784  0.00  0.00    +0.171 C 
ATOM      2  N   UNL     1      -2.062   6.026  -4.919  0.00  0.00    +0.313 N 
ATOM      3  C   UNL     1      -0.673   5.713  -4.682  0.00  0.00    +0.171 C 
ATOM      4  C   UNL     1      -2.368   5.699  -6.303  0.00  0.00    +0.171 C 
ENDROOT
BRANCH   2   5
ATOM      5  C   UNL     1      -2.940   5.275  -4.066  0.00  0.00    +0.145 C 
BRANCH   5   6
ATOM      6  C   UNL     1      -3.057   5.857  -2.690  0.00  0.00    +0.243 C 
ATOM      7  O   UNL     1      -2.515   5.021  -1.701  0.00  0.00    -0.214 OA
ENDBRANCH   5   6
ENDBRANCH   2   5
TORSDOF 2
ENDMDL
MODEL 2
REMARK VINA RESULT:      -3.2      0.069      1.512
REMARK  Name = 
REMARK  2 active torsions:
REMARK  status: ('A' for Active; 'I' for Inactive)
REMARK    1  A    between atoms: N_2  and  C_5
REMARK    2  A    between atoms: C_5  and  C_6
REMARK                            x       y       z     vdW  Elec       q    Type
REMARK                         _______ _______ _______ _____ _____    ______ ____
ROOT
ATOM      1  C   UNL     1      -0.670   5.717  -4.637  0.00  0.00    +0.171 C 
ATOM      2  N   UNL     1      -2.074   5.962  -4.913  0.00  0.00    +0.313 N 
ATOM      3  C   UNL     1      -2.306   5.628  -6.297  0.00  0.00    +0.171 C 
ATOM      4  C   UNL     1      -2.291   7.391  -4.751  0.00  0.00    +0.171 C 
ENDROOT
BRANCH   2   5
ATOM      5  C   UNL     1      -2.963   5.261  -4.029  0.00  0.00    +0.145 C 
BRANCH   5   6
ATOM      6  C   UNL     1      -3.031   5.874  -2.663  0.00  0.00    +0.243 C 
ATOM      7  O   UNL     1      -2.504   5.036  -1.668  0.00  0.00    -0.214 OA
ENDBRANCH   5   6
ENDBRANCH   2   5
TORSDOF 2
ENDMDL
MODEL 3
REMARK VINA RESULT:      -3.2     10.631     11.625
REMARK  Name = 
REMARK  2 active torsions:
REMARK  status: ('A' for Active; 'I' for Inactive)
REMARK    1  A    between atoms: N_2  and  C_5
REMARK    2  A    between atoms: C_5  and  C_6
REMARK                            x       y       z     vdW  Elec       q    Type
REMARK                         _______ _______ _______ _____ _____    ______ ____
ROOT
ATOM      1  C   UNL     1       6.496   7.751 -11.352  0.00  0.00    +0.171 C 
ATOM      2  N   UNL     1       5.842   6.526 -10.931  0.00  0.00    +0.313 N 
ATOM      3  C   UNL     1       4.542   6.887 -10.421  0.00  0.00    +0.171 C 
ATOM      4  C   UNL     1       6.625   5.988  -9.829  0.00  0.00    +0.171 C 
ENDROOT
BRANCH   2   5
ATOM      5  C   UNL     1       5.763   5.532 -11.964  0.00  0.00    +0.145 C 
BRANCH   5   6
ATOM      6  C   UNL     1       6.879   5.636 -12.960  0.00  0.00    +0.243 C 
ATOM      7  O   UNL     1       7.817   4.600 -12.830  0.00  0.00    -0.214 OA
ENDBRANCH   5   6
ENDBRANCH   2   5
TORSDOF 2
ENDMDL
MODEL 4
REMARK VINA RESULT:      -3.1     10.272     11.257
REMARK  Name = 
REMARK  2 active torsions:
REMARK  status: ('A' for Active; 'I' for Inactive)
REMARK    1  A    between atoms: N_2  and  C_5
REMARK    2  A    between atoms: C_5  and  C_6
REMARK                            x       y       z     vdW  Elec       q    Type
REMARK                         _______ _______ _______ _____ _____    ______ ____
ROOT
ATOM      1  C   UNL     1       4.319   5.034 -10.076  0.00  0.00    +0.171 C 
ATOM      2  N   UNL     1       5.413   5.831 -10.600  0.00  0.00    +0.313 N 
ATOM      3  C   UNL     1       6.487   5.772  -9.638  0.00  0.00    +0.171 C 
ATOM      4  C   UNL     1       4.940   7.205 -10.663  0.00  0.00    +0.171 C 
ENDROOT
BRANCH   2   5
ATOM      5  C   UNL     1       5.838   5.432 -11.912  0.00  0.00    +0.145 C 
BRANCH   5   6
ATOM      6  C   UNL     1       7.329   5.420 -12.065  0.00  0.00    +0.243 C 
ATOM      7  O   UNL     1       7.754   4.672 -13.174  0.00  0.00    -0.214 OA
ENDBRANCH   5   6
ENDBRANCH   2   5
TORSDOF 2
ENDMDL
MODEL 5
REMARK VINA RESULT:      -3.1      1.404      2.146
REMARK  Name = 
REMARK  2 active torsions:
REMARK  status: ('A' for Active; 'I' for Inactive)
REMARK    1  A    between atoms: N_2  and  C_5
REMARK    2  A    between atoms: C_5  and  C_6
REMARK                            x       y       z     vdW  Elec       q    Type
REMARK                         _______ _______ _______ _____ _____    ______ ____
ROOT
ATOM      1  C   UNL     1      -1.265   5.440  -6.148  0.00  0.00    +0.171 C 
ATOM      2  N   UNL     1      -0.333   5.756  -5.081  0.00  0.00    +0.313 N 
ATOM      3  C   UNL     1       0.097   7.119  -5.275  0.00  0.00    +0.171 C 
ATOM      4  C   UNL     1       0.822   4.889  -5.262  0.00  0.00    +0.171 C 
ENDROOT
BRANCH   2   5
ATOM      5  C   UNL     1      -0.869   5.537  -3.767  0.00  0.00    +0.145 C 
BRANCH   5   6
ATOM      6  C   UNL     1      -2.367   5.488  -3.749  0.00  0.00    +0.243 C 
ATOM      7  O   UNL     1      -2.868   4.671  -2.723  0.00  0.00    -0.214 OA
ENDBRANCH   5   6
ENDBRANCH   2   5
TORSDOF 2
ENDMDL
MODEL 6
REMARK VINA RESULT:      -3.0      5.710      6.472
REMARK  Name = 
REMARK  2 active torsions:
REMARK  status: ('A' for Active; 'I' for Inactive)
REMARK    1  A    between atoms: N_2  and  C_5
REMARK    2  A    between atoms: C_5  and  C_6
REMARK                            x       y       z     vdW  Elec       q    Type
REMARK                         _______ _______ _______ _____ _____    ______ ____
ROOT
ATOM      1  C   UNL     1       2.001   3.837  -6.409  0.00  0.00    +0.171 C 
ATOM      2  N   UNL     1       2.470   4.805  -7.384  0.00  0.00    +0.313 N 
ATOM      3  C   UNL     1       2.695   4.096  -8.620  0.00  0.00    +0.171 C 
ATOM      4  C   UNL     1       3.752   5.296  -6.905  0.00  0.00    +0.171 C 
ENDROOT
BRANCH   2   5
ATOM      5  C   UNL     1       1.586   5.924  -7.553  0.00  0.00    +0.145 C 
BRANCH   5   6
ATOM      6  C   UNL     1       2.161   6.994  -8.432  0.00  0.00    +0.243 C 
ATOM      7  O   UNL     1       2.114   8.265  -7.837  0.00  0.00    -0.214 OA
ENDBRANCH   5   6
ENDBRANCH   2   5
TORSDOF 2
ENDMDL
MODEL 7
REMARK VINA RESULT:      -2.8      5.403      6.356
REMARK  Name = 
REMARK  2 active torsions:
REMARK  status: ('A' for Active; 'I' for Inactive)
REMARK    1  A    between atoms: N_2  and  C_5
REMARK    2  A    between atoms: C_5  and  C_6
REMARK                            x       y       z     vdW  Elec       q    Type
REMARK                         _______ _______ _______ _____ _____    ______ ____
ROOT
ATOM      1  C   UNL     1       4.156   7.497  -4.436  0.00  0.00    +0.171 C 
ATOM      2  N   UNL     1       3.313   6.519  -5.099  0.00  0.00    +0.313 N 
ATOM      3  C   UNL     1       2.002   6.607  -4.505  0.00  0.00    +0.171 C 
ATOM      4  C   UNL     1       3.862   5.209  -4.786  0.00  0.00    +0.171 C 
ENDROOT
BRANCH   2   5
ATOM      5  C   UNL     1       3.273   6.669  -6.527  0.00  0.00    +0.145 C 
BRANCH   5   6
ATOM      6  C   UNL     1       1.982   7.252  -7.017  0.00  0.00    +0.243 C 
ATOM      7  O   UNL     1       2.173   8.360  -7.857  0.00  0.00    -0.214 OA
ENDBRANCH   5   6
ENDBRANCH   2   5
TORSDOF 2
ENDMDL
MODEL 8
REMARK VINA RESULT:      -2.7      6.007      6.920
REMARK  Name = 
REMARK  2 active torsions:
REMARK  status: ('A' for Active; 'I' for Inactive)
REMARK    1  A    between atoms: N_2  and  C_5
REMARK    2  A    between atoms: C_5  and  C_6
REMARK                            x       y       z     vdW  Elec       q    Type
REMARK                         _______ _______ _______ _____ _____    ______ ____
ROOT
ATOM      1  C   UNL     1       4.526   5.336  -3.813  0.00  0.00    +0.171 C 
ATOM      2  N   UNL     1       4.290   6.611  -4.464  0.00  0.00    +0.313 N 
ATOM      3  C   UNL     1       5.447   7.438  -4.222  0.00  0.00    +0.171 C 
ATOM      4  C   UNL     1       3.153   7.221  -3.794  0.00  0.00    +0.171 C 
ENDROOT
BRANCH   2   5
ATOM      5  C   UNL     1       3.989   6.496  -5.863  0.00  0.00    +0.145 C 
BRANCH   5   6
ATOM      6  C   UNL     1       2.606   6.965  -6.203  0.00  0.00    +0.243 C 
ATOM      7  O   UNL     1       2.584   7.814  -7.321  0.00  0.00    -0.214 OA
ENDBRANCH   5   6
ENDBRANCH   2   5
TORSDOF 2
ENDMDL
MODEL 9
REMARK VINA RESULT:      -2.7      5.193      6.201
REMARK  Name = 
REMARK  2 active torsions:
REMARK  status: ('A' for Active; 'I' for Inactive)
REMARK    1  A    between atoms: N_2  and  C_5
REMARK    2  A    between atoms: C_5  and  C_6
REMARK                            x       y       z     vdW  Elec       q    Type
REMARK                         _______ _______ _______ _____ _____    ______ ____
ROOT
ATOM      1  C   UNL     1       1.727   6.554  -6.742  0.00  0.00    +0.171 C 
ATOM      2  N   UNL     1       1.184   5.311  -7.259  0.00  0.00    +0.313 N 
ATOM      3  C   UNL     1      -0.253   5.438  -7.261  0.00  0.00    +0.171 C 
ATOM      4  C   UNL     1       1.542   4.268  -6.310  0.00  0.00    +0.171 C 
ENDROOT
BRANCH   2   5
ATOM      5  C   UNL     1       1.699   4.952  -8.550  0.00  0.00    +0.145 C 
BRANCH   5   6
ATOM      6  C   UNL     1       2.637   3.783  -8.500  0.00  0.00    +0.243 C 
ATOM      7  O   UNL     1       3.893   4.074  -9.056  0.00  0.00    -0.214 OA
ENDBRANCH   5   6
ENDBRANCH   2   5
TORSDOF 2
ENDMDL
