MODEL 1
REMARK VINA RESULT:     -11.1      0.000      0.000
REMARK  Name = 
REMARK  9 active torsions:
REMARK  status: ('A' for Active; 'I' for Inactive)
REMARK    1  A    between atoms: C_4  and  C_5
REMARK    2  A    between atoms: C_8  and  N_9
REMARK    3  A    between atoms: N_10  and  C_11
REMARK    4  A    between atoms: C_18  and  S_19
REMARK    5  A    between atoms: C_26  and  S_27
REMARK    6  A    between atoms: C_36  and  N_37
REMARK    7  A    between atoms: N_38  and  C_39
REMARK    8  A    between atoms: C_46  and  S_47
REMARK    9  A    between atoms: C_54  and  S_55
REMARK                            x       y       z     vdW  Elec       q    Type
REMARK                         _______ _______ _______ _____ _____    ______ ____
ROOT
ATOM      1  C   UNL     1       3.203   5.727 -13.810  0.00  0.00    +0.033 C 
ATOM      2  C   UNL     1       2.136   6.282 -12.926  0.00  0.00    -0.002 A 
ATOM      3  C   UNL     1       1.033   6.904 -13.497  0.00  0.00    +0.099 A 
ATOM      4  C   UNL     1       0.128   7.452 -12.596  0.00  0.00    +0.021 A 
ATOM      5  C   UNL     1       0.059   7.019 -11.278  0.00  0.00    +0.002 A 
ATOM      6  C   UNL     1       1.238   6.563 -10.706  0.00  0.00    -0.000 A 
ATOM      7  C   UNL     1       2.226   6.106 -11.553  0.00  0.00    -0.003 A 
ENDROOT
BRANCH   6   8
ATOM      8  C   UNL     1       1.098   5.901  -9.403  0.00  0.00    -0.000 A 
ATOM      9  C   UNL     1      -0.140   5.489  -8.926  0.00  0.00    -0.003 A 
ATOM     10  C   UNL     1      -0.359   5.533  -7.557  0.00  0.00    -0.002 A 
ATOM     11  C   UNL     1      -1.740   5.392  -7.054  0.00  0.00    +0.033 C 
ATOM     12  C   UNL     1       0.666   5.730  -6.654  0.00  0.00    +0.099 A 
ATOM     13  C   UNL     1       1.958   5.610  -7.151  0.00  0.00    +0.021 A 
ATOM     14  C   UNL     1       2.146   5.842  -8.502  0.00  0.00    +0.002 A 
BRANCH  12  15
ATOM     15  N   UNL     1       0.458   6.060  -5.295  0.00  0.00    -0.148 NA
ATOM     16  N   UNL     1       0.277   5.222  -4.373  0.00  0.00    -0.143 NA
BRANCH  16  17
ATOM     17  C   UNL     1       0.533   5.609  -3.030  0.00  0.00    +0.161 A 
ATOM     18  C   UNL     1      -0.446   6.321  -2.346  0.00  0.00    +0.159 A 
ATOM     19  C   UNL     1      -0.130   6.869  -1.110  0.00  0.00    +0.023 A 
ATOM     20  C   UNL     1       1.151   6.822  -0.586  0.00  0.00    +0.007 A 
ATOM     21  C   UNL     1       2.090   6.048  -1.218  0.00  0.00    +0.057 A 
ATOM     22  C   UNL     1       3.384   6.029  -0.715  0.00  0.00    +0.094 A 
ATOM     23  C   UNL     1       3.774   6.910   0.279  0.00  0.00    +0.039 A 
ATOM     24  C   UNL     1       2.882   7.853   0.771  0.00  0.00    +0.138 A 
ATOM     25  N   UNL     1       4.366   5.244  -1.382  0.00  0.00    -0.128 NA
ATOM     26  C   UNL     1       1.545   7.636   0.468  0.00  0.00    +0.021 A 
ATOM     27  C   UNL     1       1.767   5.466  -2.428  0.00  0.00    +0.217 A 
ATOM     28  O   UNL     1       2.803   5.014  -3.230  0.00  0.00    -0.285 OA
BRANCH  24  29
ATOM     29  S   UNL     1       3.454   9.421   1.327  0.00  0.00    +0.141 S 
ATOM     30  O   UNL     1       2.491   9.895   2.612  0.00  0.00    -0.043 OA
ATOM     31  O   UNL     1       3.383  10.370   0.178  0.00  0.00    -0.140 OA
ATOM     32  O   UNL     1       4.866   9.284   1.839  0.00  0.00    -0.140 OA
ENDBRANCH  24  29
BRANCH  18  33
ATOM     33  S   UNL     1      -2.125   6.090  -2.747  0.00  0.00    +0.142 S 
ATOM     34  O   UNL     1      -2.550   6.930  -4.134  0.00  0.00    -0.043 OA
ATOM     35  O   UNL     1      -2.982   6.582  -1.607  0.00  0.00    -0.140 OA
ATOM     36  O   UNL     1      -2.443   4.625  -2.914  0.00  0.00    -0.140 OA
ENDBRANCH  18  33
ENDBRANCH  16  17
ENDBRANCH  12  15
ENDBRANCH   6   8
BRANCH   3  37
ATOM     37  N   UNL     1       1.291   7.612 -14.715  0.00  0.00    -0.148 NA
ATOM     38  N   UNL     1       0.353   8.322 -15.160  0.00  0.00    -0.143 NA
BRANCH  38  39
ATOM     39  C   UNL     1       0.491   9.357 -16.110  0.00  0.00    +0.161 A 
ATOM     40  C   UNL     1       0.007   9.131 -17.391  0.00  0.00    +0.159 A 
ATOM     41  C   UNL     1      -0.572  10.140 -18.149  0.00  0.00    +0.023 A 
ATOM     42  C   UNL     1      -0.653  11.427 -17.631  0.00  0.00    +0.007 A 
ATOM     43  C   UNL     1      -0.059  11.704 -16.406  0.00  0.00    +0.057 A 
ATOM     44  C   UNL     1      -0.154  12.969 -15.839  0.00  0.00    +0.094 A 
ATOM     45  C   UNL     1      -1.236  13.739 -16.240  0.00  0.00    +0.039 A 
ATOM     46  C   UNL     1      -1.892  13.486 -17.427  0.00  0.00    +0.138 A 
ATOM     47  N   UNL     1       0.243  13.089 -14.469  0.00  0.00    -0.128 NA
ATOM     48  C   UNL     1      -1.521  12.367 -18.159  0.00  0.00    +0.021 A 
ATOM     49  C   UNL     1       0.585  10.688 -15.723  0.00  0.00    +0.217 A 
ATOM     50  O   UNL     1       1.318  10.930 -14.563  0.00  0.00    -0.285 OA
BRANCH  46  51
ATOM     51  S   UNL     1      -3.398  14.334 -17.756  0.00  0.00    +0.141 S 
ATOM     52  O   UNL     1      -4.433  13.230 -18.494  0.00  0.00    -0.043 OA
ATOM     53  O   UNL     1      -3.164  15.486 -18.696  0.00  0.00    -0.140 OA
ATOM     54  O   UNL     1      -3.988  14.765 -16.455  0.00  0.00    -0.140 OA
ENDBRANCH  46  51
BRANCH  40  55
ATOM     55  S   UNL     1      -0.389   7.479 -17.850  0.00  0.00    +0.142 S 
ATOM     56  O   UNL     1      -0.726   6.540 -16.495  0.00  0.00    -0.043 OA
ATOM     57  O   UNL     1      -1.581   7.489 -18.750  0.00  0.00    -0.140 OA
ATOM     58  O   UNL     1       0.793   6.875 -18.566  0.00  0.00    -0.140 OA
ENDBRANCH  40  55
ENDBRANCH  38  39
ENDBRANCH   3  37
TORSDOF 9
ENDMDL
MODEL 2
REMARK VINA RESULT:     -10.0      5.023      7.039
REMARK  Name = 
REMARK  9 active torsions:
REMARK  status: ('A' for Active; 'I' for Inactive)
REMARK    1  A    between atoms: C_4  and  C_5
REMARK    2  A    between atoms: C_8  and  N_9
REMARK    3  A    between atoms: N_10  and  C_11
REMARK    4  A    between atoms: C_18  and  S_19
REMARK    5  A    between atoms: C_26  and  S_27
REMARK    6  A    between atoms: C_36  and  N_37
REMARK    7  A    between atoms: N_38  and  C_39
REMARK    8  A    between atoms: C_46  and  S_47
REMARK    9  A    between atoms: C_54  and  S_55
REMARK                            x       y       z     vdW  Elec       q    Type
REMARK                         _______ _______ _______ _____ _____    ______ ____
ROOT
ATOM      1  C   UNL     1       0.917   5.498  -7.868  0.00  0.00    +0.033 C 
ATOM      2  C   UNL     1       2.329   5.404  -7.395  0.00  0.00    -0.002 A 
ATOM      3  C   UNL     1       3.366   5.608  -8.297  0.00  0.00    +0.099 A 
ATOM      4  C   UNL     1       4.645   5.430  -7.782  0.00  0.00    +0.021 A 
ATOM      5  C   UNL     1       4.900   5.519  -6.420  0.00  0.00    +0.002 A 
ATOM      6  C   UNL     1       3.876   5.139  -5.564  0.00  0.00    -0.000 A 
ATOM      7  C   UNL     1       2.586   5.186  -6.049  0.00  0.00    -0.003 A 
ENDROOT
BRANCH   6   8
ATOM      8  C   UNL     1       4.083   5.456  -4.146  0.00  0.00    -0.000 A 
ATOM      9  C   UNL     1       3.318   4.863  -3.148  0.00  0.00    -0.003 A 
ATOM     10  C   UNL     1       3.031   5.610  -2.016  0.00  0.00    -0.002 A 
ATOM     11  C   UNL     1       1.987   5.124  -1.091  0.00  0.00    +0.033 C 
ATOM     12  C   UNL     1       3.668   6.803  -1.740  0.00  0.00    +0.099 A 
ATOM     13  C   UNL     1       4.798   7.088  -2.496  0.00  0.00    +0.021 A 
ATOM     14  C   UNL     1       4.892   6.505  -3.747  0.00  0.00    +0.002 A 
BRANCH  12  15
ATOM     15  N   UNL     1       3.217   7.723  -0.766  0.00  0.00    -0.148 NA
ATOM     16  N   UNL     1       3.105   7.469   0.463  0.00  0.00    -0.143 NA
BRANCH  16  17
ATOM     17  C   UNL     1       3.092   8.546   1.390  0.00  0.00    +0.161 A 
ATOM     18  C   UNL     1       1.891   9.205   1.626  0.00  0.00    +0.159 A 
ATOM     19  C   UNL     1       1.908  10.374   2.375  0.00  0.00    +0.023 A 
ATOM     20  C   UNL     1       3.088  10.960   2.804  0.00  0.00    +0.007 A 
ATOM     21  C   UNL     1       4.259  10.267   2.646  0.00  0.00    +0.057 A 
ATOM     22  C   UNL     1       5.446  10.869   3.041  0.00  0.00    +0.094 A 
ATOM     23  C   UNL     1       5.480  12.203   3.407  0.00  0.00    +0.039 A 
ATOM     24  C   UNL     1       4.327  12.975   3.355  0.00  0.00    +0.138 A 
ATOM     25  N   UNL     1       6.667  10.160   2.857  0.00  0.00    -0.128 NA
ATOM     26  C   UNL     1       3.135  12.273   3.256  0.00  0.00    +0.021 A 
ATOM     27  C   UNL     1       4.242   9.082   1.937  0.00  0.00    +0.217 A 
ATOM     28  O   UNL     1       5.446   8.589   1.461  0.00  0.00    -0.285 OA
BRANCH  24  29
ATOM     29  S   UNL     1       4.416  14.691   2.981  0.00  0.00    +0.141 S 
ATOM     30  O   UNL     1       4.611  14.849   1.325  0.00  0.00    -0.043 OA
ATOM     31  O   UNL     1       5.555  15.271   3.750  0.00  0.00    -0.140 OA
ATOM     32  O   UNL     1       3.111  15.351   3.352  0.00  0.00    -0.140 OA
ENDBRANCH  24  29
BRANCH  18  33
ATOM     33  S   UNL     1       0.384   8.347   1.462  0.00  0.00    +0.142 S 
ATOM     34  O   UNL     1      -0.169   8.368  -0.121  0.00  0.00    -0.043 OA
ATOM     35  O   UNL     1      -0.656   8.992   2.342  0.00  0.00    -0.140 OA
ATOM     36  O   UNL     1       0.521   6.922   1.940  0.00  0.00    -0.140 OA
ENDBRANCH  18  33
ENDBRANCH  16  17
ENDBRANCH  12  15
ENDBRANCH   6   8
BRANCH   3  37
ATOM     37  N   UNL     1       3.107   5.171  -9.636  0.00  0.00    -0.148 NA
ATOM     38  N   UNL     1       3.519   5.920 -10.559  0.00  0.00    -0.143 NA
BRANCH  38  39
ATOM     39  C   UNL     1       3.696   5.536 -11.906  0.00  0.00    +0.161 A 
ATOM     40  C   UNL     1       2.624   5.693 -12.772  0.00  0.00    +0.159 A 
ATOM     41  C   UNL     1       2.797   6.052 -14.103  0.00  0.00    +0.023 A 
ATOM     42  C   UNL     1       4.080   6.237 -14.602  0.00  0.00    +0.007 A 
ATOM     43  C   UNL     1       5.172   5.958 -13.788  0.00  0.00    +0.057 A 
ATOM     44  C   UNL     1       6.468   6.168 -14.240  0.00  0.00    +0.094 A 
ATOM     45  C   UNL     1       6.619   7.106 -15.252  0.00  0.00    +0.039 A 
ATOM     46  C   UNL     1       5.561   7.454 -16.066  0.00  0.00    +0.138 A 
ATOM     47  N   UNL     1       7.506   6.119 -13.256  0.00  0.00    -0.128 NA
ATOM     48  C   UNL     1       4.308   6.933 -15.777  0.00  0.00    +0.021 A 
ATOM     49  C   UNL     1       4.954   5.518 -12.495  0.00  0.00    +0.217 A 
ATOM     50  O   UNL     1       5.999   5.088 -11.678  0.00  0.00    -0.285 OA
BRANCH  46  51
ATOM     51  S   UNL     1       5.751   8.819 -17.160  0.00  0.00    +0.141 S 
ATOM     52  O   UNL     1       4.526   9.915 -16.796  0.00  0.00    -0.043 OA
ATOM     53  O   UNL     1       5.601   8.378 -18.590  0.00  0.00    -0.140 OA
ATOM     54  O   UNL     1       7.074   9.455 -16.891  0.00  0.00    -0.140 OA
ENDBRANCH  46  51
BRANCH  40  55
ATOM     55  S   UNL     1       1.034   5.991 -12.080  0.00  0.00    +0.142 S 
ATOM     56  O   UNL     1       0.393   4.584 -11.412  0.00  0.00    -0.043 OA
ATOM     57  O   UNL     1       1.145   7.033 -11.016  0.00  0.00    -0.140 OA
ATOM     58  O   UNL     1       0.107   6.464 -13.171  0.00  0.00    -0.140 OA
ENDBRANCH  40  55
ENDBRANCH  38  39
ENDBRANCH   3  37
TORSDOF 9
ENDMDL
MODEL 3
REMARK VINA RESULT:      -9.3      1.873      3.166
REMARK  Name = 
REMARK  9 active torsions:
REMARK  status: ('A' for Active; 'I' for Inactive)
REMARK    1  A    between atoms: C_4  and  C_5
REMARK    2  A    between atoms: C_8  and  N_9
REMARK    3  A    between atoms: N_10  and  C_11
REMARK    4  A    between atoms: C_18  and  S_19
REMARK    5  A    between atoms: C_26  and  S_27
REMARK    6  A    between atoms: C_36  and  N_37
REMARK    7  A    between atoms: N_38  and  C_39
REMARK    8  A    between atoms: C_46  and  S_47
REMARK    9  A    between atoms: C_54  and  S_55
REMARK                            x       y       z     vdW  Elec       q    Type
REMARK                         _______ _______ _______ _____ _____    ______ ____
ROOT
ATOM      1  C   UNL     1       3.219   5.757 -13.467  0.00  0.00    +0.033 C 
ATOM      2  C   UNL     1       2.139   6.303 -12.594  0.00  0.00    -0.002 A 
ATOM      3  C   UNL     1       1.102   7.030 -13.165  0.00  0.00    +0.099 A 
ATOM      4  C   UNL     1       0.182   7.559 -12.268  0.00  0.00    +0.021 A 
ATOM      5  C   UNL     1       0.021   7.030 -10.994  0.00  0.00    +0.002 A 
ATOM      6  C   UNL     1       1.142   6.464 -10.404  0.00  0.00    -0.000 A 
ATOM      7  C   UNL     1       2.147   6.017 -11.236  0.00  0.00    -0.003 A 
ENDROOT
BRANCH   6   8
ATOM      8  C   UNL     1       0.898   5.713  -9.167  0.00  0.00    -0.000 A 
ATOM      9  C   UNL     1      -0.388   5.384  -8.756  0.00  0.00    -0.003 A 
ATOM     10  C   UNL     1      -0.646   5.336  -7.394  0.00  0.00    -0.002 A 
ATOM     11  C   UNL     1      -2.050   5.289  -6.938  0.00  0.00    +0.033 C 
ATOM     12  C   UNL     1       0.364   5.358  -6.453  0.00  0.00    +0.099 A 
ATOM     13  C   UNL     1       1.654   5.154  -6.927  0.00  0.00    +0.021 A 
ATOM     14  C   UNL     1       1.906   5.479  -8.248  0.00  0.00    +0.002 A 
BRANCH  12  15
ATOM     15  N   UNL     1       0.145   5.593  -5.076  0.00  0.00    -0.148 NA
ATOM     16  N   UNL     1       1.033   5.519  -4.186  0.00  0.00    -0.143 NA
BRANCH  16  17
ATOM     17  C   UNL     1       0.830   6.199  -2.954  0.00  0.00    +0.161 A 
ATOM     18  C   UNL     1       1.866   6.219  -2.028  0.00  0.00    +0.159 A 
ATOM     19  C   UNL     1       1.610   6.707  -0.753  0.00  0.00    +0.023 A 
ATOM     20  C   UNL     1       0.340   7.075  -0.343  0.00  0.00    +0.007 A 
ATOM     21  C   UNL     1      -0.659   7.137  -1.279  0.00  0.00    +0.057 A 
ATOM     22  C   UNL     1      -1.941   7.469  -0.862  0.00  0.00    +0.094 A 
ATOM     23  C   UNL     1      -2.253   7.549   0.484  0.00  0.00    +0.039 A 
ATOM     24  C   UNL     1      -1.293   7.267   1.445  0.00  0.00    +0.138 A 
ATOM     25  N   UNL     1      -2.985   7.512  -1.830  0.00  0.00    -0.128 NA
ATOM     26  C   UNL     1       0.020   7.245   0.998  0.00  0.00    +0.021 A 
ATOM     27  C   UNL     1      -0.400   6.691  -2.560  0.00  0.00    +0.217 A 
ATOM     28  O   UNL     1      -1.478   6.403  -3.381  0.00  0.00    -0.285 OA
BRANCH  24  29
ATOM     29  S   UNL     1      -1.752   6.549   2.984  0.00  0.00    +0.141 S 
ATOM     30  O   UNL     1      -2.638   5.165   2.664  0.00  0.00    -0.043 OA
ATOM     31  O   UNL     1      -2.532   7.564   3.750  0.00  0.00    -0.140 OA
ATOM     32  O   UNL     1      -0.509   6.134   3.732  0.00  0.00    -0.140 OA
ENDBRANCH  24  29
BRANCH  18  33
ATOM     33  S   UNL     1       3.518   6.145  -2.573  0.00  0.00    +0.142 S 
ATOM     34  O   UNL     1       3.790   7.184  -3.860  0.00  0.00    -0.043 OA
ATOM     35  O   UNL     1       3.835   4.739  -3.016  0.00  0.00    -0.140 OA
ATOM     36  O   UNL     1       4.472   6.460  -1.447  0.00  0.00    -0.140 OA
ENDBRANCH  18  33
ENDBRANCH  16  17
ENDBRANCH  12  15
ENDBRANCH   6   8
BRANCH   3  37
ATOM     37  N   UNL     1       1.462   7.814 -14.309  0.00  0.00    -0.148 NA
ATOM     38  N   UNL     1       0.513   8.251 -15.009  0.00  0.00    -0.143 NA
BRANCH  38  39
ATOM     39  C   UNL     1       0.604   9.309 -15.940  0.00  0.00    +0.161 A 
ATOM     40  C   UNL     1       0.149   9.079 -17.230  0.00  0.00    +0.159 A 
ATOM     41  C   UNL     1      -0.477  10.067 -17.979  0.00  0.00    +0.023 A 
ATOM     42  C   UNL     1      -0.636  11.338 -17.439  0.00  0.00    +0.007 A 
ATOM     43  C   UNL     1      -0.073  11.626 -16.202  0.00  0.00    +0.057 A 
ATOM     44  C   UNL     1      -0.245  12.873 -15.616  0.00  0.00    +0.094 A 
ATOM     45  C   UNL     1      -1.364  13.590 -16.017  0.00  0.00    +0.039 A 
ATOM     46  C   UNL     1      -1.991  13.322 -17.216  0.00  0.00    +0.138 A 
ATOM     47  N   UNL     1       0.129  12.991 -14.239  0.00  0.00    -0.128 NA
ATOM     48  C   UNL     1      -1.549  12.238 -17.962  0.00  0.00    +0.021 A 
ATOM     49  C   UNL     1       0.619  10.636 -15.529  0.00  0.00    +0.217 A 
ATOM     50  O   UNL     1       1.325  10.898 -14.356  0.00  0.00    -0.285 OA
BRANCH  46  51
ATOM     51  S   UNL     1      -3.538  14.090 -17.549  0.00  0.00    +0.141 S 
ATOM     52  O   UNL     1      -4.031  14.839 -16.124  0.00  0.00    -0.043 OA
ATOM     53  O   UNL     1      -4.565  13.065 -17.943  0.00  0.00    -0.140 OA
ATOM     54  O   UNL     1      -3.329  15.128 -18.601  0.00  0.00    -0.140 OA
ENDBRANCH  46  51
BRANCH  40  55
ATOM     55  S   UNL     1      -0.149   7.416 -17.723  0.00  0.00    +0.142 S 
ATOM     56  O   UNL     1      -0.543   6.455 -16.398  0.00  0.00    -0.043 OA
ATOM     57  O   UNL     1      -1.275   7.386 -18.703  0.00  0.00    -0.140 OA
ATOM     58  O   UNL     1       1.102   6.863 -18.357  0.00  0.00    -0.140 OA
ENDBRANCH  40  55
ENDBRANCH  38  39
ENDBRANCH   3  37
TORSDOF 9
ENDMDL
MODEL 4
REMARK VINA RESULT:      -8.8      2.891     15.043
REMARK  Name = 
REMARK  9 active torsions:
REMARK  status: ('A' for Active; 'I' for Inactive)
REMARK    1  A    between atoms: C_4  and  C_5
REMARK    2  A    between atoms: C_8  and  N_9
REMARK    3  A    between atoms: N_10  and  C_11
REMARK    4  A    between atoms: C_18  and  S_19
REMARK    5  A    between atoms: C_26  and  S_27
REMARK    6  A    between atoms: C_36  and  N_37
REMARK    7  A    between atoms: N_38  and  C_39
REMARK    8  A    between atoms: C_46  and  S_47
REMARK    9  A    between atoms: C_54  and  S_55
REMARK                            x       y       z     vdW  Elec       q    Type
REMARK                         _______ _______ _______ _____ _____    ______ ____
ROOT
ATOM      1  C   UNL     1      -0.592   7.718  -4.925  0.00  0.00    +0.033 C 
ATOM      2  C   UNL     1       0.498   6.743  -5.226  0.00  0.00    -0.002 A 
ATOM      3  C   UNL     1       0.907   5.852  -4.241  0.00  0.00    +0.099 A 
ATOM      4  C   UNL     1       1.973   5.032  -4.588  0.00  0.00    +0.021 A 
ATOM      5  C   UNL     1       2.290   4.772  -5.916  0.00  0.00    +0.002 A 
ATOM      6  C   UNL     1       2.011   5.774  -6.834  0.00  0.00    -0.000 A 
ATOM      7  C   UNL     1       1.036   6.691  -6.503  0.00  0.00    -0.003 A 
ENDROOT
BRANCH   6   8
ATOM      8  C   UNL     1       2.138   5.394  -8.246  0.00  0.00    -0.000 A 
ATOM      9  C   UNL     1       3.357   5.002  -8.788  0.00  0.00    -0.003 A 
ATOM     10  C   UNL     1       3.614   5.319 -10.113  0.00  0.00    -0.002 A 
ATOM     11  C   UNL     1       4.994   5.187 -10.620  0.00  0.00    +0.033 C 
ATOM     12  C   UNL     1       2.628   5.779 -10.964  0.00  0.00    +0.099 A 
ATOM     13  C   UNL     1       1.319   5.652 -10.518  0.00  0.00    +0.021 A 
ATOM     14  C   UNL     1       1.113   5.606  -9.151  0.00  0.00    +0.002 A 
BRANCH  12  15
ATOM     15  N   UNL     1       2.894   6.374 -12.219  0.00  0.00    -0.148 NA
ATOM     16  N   UNL     1       3.036   5.739 -13.297  0.00  0.00    -0.143 NA
BRANCH  16  17
ATOM     17  C   UNL     1       2.844   6.422 -14.529  0.00  0.00    +0.161 A 
ATOM     18  C   UNL     1       3.916   7.116 -15.078  0.00  0.00    +0.159 A 
ATOM     19  C   UNL     1       3.685   7.942 -16.170  0.00  0.00    +0.023 A 
ATOM     20  C   UNL     1       2.412   8.178 -16.663  0.00  0.00    +0.007 A 
ATOM     21  C   UNL     1       1.372   7.428 -16.179  0.00  0.00    +0.057 A 
ATOM     22  C   UNL     1       0.091   7.689 -16.645  0.00  0.00    +0.094 A 
ATOM     23  C   UNL     1      -0.168   8.798 -17.432  0.00  0.00    +0.039 A 
ATOM     24  C   UNL     1       0.849   9.690 -17.744  0.00  0.00    +0.138 A 
ATOM     25  N   UNL     1      -0.994   6.927 -16.127  0.00  0.00    -0.128 NA
ATOM     26  C   UNL     1       2.141   9.235 -17.522  0.00  0.00    +0.021 A 
ATOM     27  C   UNL     1       1.604   6.574 -15.119  0.00  0.00    +0.217 A 
ATOM     28  O   UNL     1       0.512   6.115 -14.400  0.00  0.00    -0.285 OA
BRANCH  24  29
ATOM     29  S   UNL     1       0.503  11.401 -17.959  0.00  0.00    +0.141 S 
ATOM     30  O   UNL     1      -0.977  11.535 -18.732  0.00  0.00    -0.043 OA
ATOM     31  O   UNL     1       1.618  11.999 -18.750  0.00  0.00    -0.140 OA
ATOM     32  O   UNL     1       0.374  12.059 -16.608  0.00  0.00    -0.140 OA
ENDBRANCH  24  29
BRANCH  18  33
ATOM     33  S   UNL     1       5.544   6.582 -14.770  0.00  0.00    +0.142 S 
ATOM     34  O   UNL     1       5.572   5.068 -14.051  0.00  0.00    -0.043 OA
ATOM     35  O   UNL     1       6.226   7.563 -13.850  0.00  0.00    -0.140 OA
ATOM     36  O   UNL     1       6.354   6.562 -16.043  0.00  0.00    -0.140 OA
ENDBRANCH  18  33
ENDBRANCH  16  17
ENDBRANCH  12  15
ENDBRANCH   6   8
BRANCH   3  37
ATOM     37  N   UNL     1       0.842   6.351  -2.900  0.00  0.00    -0.148 NA
ATOM     38  N   UNL     1       1.334   5.616  -2.005  0.00  0.00    -0.143 NA
BRANCH  38  39
ATOM     39  C   UNL     1       1.700   6.040  -0.709  0.00  0.00    +0.161 A 
ATOM     40  C   UNL     1       3.018   5.864  -0.317  0.00  0.00    +0.159 A 
ATOM     41  C   UNL     1       3.674   6.777   0.500  0.00  0.00    +0.023 A 
ATOM     42  C   UNL     1       2.991   7.893   0.966  0.00  0.00    +0.007 A 
ATOM     43  C   UNL     1       1.634   8.022   0.693  0.00  0.00    +0.057 A 
ATOM     44  C   UNL     1       0.929   9.143   1.110  0.00  0.00    +0.094 A 
ATOM     45  C   UNL     1       1.675  10.295   1.317  0.00  0.00    +0.039 A 
ATOM     46  C   UNL     1       3.033  10.232   1.552  0.00  0.00    +0.138 A 
ATOM     47  N   UNL     1      -0.379   9.321   0.555  0.00  0.00    -0.128 NA
ATOM     48  C   UNL     1       3.661   8.998   1.461  0.00  0.00    +0.021 A 
ATOM     49  C   UNL     1       1.000   7.044  -0.051  0.00  0.00    +0.217 A 
ATOM     50  O   UNL     1      -0.381   7.042  -0.239  0.00  0.00    -0.285 OA
BRANCH  46  51
ATOM     51  S   UNL     1       3.958  11.729   1.560  0.00  0.00    +0.141 S 
ATOM     52  O   UNL     1       5.510  11.346   2.087  0.00  0.00    -0.043 OA
ATOM     53  O   UNL     1       3.351  12.723   2.511  0.00  0.00    -0.140 OA
ATOM     54  O   UNL     1       4.029  12.243   0.160  0.00  0.00    -0.140 OA
ENDBRANCH  46  51
BRANCH  40  55
ATOM     55  S   UNL     1       4.038   4.803  -1.282  0.00  0.00    +0.142 S 
ATOM     56  O   UNL     1       4.579   5.584  -2.671  0.00  0.00    -0.043 OA
ATOM     57  O   UNL     1       5.215   4.376  -0.468  0.00  0.00    -0.140 OA
ATOM     58  O   UNL     1       3.233   3.597  -1.697  0.00  0.00    -0.140 OA
ENDBRANCH  40  55
ENDBRANCH  38  39
ENDBRANCH   3  37
TORSDOF 9
ENDMDL
MODEL 5
REMARK VINA RESULT:      -8.4      4.411      5.684
REMARK  Name = 
REMARK  9 active torsions:
REMARK  status: ('A' for Active; 'I' for Inactive)
REMARK    1  A    between atoms: C_4  and  C_5
REMARK    2  A    between atoms: C_8  and  N_9
REMARK    3  A    between atoms: N_10  and  C_11
REMARK    4  A    between atoms: C_18  and  S_19
REMARK    5  A    between atoms: C_26  and  S_27
REMARK    6  A    between atoms: C_36  and  N_37
REMARK    7  A    between atoms: N_38  and  C_39
REMARK    8  A    between atoms: C_46  and  S_47
REMARK    9  A    between atoms: C_54  and  S_55
REMARK                            x       y       z     vdW  Elec       q    Type
REMARK                         _______ _______ _______ _____ _____    ______ ____
ROOT
ATOM      1  C   UNL     1       3.200   8.171  -9.411  0.00  0.00    +0.033 C 
ATOM      2  C   UNL     1       3.201   6.788  -8.849  0.00  0.00    -0.002 A 
ATOM      3  C   UNL     1       4.074   5.841  -9.370  0.00  0.00    +0.099 A 
ATOM      4  C   UNL     1       3.954   4.565  -8.834  0.00  0.00    +0.021 A 
ATOM      5  C   UNL     1       3.379   4.349  -7.588  0.00  0.00    +0.002 A 
ATOM      6  C   UNL     1       2.388   5.235  -7.193  0.00  0.00    -0.000 A 
ATOM      7  C   UNL     1       2.382   6.487  -7.770  0.00  0.00    -0.003 A 
ENDROOT
BRANCH   6   8
ATOM      8  C   UNL     1       1.961   5.128  -5.793  0.00  0.00    -0.000 A 
ATOM      9  C   UNL     1       0.637   5.323  -5.418  0.00  0.00    -0.003 A 
ATOM     10  C   UNL     1       0.386   5.889  -4.177  0.00  0.00    -0.002 A 
ATOM     11  C   UNL     1      -0.975   6.379  -3.883  0.00  0.00    +0.033 C 
ATOM     12  C   UNL     1       1.372   6.035  -3.222  0.00  0.00    +0.099 A 
ATOM     13  C   UNL     1       2.556   5.345  -3.448  0.00  0.00    +0.021 A 
ATOM     14  C   UNL     1       2.876   5.039  -4.759  0.00  0.00    +0.002 A 
BRANCH  12  15
ATOM     15  N   UNL     1       1.234   6.848  -2.074  0.00  0.00    -0.148 NA
ATOM     16  N   UNL     1       1.095   6.413  -0.900  0.00  0.00    -0.143 NA
BRANCH  16  17
ATOM     17  C   UNL     1       1.420   7.263   0.192  0.00  0.00    +0.161 A 
ATOM     18  C   UNL     1       0.495   8.225   0.582  0.00  0.00    +0.159 A 
ATOM     19  C   UNL     1       0.882   9.180   1.513  0.00  0.00    +0.023 A 
ATOM     20  C   UNL     1       2.181   9.272   1.983  0.00  0.00    +0.007 A 
ATOM     21  C   UNL     1       3.065   8.274   1.665  0.00  0.00    +0.057 A 
ATOM     22  C   UNL     1       4.378   8.384   2.105  0.00  0.00    +0.094 A 
ATOM     23  C   UNL     1       4.839   9.553   2.684  0.00  0.00    +0.039 A 
ATOM     24  C   UNL     1       4.002  10.653   2.807  0.00  0.00    +0.138 A 
ATOM     25  N   UNL     1       5.303   7.359   1.757  0.00  0.00    -0.128 NA
ATOM     26  C   UNL     1       2.647  10.402   2.643  0.00  0.00    +0.021 A 
ATOM     27  C   UNL     1       2.673   7.297   0.772  0.00  0.00    +0.217 A 
ATOM     28  O   UNL     1       3.658   6.529   0.173  0.00  0.00    -0.285 OA
BRANCH  24  29
ATOM     29  S   UNL     1       4.650  12.286   2.718  0.00  0.00    +0.141 S 
ATOM     30  O   UNL     1       3.419  13.352   3.108  0.00  0.00    -0.043 OA
ATOM     31  O   UNL     1       5.175  12.496   1.337  0.00  0.00    -0.140 OA
ATOM     32  O   UNL     1       5.739  12.448   3.749  0.00  0.00    -0.140 OA
ENDBRANCH  24  29
BRANCH  18  33
ATOM     33  S   UNL     1      -1.206   7.942   0.340  0.00  0.00    +0.142 S 
ATOM     34  O   UNL     1      -1.586   6.315   0.478  0.00  0.00    -0.043 OA
ATOM     35  O   UNL     1      -1.599   8.411  -1.038  0.00  0.00    -0.140 OA
ATOM     36  O   UNL     1      -2.030   8.748   1.314  0.00  0.00    -0.140 OA
ENDBRANCH  18  33
ENDBRANCH  16  17
ENDBRANCH  12  15
ENDBRANCH   6   8
BRANCH   3  37
ATOM     37  N   UNL     1       4.350   5.967 -10.769  0.00  0.00    -0.148 NA
ATOM     38  N   UNL     1       4.016   4.996 -11.495  0.00  0.00    -0.143 NA
BRANCH  38  39
ATOM     39  C   UNL     1       3.860   5.040 -12.898  0.00  0.00    +0.161 A 
ATOM     40  C   UNL     1       2.602   5.333 -13.402  0.00  0.00    +0.159 A 
ATOM     41  C   UNL     1       2.426   6.079 -14.561  0.00  0.00    +0.023 A 
ATOM     42  C   UNL     1       3.539   6.530 -15.261  0.00  0.00    +0.007 A 
ATOM     43  C   UNL     1       4.806   6.138 -14.847  0.00  0.00    +0.057 A 
ATOM     44  C   UNL     1       5.942   6.600 -15.499  0.00  0.00    +0.094 A 
ATOM     45  C   UNL     1       5.810   7.802 -16.180  0.00  0.00    +0.039 A 
ATOM     46  C   UNL     1       4.573   8.263 -16.582  0.00  0.00    +0.138 A 
ATOM     47  N   UNL     1       7.194   6.372 -14.844  0.00  0.00    -0.128 NA
ATOM     48  C   UNL     1       3.446   7.556 -16.185  0.00  0.00    +0.021 A 
ATOM     49  C   UNL     1       4.931   5.321 -13.737  0.00  0.00    +0.217 A 
ATOM     50  O   UNL     1       6.157   4.781 -13.356  0.00  0.00    -0.285 OA
BRANCH  46  51
ATOM     51  S   UNL     1       4.448   9.899 -17.217  0.00  0.00    +0.141 S 
ATOM     52  O   UNL     1       3.185  10.650 -16.395  0.00  0.00    -0.043 OA
ATOM     53  O   UNL     1       4.126   9.874 -18.686  0.00  0.00    -0.140 OA
ATOM     54  O   UNL     1       5.722  10.617 -16.920  0.00  0.00    -0.140 OA
ENDBRANCH  46  51
BRANCH  40  55
ATOM     55  S   UNL     1       1.228   5.255 -12.306  0.00  0.00    +0.142 S 
ATOM     56  O   UNL     1       1.009   6.720 -11.505  0.00  0.00    -0.043 OA
ATOM     57  O   UNL     1      -0.006   4.932 -13.083  0.00  0.00    -0.140 OA
ATOM     58  O   UNL     1       1.485   4.183 -11.276  0.00  0.00    -0.140 OA
ENDBRANCH  40  55
ENDBRANCH  38  39
ENDBRANCH   3  37
TORSDOF 9
ENDMDL
MODEL 6
REMARK VINA RESULT:      -8.2      3.068     15.003
REMARK  Name = 
REMARK  9 active torsions:
REMARK  status: ('A' for Active; 'I' for Inactive)
REMARK    1  A    between atoms: C_4  and  C_5
REMARK    2  A    between atoms: C_8  and  N_9
REMARK    3  A    between atoms: N_10  and  C_11
REMARK    4  A    between atoms: C_18  and  S_19
REMARK    5  A    between atoms: C_26  and  S_27
REMARK    6  A    between atoms: C_36  and  N_37
REMARK    7  A    between atoms: N_38  and  C_39
REMARK    8  A    between atoms: C_46  and  S_47
REMARK    9  A    between atoms: C_54  and  S_55
REMARK                            x       y       z     vdW  Elec       q    Type
REMARK                         _______ _______ _______ _____ _____    ______ ____
ROOT
ATOM      1  C   UNL     1       0.047   6.138  -6.491  0.00  0.00    +0.033 C 
ATOM      2  C   UNL     1       1.533   5.996  -6.513  0.00  0.00    -0.002 A 
ATOM      3  C   UNL     1       2.187   5.500  -5.391  0.00  0.00    +0.099 A 
ATOM      4  C   UNL     1       3.574   5.471  -5.478  0.00  0.00    +0.021 A 
ATOM      5  C   UNL     1       4.227   5.469  -6.704  0.00  0.00    +0.002 A 
ATOM      6  C   UNL     1       3.598   6.129  -7.750  0.00  0.00    -0.000 A 
ATOM      7  C   UNL     1       2.231   6.292  -7.674  0.00  0.00    -0.003 A 
ENDROOT
BRANCH   6   8
ATOM      8  C   UNL     1       4.187   5.921  -9.078  0.00  0.00    -0.000 A 
ATOM      9  C   UNL     1       5.329   6.602  -9.484  0.00  0.00    -0.003 A 
ATOM     10  C   UNL     1       5.449   6.932 -10.825  0.00  0.00    -0.002 A 
ATOM     11  C   UNL     1       6.486   7.903 -11.227  0.00  0.00    +0.033 C 
ATOM     12  C   UNL     1       4.615   6.404 -11.791  0.00  0.00    +0.099 A 
ATOM     13  C   UNL     1       3.831   5.324 -11.405  0.00  0.00    +0.021 A 
ATOM     14  C   UNL     1       3.527   5.205 -10.061  0.00  0.00    +0.002 A 
BRANCH  12  15
ATOM     15  N   UNL     1       4.517   6.917 -13.105  0.00  0.00    -0.148 NA
ATOM     16  N   UNL     1       4.220   6.235 -14.121  0.00  0.00    -0.143 NA
BRANCH  16  17
ATOM     17  C   UNL     1       3.711   6.897 -15.270  0.00  0.00    +0.161 A 
ATOM     18  C   UNL     1       4.554   7.751 -15.973  0.00  0.00    +0.159 A 
ATOM     19  C   UNL     1       4.012   8.547 -16.973  0.00  0.00    +0.023 A 
ATOM     20  C   UNL     1       2.650   8.597 -17.223  0.00  0.00    +0.007 A 
ATOM     21  C   UNL     1       1.835   7.694 -16.591  0.00  0.00    +0.057 A 
ATOM     22  C   UNL     1       0.466   7.768 -16.811  0.00  0.00    +0.094 A 
ATOM     23  C   UNL     1      -0.089   8.836 -17.495  0.00  0.00    +0.039 A 
ATOM     24  C   UNL     1       0.715   9.874 -17.947  0.00  0.00    +0.138 A 
ATOM     25  N   UNL     1      -0.386   6.846 -16.140  0.00  0.00    -0.128 NA
ATOM     26  C   UNL     1       2.078   9.613 -17.977  0.00  0.00    +0.021 A 
ATOM     27  C   UNL     1       2.376   6.871 -15.624  0.00  0.00    +0.217 A 
ATOM     28  O   UNL     1       1.510   6.245 -14.742  0.00  0.00    -0.285 OA
BRANCH  24  29
ATOM     29  S   UNL     1       0.093  11.517 -18.030  0.00  0.00    +0.141 S 
ATOM     30  O   UNL     1      -0.053  12.093 -16.464  0.00  0.00    -0.043 OA
ATOM     31  O   UNL     1      -1.214  11.477 -18.749  0.00  0.00    -0.140 OA
ATOM     32  O   UNL     1       1.088  12.392 -18.748  0.00  0.00    -0.140 OA
ENDBRANCH  24  29
BRANCH  18  33
ATOM     33  S   UNL     1       6.271   7.461 -15.981  0.00  0.00    +0.142 S 
ATOM     34  O   UNL     1       6.917   7.532 -14.436  0.00  0.00    -0.043 OA
ATOM     35  O   UNL     1       6.949   8.505 -16.833  0.00  0.00    -0.140 OA
ATOM     36  O   UNL     1       6.589   6.127 -16.611  0.00  0.00    -0.140 OA
ENDBRANCH  18  33
ENDBRANCH  16  17
ENDBRANCH  12  15
ENDBRANCH   6   8
BRANCH   3  37
ATOM     37  N   UNL     1       1.592   5.843  -4.134  0.00  0.00    -0.148 NA
ATOM     38  N   UNL     1       1.245   4.884  -3.399  0.00  0.00    -0.143 NA
BRANCH  38  39
ATOM     39  C   UNL     1       0.983   4.969  -2.014  0.00  0.00    +0.161 A 
ATOM     40  C   UNL     1       2.055   5.189  -1.163  0.00  0.00    +0.159 A 
ATOM     41  C   UNL     1       1.940   5.963  -0.015  0.00  0.00    +0.023 A 
ATOM     42  C   UNL     1       0.710   6.519   0.316  0.00  0.00    +0.007 A 
ATOM     43  C   UNL     1      -0.405   6.205  -0.451  0.00  0.00    +0.057 A 
ATOM     44  C   UNL     1      -1.642   6.773  -0.173  0.00  0.00    +0.094 A 
ATOM     45  C   UNL     1      -1.621   7.986   0.500  0.00  0.00    +0.039 A 
ATOM     46  C   UNL     1      -0.525   8.371   1.244  0.00  0.00    +0.138 A 
ATOM     47  N   UNL     1      -2.659   6.611  -1.167  0.00  0.00    -0.128 NA
ATOM     48  C   UNL     1       0.607   7.570   1.211  0.00  0.00    +0.021 A 
ATOM     49  C   UNL     1      -0.262   5.358  -1.535  0.00  0.00    +0.217 A 
ATOM     50  O   UNL     1      -1.360   4.894  -2.257  0.00  0.00    -0.285 OA
BRANCH  46  51
ATOM     51  S   UNL     1      -0.462  10.016   1.865  0.00  0.00    +0.141 S 
ATOM     52  O   UNL     1      -0.304   9.905   3.537  0.00  0.00    -0.043 OA
ATOM     53  O   UNL     1      -1.733  10.753   1.543  0.00  0.00    -0.140 OA
ATOM     54  O   UNL     1       0.748  10.684   1.302  0.00  0.00    -0.140 OA
ENDBRANCH  46  51
BRANCH  40  55
ATOM     55  S   UNL     1       3.681   4.970  -1.800  0.00  0.00    +0.142 S 
ATOM     56  O   UNL     1       4.748   4.501  -0.585  0.00  0.00    -0.043 OA
ATOM     57  O   UNL     1       3.657   3.922  -2.864  0.00  0.00    -0.140 OA
ATOM     58  O   UNL     1       4.161   6.279  -2.375  0.00  0.00    -0.140 OA
ENDBRANCH  40  55
ENDBRANCH  38  39
ENDBRANCH   3  37
TORSDOF 9
ENDMDL
