MODEL 1
REMARK VINA RESULT:      -6.7      0.000      0.000
REMARK  Name = 
REMARK  2 active torsions:
REMARK  status: ('A' for Active; 'I' for Inactive)
REMARK    1  A    between atoms: N_2  and  C_3
REMARK    2  A    between atoms: C_3  and  C_4
REMARK                            x       y       z     vdW  Elec       q    Type
REMARK                         _______ _______ _______ _____ _____    ______ ____
ROOT
ATOM      1  C   UNL     1       1.498   5.376  -6.633  0.00  0.00    +0.130 C 
ATOM      2  C   UNL     1       1.619   4.812  -8.017  0.00  0.00    +0.168 C 
ATOM      3  O   UNL     1       2.725   4.331  -8.258  0.00  0.00    -0.294 OA
ATOM      4  C   UNL     1       1.090   5.715  -9.091  0.00  0.00    +0.066 C 
ATOM      5  C   UNL     1       1.844   7.010  -8.986  0.00  0.00    +0.008 C 
ATOM      6  C   UNL     1       1.906   7.568  -7.595  0.00  0.00    +0.003 C 
ATOM      7  C   UNL     1       2.430   6.560  -6.582  0.00  0.00    +0.027 C 
ENDROOT
BRANCH   1   8
ATOM      8  C   UNL     1       0.136   5.886  -6.347  0.00  0.00    +0.009 A 
ATOM      9  C   UNL     1       0.001   6.558  -5.136  0.00  0.00    +0.055 A 
ATOM     10 CL   UNL     1       1.396   6.862  -4.103  0.00  0.00    -0.083 Cl
ATOM     11  C   UNL     1      -1.201   7.066  -4.727  0.00  0.00    +0.011 A 
ATOM     12  C   UNL     1      -2.336   6.664  -5.380  0.00  0.00    +0.001 A 
ATOM     13  C   UNL     1      -2.224   5.839  -6.472  0.00  0.00    -0.000 A 
ATOM     14  C   UNL     1      -1.013   5.288  -6.832  0.00  0.00    -0.002 A 
ENDBRANCH   1   8
BRANCH   1  16
ATOM     15  C   UNL     1       3.131   4.525  -5.261  0.00  0.00    +0.108 C 
ATOM     16  N   UNL     1       1.800   4.347  -5.682  0.00  0.00    -0.208 NA
ENDBRANCH   1  16
TORSDOF 2
ENDMDL
MODEL 2
REMARK VINA RESULT:      -6.5      2.102      3.345
REMARK  Name = 
REMARK  2 active torsions:
REMARK  status: ('A' for Active; 'I' for Inactive)
REMARK    1  A    between atoms: N_2  and  C_3
REMARK    2  A    between atoms: C_3  and  C_4
REMARK                            x       y       z     vdW  Elec       q    Type
REMARK                         _______ _______ _______ _____ _____    ______ ____
ROOT
ATOM      1  C   UNL     1       1.815   6.623  -6.593  0.00  0.00    +0.130 C 
ATOM      2  C   UNL     1       2.680   7.064  -5.453  0.00  0.00    +0.168 C 
ATOM      3  O   UNL     1       3.815   7.395  -5.794  0.00  0.00    -0.294 OA
ATOM      4  C   UNL     1       2.633   6.153  -4.262  0.00  0.00    +0.066 C 
ATOM      5  C   UNL     1       3.050   4.790  -4.738  0.00  0.00    +0.008 C 
ATOM      6  C   UNL     1       2.338   4.333  -5.976  0.00  0.00    +0.003 C 
ATOM      7  C   UNL     1       2.426   5.345  -7.110  0.00  0.00    +0.027 C 
ENDROOT
BRANCH   1   8
ATOM      8  C   UNL     1       0.434   6.297  -6.164  0.00  0.00    +0.009 A 
ATOM      9  C   UNL     1      -0.367   5.714  -7.142  0.00  0.00    +0.055 A 
ATOM     10 CL   UNL     1       0.287   5.302  -8.725  0.00  0.00    -0.083 Cl
ATOM     11  C   UNL     1      -1.669   5.378  -6.897  0.00  0.00    +0.011 A 
ATOM     12  C   UNL     1      -2.273   5.877  -5.773  0.00  0.00    +0.001 A 
ATOM     13  C   UNL     1      -1.530   6.621  -4.889  0.00  0.00    -0.000 A 
ATOM     14  C   UNL     1      -0.238   7.001  -5.181  0.00  0.00    -0.002 A 
ENDBRANCH   1   8
BRANCH   1  16
ATOM     15  C   UNL     1       2.680   7.395  -8.575  0.00  0.00    +0.108 C 
ATOM     16  N   UNL     1       1.745   7.676  -7.562  0.00  0.00    -0.208 NA
ENDBRANCH   1  16
TORSDOF 2
ENDMDL
MODEL 3
REMARK VINA RESULT:      -6.1      3.371      5.666
REMARK  Name = 
REMARK  2 active torsions:
REMARK  status: ('A' for Active; 'I' for Inactive)
REMARK    1  A    between atoms: N_2  and  C_3
REMARK    2  A    between atoms: C_3  and  C_4
REMARK                            x       y       z     vdW  Elec       q    Type
REMARK                         _______ _______ _______ _____ _____    ______ ____
ROOT
ATOM      1  C   UNL     1       2.853   5.327  -8.605  0.00  0.00    +0.130 C 
ATOM      2  C   UNL     1       2.858   4.857  -7.182  0.00  0.00    +0.168 C 
ATOM      3  O   UNL     1       1.769   4.430  -6.800  0.00  0.00    -0.294 OA
ATOM      4  C   UNL     1       3.520   5.806  -6.228  0.00  0.00    +0.066 C 
ATOM      5  C   UNL     1       2.795   7.118  -6.342  0.00  0.00    +0.008 C 
ATOM      6  C   UNL     1       2.607   7.589  -7.753  0.00  0.00    +0.003 C 
ATOM      7  C   UNL     1       1.954   6.538  -8.640  0.00  0.00    +0.027 C 
ENDROOT
BRANCH   1   8
ATOM      8  C   UNL     1       4.192   5.771  -9.059  0.00  0.00    +0.009 A 
ATOM      9  C   UNL     1       4.231   6.311 -10.341  0.00  0.00    +0.055 A 
ATOM     10 CL   UNL     1       2.755   6.542 -11.276  0.00  0.00    -0.083 Cl
ATOM     11  C   UNL     1       5.400   6.744 -10.903  0.00  0.00    +0.011 A 
ATOM     12  C   UNL     1       6.582   6.384 -10.311  0.00  0.00    +0.001 A 
ATOM     13  C   UNL     1       6.553   5.678  -9.133  0.00  0.00    -0.000 A 
ATOM     14  C   UNL     1       5.370   5.198  -8.615  0.00  0.00    -0.002 A 
ENDBRANCH   1   8
BRANCH   1  16
ATOM     15  C   UNL     1       1.088   4.491  -9.811  0.00  0.00    +0.108 C 
ATOM     16  N   UNL     1       2.426   4.253  -9.451  0.00  0.00    -0.208 NA
ENDBRANCH   1  16
TORSDOF 2
ENDMDL
MODEL 4
REMARK VINA RESULT:      -5.8      2.436      3.813
REMARK  Name = 
REMARK  2 active torsions:
REMARK  status: ('A' for Active; 'I' for Inactive)
REMARK    1  A    between atoms: N_2  and  C_3
REMARK    2  A    between atoms: C_3  and  C_4
REMARK                            x       y       z     vdW  Elec       q    Type
REMARK                         _______ _______ _______ _____ _____    ______ ____
ROOT
ATOM      1  C   UNL     1       2.068   6.207  -8.864  0.00  0.00    +0.130 C 
ATOM      2  C   UNL     1       3.431   6.460  -9.431  0.00  0.00    +0.168 C 
ATOM      3  O   UNL     1       3.456   6.492 -10.661  0.00  0.00    -0.294 OA
ATOM      4  C   UNL     1       4.514   5.625  -8.813  0.00  0.00    +0.066 C 
ATOM      5  C   UNL     1       4.124   4.187  -9.011  0.00  0.00    +0.008 C 
ATOM      6  C   UNL     1       2.711   3.879  -8.611  0.00  0.00    +0.003 C 
ATOM      7  C   UNL     1       1.699   4.803  -9.273  0.00  0.00    +0.027 C 
ENDROOT
BRANCH   1   8
ATOM      8  C   UNL     1       2.055   6.241  -7.382  0.00  0.00    +0.009 A 
ATOM      9  C   UNL     1       0.834   5.926  -6.795  0.00  0.00    +0.055 A 
ATOM     10 CL   UNL     1      -0.540   5.415  -7.773  0.00  0.00    -0.083 Cl
ATOM     11  C   UNL     1       0.666   5.937  -5.438  0.00  0.00    +0.011 A 
ATOM     12  C   UNL     1       1.625   6.535  -4.665  0.00  0.00    +0.001 A 
ATOM     13  C   UNL     1       2.760   7.024  -5.266  0.00  0.00    -0.000 A 
ATOM     14  C   UNL     1       2.884   7.060  -6.638  0.00  0.00    -0.002 A 
ENDBRANCH   1   8
BRANCH   1  16
ATOM     15  C   UNL     1       0.526   6.712 -10.488  0.00  0.00    +0.108 C 
ATOM     16  N   UNL     1       1.168   7.214  -9.342  0.00  0.00    -0.208 NA
ENDBRANCH   1  16
TORSDOF 2
ENDMDL
MODEL 5
REMARK VINA RESULT:      -5.8      2.398      4.117
REMARK  Name = 
REMARK  2 active torsions:
REMARK  status: ('A' for Active; 'I' for Inactive)
REMARK    1  A    between atoms: N_2  and  C_3
REMARK    2  A    between atoms: C_3  and  C_4
REMARK                            x       y       z     vdW  Elec       q    Type
REMARK                         _______ _______ _______ _____ _____    ______ ____
ROOT
ATOM      1  C   UNL     1       2.051   5.875  -7.858  0.00  0.00    +0.130 C 
ATOM      2  C   UNL     1       2.376   6.878  -8.923  0.00  0.00    +0.168 C 
ATOM      3  O   UNL     1       1.545   6.922  -9.830  0.00  0.00    -0.294 OA
ATOM      4  C   UNL     1       3.800   6.831  -9.391  0.00  0.00    +0.066 C 
ATOM      5  C   UNL     1       4.051   5.437  -9.892  0.00  0.00    +0.008 C 
ATOM      6  C   UNL     1       3.607   4.361  -8.946  0.00  0.00    +0.003 C 
ATOM      7  C   UNL     1       2.157   4.522  -8.514  0.00  0.00    +0.027 C 
ENDROOT
BRANCH   1   8
ATOM      8  C   UNL     1       3.030   5.893  -6.746  0.00  0.00    +0.009 A 
ATOM      9  C   UNL     1       2.940   4.822  -5.863  0.00  0.00    +0.055 A 
ATOM     10 CL   UNL     1       1.809   3.501  -6.148  0.00  0.00    -0.083 Cl
ATOM     11  C   UNL     1       3.764   4.714  -4.777  0.00  0.00    +0.011 A 
ATOM     12  C   UNL     1       4.492   5.811  -4.398  0.00  0.00    +0.001 A 
ATOM     13  C   UNL     1       4.439   6.948  -5.167  0.00  0.00    -0.000 A 
ATOM     14  C   UNL     1       3.557   7.059  -6.221  0.00  0.00    -0.002 A 
ENDBRANCH   1   8
BRANCH   1  16
ATOM     15  C   UNL     1      -0.189   5.395  -8.017  0.00  0.00    +0.108 C 
ATOM     16  N   UNL     1       0.756   6.169  -7.319  0.00  0.00    -0.208 NA
ENDBRANCH   1  16
TORSDOF 2
ENDMDL
MODEL 6
REMARK VINA RESULT:      -5.7      2.032      3.955
REMARK  Name = 
REMARK  2 active torsions:
REMARK  status: ('A' for Active; 'I' for Inactive)
REMARK    1  A    between atoms: N_2  and  C_3
REMARK    2  A    between atoms: C_3  and  C_4
REMARK                            x       y       z     vdW  Elec       q    Type
REMARK                         _______ _______ _______ _____ _____    ______ ____
ROOT
ATOM      1  C   UNL     1       1.338   5.998  -6.079  0.00  0.00    +0.130 C 
ATOM      2  C   UNL     1       1.581   6.218  -7.541  0.00  0.00    +0.168 C 
ATOM      3  O   UNL     1       0.564   6.132  -8.229  0.00  0.00    -0.294 OA
ATOM      4  C   UNL     1       2.759   5.463  -8.083  0.00  0.00    +0.066 C 
ATOM      5  C   UNL     1       2.511   4.007  -7.807  0.00  0.00    +0.008 C 
ATOM      6  C   UNL     1       2.107   3.716  -6.392  0.00  0.00    +0.003 C 
ATOM      7  C   UNL     1       0.922   4.556  -5.937  0.00  0.00    +0.027 C 
ENDROOT
BRANCH   1   8
ATOM      8  C   UNL     1       2.565   6.175  -5.268  0.00  0.00    +0.009 A 
ATOM      9  C   UNL     1       2.425   5.883  -3.914  0.00  0.00    +0.055 A 
ATOM     10 CL   UNL     1       0.914   5.240  -3.274  0.00  0.00    -0.083 Cl
ATOM     11  C   UNL     1       3.467   6.019  -3.039  0.00  0.00    +0.011 A 
ATOM     12  C   UNL     1       4.574   6.717  -3.444  0.00  0.00    +0.001 A 
ATOM     13  C   UNL     1       4.639   7.178  -4.736  0.00  0.00    -0.000 A 
ATOM     14  C   UNL     1       3.557   7.086  -5.584  0.00  0.00    -0.002 A 
ENDBRANCH   1   8
BRANCH   1  16
ATOM     15  C   UNL     1      -0.893   6.301  -5.625  0.00  0.00    +0.108 C 
ATOM     16  N   UNL     1       0.360   6.941  -5.621  0.00  0.00    -0.208 NA
ENDBRANCH   1  16
TORSDOF 2
ENDMDL
MODEL 7
REMARK VINA RESULT:      -5.6      3.008      5.373
REMARK  Name = 
REMARK  2 active torsions:
REMARK  status: ('A' for Active; 'I' for Inactive)
REMARK    1  A    between atoms: N_2  and  C_3
REMARK    2  A    between atoms: C_3  and  C_4
REMARK                            x       y       z     vdW  Elec       q    Type
REMARK                         _______ _______ _______ _____ _____    ______ ____
ROOT
ATOM      1  C   UNL     1       2.415   6.595  -8.957  0.00  0.00    +0.130 C 
ATOM      2  C   UNL     1       1.491   6.853 -10.108  0.00  0.00    +0.168 C 
ATOM      3  O   UNL     1       0.363   7.209  -9.765  0.00  0.00    -0.294 OA
ATOM      4  C   UNL     1       1.508   5.781 -11.157  0.00  0.00    +0.066 C 
ATOM      5  C   UNL     1       1.145   4.493 -10.474  0.00  0.00    +0.008 C 
ATOM      6  C   UNL     1       1.921   4.231  -9.217  0.00  0.00    +0.003 C 
ATOM      7  C   UNL     1       1.858   5.394  -8.236  0.00  0.00    +0.027 C 
ENDROOT
BRANCH   1   8
ATOM      8  C   UNL     1       3.783   6.236  -9.399  0.00  0.00    +0.009 A 
ATOM      9  C   UNL     1       4.617   5.746  -8.398  0.00  0.00    +0.055 A 
ATOM     10 CL   UNL     1       4.016   5.477  -6.764  0.00  0.00    -0.083 Cl
ATOM     11  C   UNL     1       5.914   5.393  -8.653  0.00  0.00    +0.011 A 
ATOM     12  C   UNL     1       6.478   5.790  -9.836  0.00  0.00    +0.001 A 
ATOM     13  C   UNL     1       5.704   6.449 -10.760  0.00  0.00    -0.000 A 
ATOM     14  C   UNL     1       4.420   6.849 -10.462  0.00  0.00    -0.002 A 
ENDBRANCH   1   8
BRANCH   1  16
ATOM     15  C   UNL     1       1.711   7.578  -7.005  0.00  0.00    +0.108 C 
ATOM     16  N   UNL     1       2.501   7.777  -8.152  0.00  0.00    -0.208 NA
ENDBRANCH   1  16
TORSDOF 2
ENDMDL
MODEL 8
REMARK VINA RESULT:      -5.6      2.563      4.804
REMARK  Name = 
REMARK  2 active torsions:
REMARK  status: ('A' for Active; 'I' for Inactive)
REMARK    1  A    between atoms: N_2  and  C_3
REMARK    2  A    between atoms: C_3  and  C_4
REMARK                            x       y       z     vdW  Elec       q    Type
REMARK                         _______ _______ _______ _____ _____    ______ ____
ROOT
ATOM      1  C   UNL     1       3.047   5.544  -5.405  0.00  0.00    +0.130 C 
ATOM      2  C   UNL     1       3.973   4.797  -4.494  0.00  0.00    +0.168 C 
ATOM      3  O   UNL     1       3.464   4.494  -3.415  0.00  0.00    -0.294 OA
ATOM      4  C   UNL     1       5.340   5.403  -4.384  0.00  0.00    +0.066 C 
ATOM      5  C   UNL     1       5.157   6.815  -3.902  0.00  0.00    +0.008 C 
ATOM      6  C   UNL     1       4.126   7.590  -4.667  0.00  0.00    +0.003 C 
ATOM      7  C   UNL     1       2.786   6.871  -4.739  0.00  0.00    +0.027 C 
ENDROOT
BRANCH   1   8
ATOM      8  C   UNL     1       3.661   5.835  -6.722  0.00  0.00    +0.009 A 
ATOM      9  C   UNL     1       2.883   6.608  -7.578  0.00  0.00    +0.055 A 
ATOM     10 CL   UNL     1       1.337   7.271  -7.053  0.00  0.00    -0.083 Cl
ATOM     11  C   UNL     1       3.311   6.940  -8.834  0.00  0.00    +0.011 A 
ATOM     12  C   UNL     1       4.387   6.272  -9.356  0.00  0.00    +0.001 A 
ATOM     13  C   UNL     1       5.051   5.358  -8.574  0.00  0.00    -0.000 A 
ATOM     14  C   UNL     1       4.570   4.992  -7.335  0.00  0.00    -0.002 A 
ENDBRANCH   1   8
BRANCH   1  16
ATOM     15  C   UNL     1       0.909   5.137  -4.673  0.00  0.00    +0.108 C 
ATOM     16  N   UNL     1       1.871   4.755  -5.625  0.00  0.00    -0.208 NA
ENDBRANCH   1  16
TORSDOF 2
ENDMDL
MODEL 9
REMARK VINA RESULT:      -5.5      2.528      4.141
REMARK  Name = 
REMARK  2 active torsions:
REMARK  status: ('A' for Active; 'I' for Inactive)
REMARK    1  A    between atoms: N_2  and  C_3
REMARK    2  A    between atoms: C_3  and  C_4
REMARK                            x       y       z     vdW  Elec       q    Type
REMARK                         _______ _______ _______ _____ _____    ______ ____
ROOT
ATOM      1  C   UNL     1       2.380   5.643  -3.890  0.00  0.00    +0.130 C 
ATOM      2  C   UNL     1       3.557   4.893  -3.345  0.00  0.00    +0.168 C 
ATOM      3  O   UNL     1       3.708   5.029  -2.131  0.00  0.00    -0.294 OA
ATOM      4  C   UNL     1       4.813   5.062  -4.147  0.00  0.00    +0.066 C 
ATOM      5  C   UNL     1       5.107   6.535  -4.195  0.00  0.00    +0.008 C 
ATOM      6  C   UNL     1       3.930   7.379  -4.584  0.00  0.00    +0.003 C 
ATOM      7  C   UNL     1       2.703   7.106  -3.725  0.00  0.00    +0.027 C 
ENDROOT
BRANCH   1   8
ATOM      8  C   UNL     1       2.180   5.407  -5.340  0.00  0.00    +0.009 A 
ATOM      9  C   UNL     1       1.111   6.093  -5.908  0.00  0.00    +0.055 A 
ATOM     10 CL   UNL     1       0.163   7.240  -4.965  0.00  0.00    -0.083 Cl
ATOM     11  C   UNL     1       0.793   5.958  -7.231  0.00  0.00    +0.011 A 
ATOM     12  C   UNL     1       1.353   4.925  -7.936  0.00  0.00    +0.001 A 
ATOM     13  C   UNL     1       2.277   4.117  -7.319  0.00  0.00    -0.000 A 
ATOM     14  C   UNL     1       2.539   4.230  -5.971  0.00  0.00    -0.002 A 
ENDBRANCH   1   8
BRANCH   1  16
ATOM     15  C   UNL     1       1.007   6.077  -2.101  0.00  0.00    +0.108 C 
ATOM     16  N   UNL     1       1.196   5.220  -3.201  0.00  0.00    -0.208 NA
ENDBRANCH   1  16
TORSDOF 2
ENDMDL
