MODEL 1
REMARK VINA RESULT:      -4.6      0.000      0.000
REMARK  Name = 
REMARK  3 active torsions:
REMARK  status: ('A' for Active; 'I' for Inactive)
REMARK    1  A    between atoms: CG1_2  and  CB_3
REMARK    2  A    between atoms: CB_3  and  CA_5
REMARK    3  A    between atoms: CA_5  and  C_7
REMARK                            x       y       z     vdW  Elec       q    Type
REMARK                         _______ _______ _______ _____ _____    ______ ____
ROOT
ATOM      1  CA  ILE A   1       7.267   6.785 -11.838  0.00  0.00    +0.194 C 
ATOM      2  N   ILE A   1       6.382   6.837 -13.130  0.00  0.00    -0.121 NA
ENDROOT
BRANCH   1   3
ATOM      3  C   ILE A   1       8.130   5.522 -12.298  0.00  0.00    +0.382 C 
ATOM      4  OXT ILE A   1       7.798   4.728 -13.319  0.00  0.00    -0.244 OA
ATOM      5  O   ILE A   1       9.350   5.838 -12.150  0.00  0.00    -0.244 OA
ENDBRANCH   1   3
BRANCH   1   6
ATOM      6  CB  ILE A   1       6.082   5.868 -11.025  0.00  0.00    +0.029 C 
ATOM      7  CG2 ILE A   1       6.827   5.840  -9.590  0.00  0.00    +0.002 C 
BRANCH   6   9
ATOM      8  CD1 ILE A   1       4.160   6.812 -10.017  0.00  0.00    +0.000 C 
ATOM      9  CG1 ILE A   1       5.258   7.208 -10.646  0.00  0.00    +0.002 C 
ENDBRANCH   6   9
ENDBRANCH   1   6
TORSDOF 3
ENDMDL
MODEL 2
REMARK VINA RESULT:      -4.2     10.948     12.068
REMARK  Name = 
REMARK  3 active torsions:
REMARK  status: ('A' for Active; 'I' for Inactive)
REMARK    1  A    between atoms: CG1_2  and  CB_3
REMARK    2  A    between atoms: CB_3  and  CA_5
REMARK    3  A    between atoms: CA_5  and  C_7
REMARK                            x       y       z     vdW  Elec       q    Type
REMARK                         _______ _______ _______ _____ _____    ______ ____
ROOT
ATOM      1  CA  ILE A   1      -1.208   6.411  -3.424  0.00  0.00    +0.194 C 
ATOM      2  N   ILE A   1      -0.527   5.015  -3.206  0.00  0.00    -0.121 NA
ENDROOT
BRANCH   1   3
ATOM      3  C   ILE A   1      -2.411   6.150  -2.407  0.00  0.00    +0.382 C 
ATOM      4  OXT ILE A   1      -2.677   4.961  -1.859  0.00  0.00    -0.244 OA
ATOM      5  O   ILE A   1      -2.508   7.186  -1.679  0.00  0.00    -0.244 OA
ENDBRANCH   1   3
BRANCH   1   6
ATOM      6  CB  ILE A   1      -2.040   5.827  -4.792  0.00  0.00    +0.029 C 
ATOM      7  CG2 ILE A   1      -2.682   7.244  -5.233  0.00  0.00    +0.002 C 
BRANCH   6   9
ATOM      8  CD1 ILE A   1      -0.965   5.408  -6.859  0.00  0.00    +0.000 C 
ATOM      9  CG1 ILE A   1      -0.735   6.052  -5.723  0.00  0.00    +0.002 C 
ENDBRANCH   6   9
ENDBRANCH   1   6
TORSDOF 3
ENDMDL
MODEL 3
REMARK VINA RESULT:      -4.2      2.051      2.911
REMARK  Name = 
REMARK  3 active torsions:
REMARK  status: ('A' for Active; 'I' for Inactive)
REMARK    1  A    between atoms: CG1_2  and  CB_3
REMARK    2  A    between atoms: CB_3  and  CA_5
REMARK    3  A    between atoms: CA_5  and  C_7
REMARK                            x       y       z     vdW  Elec       q    Type
REMARK                         _______ _______ _______ _____ _____    ______ ____
ROOT
ATOM      1  CA  ILE A   1       6.361   5.424 -12.673  0.00  0.00    +0.194 C 
ATOM      2  N   ILE A   1       7.699   4.743 -13.124  0.00  0.00    -0.121 NA
ENDROOT
BRANCH   1   3
ATOM      3  C   ILE A   1       6.132   6.220 -14.039  0.00  0.00    +0.382 C 
ATOM      4  OXT ILE A   1       6.997   6.215 -15.057  0.00  0.00    -0.244 OA
ATOM      5  O   ILE A   1       4.892   6.151 -14.300  0.00  0.00    -0.244 OA
ENDBRANCH   1   3
BRANCH   1   6
ATOM      6  CB  ILE A   1       7.221   6.682 -11.910  0.00  0.00    +0.029 C 
ATOM      7  CG2 ILE A   1       5.936   7.407 -11.250  0.00  0.00    +0.002 C 
BRANCH   6   9
ATOM      8  CD1 ILE A   1       7.747   6.596  -9.604  0.00  0.00    +0.000 C 
ATOM      9  CG1 ILE A   1       7.462   5.766 -10.598  0.00  0.00    +0.002 C 
ENDBRANCH   6   9
ENDBRANCH   1   6
TORSDOF 3
ENDMDL
MODEL 4
REMARK VINA RESULT:      -4.1      2.785      3.789
REMARK  Name = 
REMARK  3 active torsions:
REMARK  status: ('A' for Active; 'I' for Inactive)
REMARK    1  A    between atoms: CG1_2  and  CB_3
REMARK    2  A    between atoms: CB_3  and  CA_5
REMARK    3  A    between atoms: CA_5  and  C_7
REMARK                            x       y       z     vdW  Elec       q    Type
REMARK                         _______ _______ _______ _____ _____    ______ ____
ROOT
ATOM      1  CA  ILE A   1       5.576   5.410 -11.453  0.00  0.00    +0.194 C 
ATOM      2  N   ILE A   1       5.150   4.887 -12.868  0.00  0.00    -0.121 NA
ENDROOT
BRANCH   1   3
ATOM      3  C   ILE A   1       4.366   6.441 -11.305  0.00  0.00    +0.382 C 
ATOM      4  OXT ILE A   1       3.306   6.466 -12.118  0.00  0.00    -0.244 OA
ATOM      5  O   ILE A   1       4.177   6.608 -10.061  0.00  0.00    -0.244 OA
ENDBRANCH   1   3
BRANCH   1   6
ATOM      6  CB  ILE A   1       6.646   6.536 -12.157  0.00  0.00    +0.029 C 
ATOM      7  CG2 ILE A   1       7.366   6.987 -10.781  0.00  0.00    +0.002 C 
BRANCH   6   9
ATOM      8  CD1 ILE A   1       8.933   5.946 -12.310  0.00  0.00    +0.000 C 
ATOM      9  CG1 ILE A   1       7.741   5.376 -12.428  0.00  0.00    +0.002 C 
ENDBRANCH   6   9
ENDBRANCH   1   6
TORSDOF 3
ENDMDL
MODEL 5
REMARK VINA RESULT:      -4.0      8.154      9.372
REMARK  Name = 
REMARK  3 active torsions:
REMARK  status: ('A' for Active; 'I' for Inactive)
REMARK    1  A    between atoms: CG1_2  and  CB_3
REMARK    2  A    between atoms: CB_3  and  CA_5
REMARK    3  A    between atoms: CA_5  and  C_7
REMARK                            x       y       z     vdW  Elec       q    Type
REMARK                         _______ _______ _______ _____ _____    ______ ____
ROOT
ATOM      1  CA  ILE A   1       0.317   5.360  -4.742  0.00  0.00    +0.194 C 
ATOM      2  N   ILE A   1       1.269   6.416  -4.082  0.00  0.00    -0.121 NA
ENDROOT
BRANCH   1   3
ATOM      3  C   ILE A   1       1.325   4.964  -5.915  0.00  0.00    +0.382 C 
ATOM      4  OXT ILE A   1       2.492   5.576  -6.131  0.00  0.00    -0.244 OA
ATOM      5  O   ILE A   1       1.276   3.700  -6.030  0.00  0.00    -0.244 OA
ENDBRANCH   1   3
BRANCH   1   6
ATOM      6  CB  ILE A   1      -0.473   6.581  -5.631  0.00  0.00    +0.029 C 
ATOM      7  CG2 ILE A   1      -1.587   5.623  -6.306  0.00  0.00    +0.002 C 
BRANCH   6   9
ATOM      8  CD1 ILE A   1      -1.898   8.148  -4.573  0.00  0.00    +0.000 C 
ATOM      9  CG1 ILE A   1      -1.433   6.922  -4.373  0.00  0.00    +0.002 C 
ENDBRANCH   6   9
ENDBRANCH   1   6
TORSDOF 3
ENDMDL
MODEL 6
REMARK VINA RESULT:      -4.0      5.703      6.710
REMARK  Name = 
REMARK  3 active torsions:
REMARK  status: ('A' for Active; 'I' for Inactive)
REMARK    1  A    between atoms: CG1_2  and  CB_3
REMARK    2  A    between atoms: CB_3  and  CA_5
REMARK    3  A    between atoms: CA_5  and  C_7
REMARK                            x       y       z     vdW  Elec       q    Type
REMARK                         _______ _______ _______ _____ _____    ______ ____
ROOT
ATOM      1  CA  ILE A   1       2.482   6.225  -6.689  0.00  0.00    +0.194 C 
ATOM      2  N   ILE A   1       2.571   4.937  -7.578  0.00  0.00    -0.121 NA
ENDROOT
BRANCH   1   3
ATOM      3  C   ILE A   1       2.842   7.243  -7.865  0.00  0.00    +0.382 C 
ATOM      4  OXT ILE A   1       3.181   6.863  -9.100  0.00  0.00    -0.244 OA
ATOM      5  O   ILE A   1       2.073   8.244  -7.731  0.00  0.00    -0.244 OA
ENDBRANCH   1   3
BRANCH   1   6
ATOM      6  CB  ILE A   1       4.093   6.018  -6.172  0.00  0.00    +0.029 C 
ATOM      7  CG2 ILE A   1       4.096   7.226  -5.097  0.00  0.00    +0.002 C 
BRANCH   6   9
ATOM      8  CD1 ILE A   1       4.648   4.810  -4.214  0.00  0.00    +0.000 C 
ATOM      9  CG1 ILE A   1       3.633   4.938  -5.058  0.00  0.00    +0.002 C 
ENDBRANCH   6   9
ENDBRANCH   1   6
TORSDOF 3
ENDMDL
MODEL 7
REMARK VINA RESULT:      -3.9      6.927      7.975
REMARK  Name = 
REMARK  3 active torsions:
REMARK  status: ('A' for Active; 'I' for Inactive)
REMARK    1  A    between atoms: CG1_2  and  CB_3
REMARK    2  A    between atoms: CB_3  and  CA_5
REMARK    3  A    between atoms: CA_5  and  C_7
REMARK                            x       y       z     vdW  Elec       q    Type
REMARK                         _______ _______ _______ _____ _____    ______ ____
ROOT
ATOM      1  CA  ILE A   1       1.122   6.251  -7.264  0.00  0.00    +0.194 C 
ATOM      2  N   ILE A   1       1.502   4.860  -7.880  0.00  0.00    -0.121 NA
ENDROOT
BRANCH   1   3
ATOM      3  C   ILE A   1       2.435   6.378  -6.363  0.00  0.00    +0.382 C 
ATOM      4  OXT ILE A   1       3.276   5.368  -6.129  0.00  0.00    -0.244 OA
ATOM      5  O   ILE A   1       2.921   7.531  -6.584  0.00  0.00    -0.244 OA
ENDBRANCH   1   3
BRANCH   1   6
ATOM      6  CB  ILE A   1       0.186   5.496  -6.057  0.00  0.00    +0.029 C 
ATOM      7  CG2 ILE A   1      -0.353   6.856  -5.368  0.00  0.00    +0.002 C 
BRANCH   6   9
ATOM      8  CD1 ILE A   1      -2.170   5.517  -6.288  0.00  0.00    +0.000 C 
ATOM      9  CG1 ILE A   1      -1.090   5.415  -7.050  0.00  0.00    +0.002 C 
ENDBRANCH   6   9
ENDBRANCH   1   6
TORSDOF 3
ENDMDL
MODEL 8
REMARK VINA RESULT:      -3.9      7.227      7.936
REMARK  Name = 
REMARK  3 active torsions:
REMARK  status: ('A' for Active; 'I' for Inactive)
REMARK    1  A    between atoms: CG1_2  and  CB_3
REMARK    2  A    between atoms: CB_3  and  CA_5
REMARK    3  A    between atoms: CA_5  and  C_7
REMARK                            x       y       z     vdW  Elec       q    Type
REMARK                         _______ _______ _______ _____ _____    ______ ____
ROOT
ATOM      1  CA  ILE A   1       2.907   5.688  -6.083  0.00  0.00    +0.194 C 
ATOM      2  N   ILE A   1       1.829   6.825  -6.021  0.00  0.00    -0.121 NA
ENDROOT
BRANCH   1   3
ATOM      3  C   ILE A   1       1.908   4.513  -5.667  0.00  0.00    +0.382 C 
ATOM      4  OXT ILE A   1       0.656   4.714  -5.249  0.00  0.00    -0.244 OA
ATOM      5  O   ILE A   1       2.133   3.545  -6.457  0.00  0.00    -0.244 OA
ENDBRANCH   1   3
BRANCH   1   6
ATOM      6  CB  ILE A   1       3.404   6.031  -4.488  0.00  0.00    +0.029 C 
ATOM      7  CG2 ILE A   1       4.630   4.978  -4.449  0.00  0.00    +0.002 C 
BRANCH   6   9
ATOM      8  CD1 ILE A   1       5.062   7.636  -3.960  0.00  0.00    +0.000 C 
ATOM      9  CG1 ILE A   1       4.361   7.228  -5.009  0.00  0.00    +0.002 C 
ENDBRANCH   6   9
ENDBRANCH   1   6
TORSDOF 3
ENDMDL
MODEL 9
REMARK VINA RESULT:      -3.8     10.274     11.595
REMARK  Name = 
REMARK  3 active torsions:
REMARK  status: ('A' for Active; 'I' for Inactive)
REMARK    1  A    between atoms: CG1_2  and  CB_3
REMARK    2  A    between atoms: CB_3  and  CA_5
REMARK    3  A    between atoms: CA_5  and  C_7
REMARK                            x       y       z     vdW  Elec       q    Type
REMARK                         _______ _______ _______ _____ _____    ______ ____
ROOT
ATOM      1  CA  ILE A   1      -1.943   5.792  -4.500  0.00  0.00    +0.194 C 
ATOM      2  N   ILE A   1      -2.645   7.124  -4.936  0.00  0.00    -0.121 NA
ENDROOT
BRANCH   1   3
ATOM      3  C   ILE A   1      -2.426   5.861  -2.979  0.00  0.00    +0.382 C 
ATOM      4  OXT ILE A   1      -3.101   6.889  -2.459  0.00  0.00    -0.244 OA
ATOM      5  O   ILE A   1      -2.771   4.684  -2.650  0.00  0.00    -0.244 OA
ENDBRANCH   1   3
BRANCH   1   6
ATOM      6  CB  ILE A   1      -0.476   6.616  -4.228  0.00  0.00    +0.029 C 
ATOM      7  CG2 ILE A   1       0.387   5.317  -3.805  0.00  0.00    +0.002 C 
BRANCH   6   9
ATOM      8  CD1 ILE A   1       1.216   6.799  -5.872  0.00  0.00    +0.000 C 
ATOM      9  CG1 ILE A   1      -0.065   6.467  -5.786  0.00  0.00    +0.002 C 
ENDBRANCH   6   9
ENDBRANCH   1   6
TORSDOF 3
ENDMDL
