MODEL 1
REMARK VINA RESULT:      -7.3      0.000      0.000
REMARK  Name = 
REMARK  10 active torsions:
REMARK  status: ('A' for Active; 'I' for Inactive)
REMARK    1  A    between atoms: O_2  and  C_3
REMARK    2  A    between atoms: C_5  and  C_6
REMARK    3  A    between atoms: N_8  and  C_9
REMARK    4  A    between atoms: C_9  and  C_10
REMARK    5  A    between atoms: C_13  and  O_14
REMARK    6  A    between atoms: O_14  and  C_15
REMARK    7  A    between atoms: C_15  and  C_16
REMARK    8  A    between atoms: C_16  and  N_17
REMARK    9  A    between atoms: C_23  and  O_24
REMARK   10  A    between atoms: C_26  and  O_27
REMARK                            x       y       z     vdW  Elec       q    Type
REMARK                         _______ _______ _______ _____ _____    ______ ____
ROOT
ATOM      1  C   UNL     1      -1.739   5.759  -2.365  0.00  0.00    +0.265 C 
ATOM      2  N   UNL     1      -2.160   7.039  -2.843  0.00  0.00    -0.197 NA
ATOM      3  O   UNL     1      -2.662   4.911  -2.211  0.00  0.00    -0.268 OA
ENDROOT
BRANCH   1   8
ATOM      4  C   UNL     1       0.596   6.726   0.395  0.00  0.00    +0.176 A 
ATOM      5  C   UNL     1       1.762   6.485  -0.323  0.00  0.00    +0.206 A 
ATOM      6  C   UNL     1       1.767   5.502  -1.305  0.00  0.00    +0.176 A 
ATOM      7  C   UNL     1       0.543   5.020  -1.740  0.00  0.00    +0.045 A 
ATOM      8  C   UNL     1      -0.590   5.750  -1.451  0.00  0.00    +0.061 A 
ATOM      9  C   UNL     1      -0.593   6.460  -0.265  0.00  0.00    +0.045 A 
BRANCH   6  10
ATOM     10  O   UNL     1       2.958   4.859  -1.563  0.00  0.00    -0.468 OA
ATOM     11  C   UNL     1       3.742   5.044  -2.713  0.00  0.00    +0.253 C 
ENDBRANCH   6  10
BRANCH   4  13
ATOM     12  C   UNL     1       0.098   9.038   0.959  0.00  0.00    +0.253 C 
ATOM     13  O   UNL     1       0.641   7.781   1.312  0.00  0.00    -0.468 OA
ENDBRANCH   4  13
BRANCH   5  14
ATOM     14  O   UNL     1       2.967   6.866   0.250  0.00  0.00    -0.465 OA
ATOM     15  C   UNL     1       3.622   7.980  -0.322  0.00  0.00    +0.253 C 
ENDBRANCH   5  14
ENDBRANCH   1   8
BRANCH   2  16
ATOM     16  C   UNL     1      -2.914   7.028  -4.095  0.00  0.00    +0.142 C 
BRANCH  16  17
ATOM     17  C   UNL     1      -1.951   6.798  -5.216  0.00  0.00    -0.000 A 
ATOM     18  C   UNL     1      -0.616   7.133  -5.023  0.00  0.00    +0.001 A 
ATOM     19  C   UNL     1       0.412   6.395  -5.599  0.00  0.00    +0.037 A 
ATOM     20  C   UNL     1       0.130   5.200  -6.248  0.00  0.00    +0.139 A 
ATOM     21  C   UNL     1      -1.165   5.085  -6.740  0.00  0.00    +0.037 A 
ATOM     22  C   UNL     1      -2.195   5.834  -6.185  0.00  0.00    +0.001 A 
BRANCH  20  23
ATOM     23  O   UNL     1       0.958   4.084  -6.092  0.00  0.00    -0.474 OA
BRANCH  23  24
ATOM     24  C   UNL     1       2.342   4.112  -6.352  0.00  0.00    +0.223 C 
BRANCH  24  25
ATOM     25  C   UNL     1       2.585   4.435  -7.816  0.00  0.00    +0.120 C 
BRANCH  25  26
ATOM     26  N   UNL     1       3.550   5.526  -7.856  0.00  0.00    -0.267 NA
ATOM     27  C   UNL     1       4.129   5.774  -6.549  0.00  0.00    +0.090 C 
ATOM     28  C   UNL     1       2.951   6.722  -8.401  0.00  0.00    +0.090 C 
ENDBRANCH  25  26
ENDBRANCH  24  25
ENDBRANCH  23  24
ENDBRANCH  20  23
ENDBRANCH  16  17
ENDBRANCH   2  16
TORSDOF 10
ENDMDL
MODEL 2
REMARK VINA RESULT:      -6.8      1.548      2.139
REMARK  Name = 
REMARK  10 active torsions:
REMARK  status: ('A' for Active; 'I' for Inactive)
REMARK    1  A    between atoms: O_2  and  C_3
REMARK    2  A    between atoms: C_5  and  C_6
REMARK    3  A    between atoms: N_8  and  C_9
REMARK    4  A    between atoms: C_9  and  C_10
REMARK    5  A    between atoms: C_13  and  O_14
REMARK    6  A    between atoms: O_14  and  C_15
REMARK    7  A    between atoms: C_15  and  C_16
REMARK    8  A    between atoms: C_16  and  N_17
REMARK    9  A    between atoms: C_23  and  O_24
REMARK   10  A    between atoms: C_26  and  O_27
REMARK                            x       y       z     vdW  Elec       q    Type
REMARK                         _______ _______ _______ _____ _____    ______ ____
ROOT
ATOM      1  C   UNL     1      -1.990   5.501  -2.921  0.00  0.00    +0.265 C 
ATOM      2  N   UNL     1      -2.096   6.671  -3.736  0.00  0.00    -0.197 NA
ATOM      3  O   UNL     1      -2.984   4.723  -2.963  0.00  0.00    -0.268 OA
ENDROOT
BRANCH   1   8
ATOM      4  C   UNL     1      -0.934   6.722   0.455  0.00  0.00    +0.176 A 
ATOM      5  C   UNL     1       0.428   6.712   0.183  0.00  0.00    +0.206 A 
ATOM      6  C   UNL     1       0.936   5.789  -0.723  0.00  0.00    +0.176 A 
ATOM      7  C   UNL     1       0.035   5.128  -1.543  0.00  0.00    +0.045 A 
ATOM      8  C   UNL     1      -1.236   5.644  -1.670  0.00  0.00    +0.061 A 
ATOM      9  C   UNL     1      -1.764   6.290  -0.567  0.00  0.00    +0.045 A 
BRANCH   6  10
ATOM     10  O   UNL     1       2.237   5.367  -0.547  0.00  0.00    -0.468 OA
ATOM     11  C   UNL     1       3.276   5.550  -1.474  0.00  0.00    +0.253 C 
ENDBRANCH   6  10
BRANCH   4  13
ATOM     12  C   UNL     1      -2.404   7.441   2.253  0.00  0.00    +0.253 C 
ATOM     13  O   UNL     1      -1.387   7.728   1.315  0.00  0.00    -0.468 OA
ENDBRANCH   4  13
BRANCH   5  14
ATOM     14  O   UNL     1       1.283   7.264   1.127  0.00  0.00    -0.465 OA
ATOM     15  C   UNL     1       1.923   8.474   0.778  0.00  0.00    +0.253 C 
ENDBRANCH   5  14
ENDBRANCH   1   8
BRANCH   2  16
ATOM     16  C   UNL     1      -2.366   6.432  -5.153  0.00  0.00    +0.142 C 
BRANCH  16  17
ATOM     17  C   UNL     1      -1.133   5.853  -5.770  0.00  0.00    -0.000 A 
ATOM     18  C   UNL     1      -1.223   5.310  -7.046  0.00  0.00    +0.001 A 
ATOM     19  C   UNL     1      -0.172   5.396  -7.952  0.00  0.00    +0.037 A 
ATOM     20  C   UNL     1       0.938   6.179  -7.656  0.00  0.00    +0.139 A 
ATOM     21  C   UNL     1       1.171   6.386  -6.302  0.00  0.00    +0.037 A 
ATOM     22  C   UNL     1       0.131   6.281  -5.387  0.00  0.00    +0.001 A 
BRANCH  20  23
ATOM     23  O   UNL     1       1.536   6.978  -8.635  0.00  0.00    -0.474 OA
BRANCH  23  24
ATOM     24  C   UNL     1       2.915   6.942  -8.920  0.00  0.00    +0.223 C 
BRANCH  24  25
ATOM     25  C   UNL     1       3.185   5.945 -10.034  0.00  0.00    +0.120 C 
BRANCH  25  26
ATOM     26  N   UNL     1       4.030   4.900  -9.472  0.00  0.00    -0.267 NA
ATOM     27  C   UNL     1       3.247   3.898  -8.774  0.00  0.00    +0.090 C 
ATOM     28  C   UNL     1       5.045   5.466  -8.613  0.00  0.00    +0.090 C 
ENDBRANCH  25  26
ENDBRANCH  24  25
ENDBRANCH  23  24
ENDBRANCH  20  23
ENDBRANCH  16  17
ENDBRANCH   2  16
TORSDOF 10
ENDMDL
MODEL 3
REMARK VINA RESULT:      -6.8      3.193      5.379
REMARK  Name = 
REMARK  10 active torsions:
REMARK  status: ('A' for Active; 'I' for Inactive)
REMARK    1  A    between atoms: O_2  and  C_3
REMARK    2  A    between atoms: C_5  and  C_6
REMARK    3  A    between atoms: N_8  and  C_9
REMARK    4  A    between atoms: C_9  and  C_10
REMARK    5  A    between atoms: C_13  and  O_14
REMARK    6  A    between atoms: O_14  and  C_15
REMARK    7  A    between atoms: C_15  and  C_16
REMARK    8  A    between atoms: C_16  and  N_17
REMARK    9  A    between atoms: C_23  and  O_24
REMARK   10  A    between atoms: C_26  and  O_27
REMARK                            x       y       z     vdW  Elec       q    Type
REMARK                         _______ _______ _______ _____ _____    ______ ____
ROOT
ATOM      1  C   UNL     1      -0.119   5.408  -6.896  0.00  0.00    +0.265 C 
ATOM      2  N   UNL     1       0.467   5.987  -8.066  0.00  0.00    -0.197 NA
ATOM      3  O   UNL     1      -1.348   5.132  -6.990  0.00  0.00    -0.268 OA
ENDROOT
BRANCH   1   8
ATOM      4  C   UNL     1       2.225   6.808  -4.337  0.00  0.00    +0.176 A 
ATOM      5  C   UNL     1       1.943   5.860  -3.361  0.00  0.00    +0.206 A 
ATOM      6  C   UNL     1       0.679   5.284  -3.315  0.00  0.00    +0.176 A 
ATOM      7  C   UNL     1      -0.143   5.446  -4.419  0.00  0.00    +0.045 A 
ATOM      8  C   UNL     1       0.425   5.850  -5.607  0.00  0.00    +0.061 A 
ATOM      9  C   UNL     1       1.520   6.691  -5.524  0.00  0.00    +0.045 A 
BRANCH   6  10
ATOM     10  O   UNL     1       0.211   4.862  -2.089  0.00  0.00    -0.468 OA
ATOM     11  C   UNL     1      -0.693   5.573  -1.283  0.00  0.00    +0.253 C 
ENDBRANCH   6  10
BRANCH   4  13
ATOM     12  C   UNL     1       4.468   6.711  -5.271  0.00  0.00    +0.253 C 
ATOM     13  O   UNL     1       3.539   7.286  -4.375  0.00  0.00    -0.468 OA
ENDBRANCH   4  13
BRANCH   5  14
ATOM     14  O   UNL     1       2.722   5.858  -2.213  0.00  0.00    -0.465 OA
ATOM     15  C   UNL     1       3.669   4.817  -2.086  0.00  0.00    +0.253 C 
ENDBRANCH   5  14
ENDBRANCH   1   8
BRANCH   2  16
ATOM     16  C   UNL     1       0.318   5.213  -9.296  0.00  0.00    +0.142 C 
BRANCH  16  17
ATOM     17  C   UNL     1       1.670   4.724  -9.705  0.00  0.00    -0.000 A 
ATOM     18  C   UNL     1       2.338   5.395 -10.724  0.00  0.00    +0.001 A 
ATOM     19  C   UNL     1       3.721   5.531 -10.723  0.00  0.00    +0.037 A 
ATOM     20  C   UNL     1       4.458   5.141  -9.612  0.00  0.00    +0.139 A 
ATOM     21  C   UNL     1       3.856   4.175  -8.814  0.00  0.00    +0.037 A 
ATOM     22  C   UNL     1       2.476   4.018  -8.823  0.00  0.00    +0.001 A 
BRANCH  20  23
ATOM     23  O   UNL     1       5.527   5.915  -9.150  0.00  0.00    -0.474 OA
BRANCH  23  24
ATOM     24  C   UNL     1       6.845   5.765  -9.624  0.00  0.00    +0.223 C 
BRANCH  24  25
ATOM     25  C   UNL     1       7.133   6.815 -10.683  0.00  0.00    +0.120 C 
BRANCH  25  26
ATOM     26  N   UNL     1       7.294   6.109 -11.947  0.00  0.00    -0.267 NA
ATOM     27  C   UNL     1       8.692   5.863 -12.248  0.00  0.00    +0.090 C 
ATOM     28  C   UNL     1       6.643   6.823 -13.021  0.00  0.00    +0.090 C 
ENDBRANCH  25  26
ENDBRANCH  24  25
ENDBRANCH  23  24
ENDBRANCH  20  23
ENDBRANCH  16  17
ENDBRANCH   2  16
TORSDOF 10
ENDMDL
MODEL 4
REMARK VINA RESULT:      -6.7      2.861      4.937
REMARK  Name = 
REMARK  10 active torsions:
REMARK  status: ('A' for Active; 'I' for Inactive)
REMARK    1  A    between atoms: O_2  and  C_3
REMARK    2  A    between atoms: C_5  and  C_6
REMARK    3  A    between atoms: N_8  and  C_9
REMARK    4  A    between atoms: C_9  and  C_10
REMARK    5  A    between atoms: C_13  and  O_14
REMARK    6  A    between atoms: O_14  and  C_15
REMARK    7  A    between atoms: C_15  and  C_16
REMARK    8  A    between atoms: C_16  and  N_17
REMARK    9  A    between atoms: C_23  and  O_24
REMARK   10  A    between atoms: C_26  and  O_27
REMARK                            x       y       z     vdW  Elec       q    Type
REMARK                         _______ _______ _______ _____ _____    ______ ____
ROOT
ATOM      1  C   UNL     1       2.013   6.176  -3.521  0.00  0.00    +0.265 C 
ATOM      2  N   UNL     1       1.596   5.611  -4.768  0.00  0.00    -0.197 NA
ATOM      3  O   UNL     1       3.261   6.293  -3.374  0.00  0.00    -0.268 OA
ENDROOT
BRANCH   1   8
ATOM      4  C   UNL     1      -0.973   5.305  -1.441  0.00  0.00    +0.176 A 
ATOM      5  C   UNL     1      -0.692   6.202  -0.417  0.00  0.00    +0.206 A 
ATOM      6  C   UNL     1       0.630   6.526  -0.139  0.00  0.00    +0.176 A 
ATOM      7  C   UNL     1       1.588   6.187  -1.080  0.00  0.00    +0.045 A 
ATOM      8  C   UNL     1       1.173   5.873  -2.356  0.00  0.00    +0.061 A 
ATOM      9  C   UNL     1      -0.060   5.260  -2.482  0.00  0.00    +0.045 A 
BRANCH   6  10
ATOM     10  O   UNL     1       0.945   6.877   1.157  0.00  0.00    -0.468 OA
ATOM     11  C   UNL     1       1.354   8.155   1.569  0.00  0.00    +0.253 C 
ENDBRANCH   6  10
BRANCH   4  13
ATOM     12  C   UNL     1      -2.863   5.501  -2.959  0.00  0.00    +0.253 C 
ATOM     13  O   UNL     1      -2.327   5.086  -1.719  0.00  0.00    -0.468 OA
ENDBRANCH   4  13
BRANCH   5  14
ATOM     14  O   UNL     1      -1.648   6.377   0.573  0.00  0.00    -0.465 OA
ATOM     15  C   UNL     1      -2.280   7.640   0.635  0.00  0.00    +0.253 C 
ENDBRANCH   5  14
ENDBRANCH   1   8
BRANCH   2  16
ATOM     16  C   UNL     1       2.083   6.295  -5.964  0.00  0.00    +0.142 C 
BRANCH  16  17
ATOM     17  C   UNL     1       2.971   5.351  -6.711  0.00  0.00    -0.000 A 
ATOM     18  C   UNL     1       2.384   4.421  -7.561  0.00  0.00    +0.001 A 
ATOM     19  C   UNL     1       2.999   4.021  -8.741  0.00  0.00    +0.037 A 
ATOM     20  C   UNL     1       4.144   4.671  -9.183  0.00  0.00    +0.139 A 
ATOM     21  C   UNL     1       4.890   5.295  -8.190  0.00  0.00    +0.037 A 
ATOM     22  C   UNL     1       4.289   5.679  -6.998  0.00  0.00    +0.001 A 
BRANCH  20  23
ATOM     23  O   UNL     1       4.322   4.976 -10.536  0.00  0.00    -0.474 OA
BRANCH  23  24
ATOM     24  C   UNL     1       5.200   5.980 -10.989  0.00  0.00    +0.223 C 
BRANCH  24  25
ATOM     25  C   UNL     1       6.314   5.356 -11.812  0.00  0.00    +0.120 C 
BRANCH  25  26
ATOM     26  N   UNL     1       7.571   5.736 -11.178  0.00  0.00    -0.267 NA
ATOM     27  C   UNL     1       7.492   7.057 -10.584  0.00  0.00    +0.090 C 
ATOM     28  C   UNL     1       8.667   5.645 -12.115  0.00  0.00    +0.090 C 
ENDBRANCH  25  26
ENDBRANCH  24  25
ENDBRANCH  23  24
ENDBRANCH  20  23
ENDBRANCH  16  17
ENDBRANCH   2  16
TORSDOF 10
ENDMDL
MODEL 5
REMARK VINA RESULT:      -6.7      2.231      2.762
REMARK  Name = 
REMARK  10 active torsions:
REMARK  status: ('A' for Active; 'I' for Inactive)
REMARK    1  A    between atoms: O_2  and  C_3
REMARK    2  A    between atoms: C_5  and  C_6
REMARK    3  A    between atoms: N_8  and  C_9
REMARK    4  A    between atoms: C_9  and  C_10
REMARK    5  A    between atoms: C_13  and  O_14
REMARK    6  A    between atoms: O_14  and  C_15
REMARK    7  A    between atoms: C_15  and  C_16
REMARK    8  A    between atoms: C_16  and  N_17
REMARK    9  A    between atoms: C_23  and  O_24
REMARK   10  A    between atoms: C_26  and  O_27
REMARK                            x       y       z     vdW  Elec       q    Type
REMARK                         _______ _______ _______ _____ _____    ______ ____
ROOT
ATOM      1  C   UNL     1      -2.437   6.909  -2.496  0.00  0.00    +0.265 C 
ATOM      2  N   UNL     1      -2.097   7.811  -3.553  0.00  0.00    -0.197 NA
ATOM      3  O   UNL     1      -3.666   6.636  -2.396  0.00  0.00    -0.268 OA
ENDROOT
BRANCH   1   8
ATOM      4  C   UNL     1      -0.839   8.226   0.621  0.00  0.00    +0.176 A 
ATOM      5  C   UNL     1       0.418   7.692   0.365  0.00  0.00    +0.206 A 
ATOM      6  C   UNL     1       0.522   6.511  -0.360  0.00  0.00    +0.176 A 
ATOM      7  C   UNL     1      -0.596   6.083  -1.058  0.00  0.00    +0.045 A 
ATOM      8  C   UNL     1      -1.613   6.985  -1.283  0.00  0.00    +0.061 A 
ATOM      9  C   UNL     1      -1.822   7.950  -0.316  0.00  0.00    +0.045 A 
BRANCH   6  10
ATOM     10  O   UNL     1       1.601   5.693  -0.103  0.00  0.00    -0.468 OA
ATOM     11  C   UNL     1       2.131   4.752  -1.001  0.00  0.00    +0.253 C 
ENDBRANCH   6  10
BRANCH   4  13
ATOM     12  C   UNL     1      -2.011   9.829   2.025  0.00  0.00    +0.253 C 
ATOM     13  O   UNL     1      -0.865   9.456   1.287  0.00  0.00    -0.468 OA
ENDBRANCH   4  13
BRANCH   5  14
ATOM     14  O   UNL     1       1.462   8.056   1.204  0.00  0.00    -0.465 OA
ATOM     15  C   UNL     1       2.440   8.922   0.666  0.00  0.00    +0.253 C 
ENDBRANCH   5  14
ENDBRANCH   1   8
BRANCH   2  16
ATOM     16  C   UNL     1      -2.533   7.411  -4.889  0.00  0.00    +0.142 C 
BRANCH  16  17
ATOM     17  C   UNL     1      -1.554   6.413  -5.419  0.00  0.00    -0.000 A 
ATOM     18  C   UNL     1      -1.956   5.574  -6.452  0.00  0.00    +0.001 A 
ATOM     19  C   UNL     1      -1.072   5.159  -7.441  0.00  0.00    +0.037 A 
ATOM     20  C   UNL     1       0.201   5.711  -7.511  0.00  0.00    +0.139 A 
ATOM     21  C   UNL     1       0.690   6.225  -6.316  0.00  0.00    +0.037 A 
ATOM     22  C   UNL     1      -0.186   6.624  -5.314  0.00  0.00    +0.001 A 
BRANCH  20  23
ATOM     23  O   UNL     1       0.773   6.045  -8.743  0.00  0.00    -0.474 OA
BRANCH  23  24
ATOM     24  C   UNL     1       0.068   5.979  -9.961  0.00  0.00    +0.223 C 
BRANCH  24  25
ATOM     25  C   UNL     1       0.801   5.071 -10.932  0.00  0.00    +0.120 C 
BRANCH  25  26
ATOM     26  N   UNL     1       1.005   5.837 -12.156  0.00  0.00    -0.267 NA
ATOM     27  C   UNL     1       2.412   6.094 -12.396  0.00  0.00    +0.090 C 
ATOM     28  C   UNL     1       0.243   7.064 -12.127  0.00  0.00    +0.090 C 
ENDBRANCH  25  26
ENDBRANCH  24  25
ENDBRANCH  23  24
ENDBRANCH  20  23
ENDBRANCH  16  17
ENDBRANCH   2  16
TORSDOF 10
ENDMDL
MODEL 6
REMARK VINA RESULT:      -6.6      3.841      9.231
REMARK  Name = 
REMARK  10 active torsions:
REMARK  status: ('A' for Active; 'I' for Inactive)
REMARK    1  A    between atoms: O_2  and  C_3
REMARK    2  A    between atoms: C_5  and  C_6
REMARK    3  A    between atoms: N_8  and  C_9
REMARK    4  A    between atoms: C_9  and  C_10
REMARK    5  A    between atoms: C_13  and  O_14
REMARK    6  A    between atoms: O_14  and  C_15
REMARK    7  A    between atoms: C_15  and  C_16
REMARK    8  A    between atoms: C_16  and  N_17
REMARK    9  A    between atoms: C_23  and  O_24
REMARK   10  A    between atoms: C_26  and  O_27
REMARK                            x       y       z     vdW  Elec       q    Type
REMARK                         _______ _______ _______ _____ _____    ______ ____
ROOT
ATOM      1  C   UNL     1       3.426   5.446  -8.414  0.00  0.00    +0.265 C 
ATOM      2  N   UNL     1       2.049   5.777  -8.216  0.00  0.00    -0.197 NA
ATOM      3  O   UNL     1       4.162   5.573  -7.396  0.00  0.00    -0.268 OA
ENDROOT
BRANCH   1   8
ATOM      4  C   UNL     1       3.684   5.857 -12.124  0.00  0.00    +0.176 A 
ATOM      5  C   UNL     1       4.942   5.277 -12.238  0.00  0.00    +0.206 A 
ATOM      6  C   UNL     1       5.838   5.378 -11.181  0.00  0.00    +0.176 A 
ATOM      7  C   UNL     1       5.340   5.779  -9.951  0.00  0.00    +0.045 A 
ATOM      8  C   UNL     1       3.979   5.724  -9.745  0.00  0.00    +0.061 A 
ATOM      9  C   UNL     1       3.168   5.950 -10.841  0.00  0.00    +0.045 A 
BRANCH   6  10
ATOM     10  O   UNL     1       7.184   5.375 -11.478  0.00  0.00    -0.468 OA
ATOM     11  C   UNL     1       8.048   6.469 -11.315  0.00  0.00    +0.253 C 
ENDBRANCH   6  10
BRANCH   4  13
ATOM     12  C   UNL     1       1.515   6.220 -13.160  0.00  0.00    +0.253 C 
ATOM     13  O   UNL     1       2.807   5.648 -13.193  0.00  0.00    -0.468 OA
ENDBRANCH   4  13
BRANCH   5  14
ATOM     14  O   UNL     1       5.435   5.041 -13.514  0.00  0.00    -0.465 OA
ATOM     15  C   UNL     1       5.765   6.174 -14.290  0.00  0.00    +0.253 C 
ENDBRANCH   5  14
ENDBRANCH   1   8
BRANCH   2  16
ATOM     16  C   UNL     1       1.375   5.059  -7.136  0.00  0.00    +0.142 C 
BRANCH  16  17
ATOM     17  C   UNL     1       0.141   5.820  -6.769  0.00  0.00    -0.000 A 
ATOM     18  C   UNL     1      -1.093   5.302  -7.143  0.00  0.00    +0.001 A 
ATOM     19  C   UNL     1      -2.222   5.460  -6.347  0.00  0.00    +0.037 A 
ATOM     20  C   UNL     1      -2.103   6.000  -5.072  0.00  0.00    +0.139 A 
ATOM     21  C   UNL     1      -0.998   6.820  -4.878  0.00  0.00    +0.037 A 
ATOM     22  C   UNL     1       0.127   6.683  -5.682  0.00  0.00    +0.001 A 
BRANCH  20  23
ATOM     23  O   UNL     1      -2.824   5.470  -3.997  0.00  0.00    -0.474 OA
BRANCH  23  24
ATOM     24  C   UNL     1      -3.199   6.232  -2.874  0.00  0.00    +0.223 C 
BRANCH  24  25
ATOM     25  C   UNL     1      -2.460   5.734  -1.644  0.00  0.00    +0.120 C 
BRANCH  25  26
ATOM     26  N   UNL     1      -1.448   6.733  -1.325  0.00  0.00    -0.267 NA
ATOM     27  C   UNL     1      -0.147   6.127  -1.115  0.00  0.00    +0.090 C 
ATOM     28  C   UNL     1      -1.848   7.526  -0.186  0.00  0.00    +0.090 C 
ENDBRANCH  25  26
ENDBRANCH  24  25
ENDBRANCH  23  24
ENDBRANCH  20  23
ENDBRANCH  16  17
ENDBRANCH   2  16
TORSDOF 10
ENDMDL
MODEL 7
REMARK VINA RESULT:      -6.6      6.591     12.292
REMARK  Name = 
REMARK  10 active torsions:
REMARK  status: ('A' for Active; 'I' for Inactive)
REMARK    1  A    between atoms: O_2  and  C_3
REMARK    2  A    between atoms: C_5  and  C_6
REMARK    3  A    between atoms: N_8  and  C_9
REMARK    4  A    between atoms: C_9  and  C_10
REMARK    5  A    between atoms: C_13  and  O_14
REMARK    6  A    between atoms: O_14  and  C_15
REMARK    7  A    between atoms: C_15  and  C_16
REMARK    8  A    between atoms: C_16  and  N_17
REMARK    9  A    between atoms: C_23  and  O_24
REMARK   10  A    between atoms: C_26  and  O_27
REMARK                            x       y       z     vdW  Elec       q    Type
REMARK                         _______ _______ _______ _____ _____    ______ ____
ROOT
ATOM      1  C   UNL     1       6.954   5.648 -12.797  0.00  0.00    +0.265 C 
ATOM      2  N   UNL     1       7.059   6.764 -11.908  0.00  0.00    -0.197 NA
ATOM      3  O   UNL     1       7.913   4.828 -12.745  0.00  0.00    -0.268 OA
ENDROOT
BRANCH   1   8
ATOM      4  C   UNL     1       6.309   6.861 -16.277  0.00  0.00    +0.176 A 
ATOM      5  C   UNL     1       4.989   7.232 -16.050  0.00  0.00    +0.206 A 
ATOM      6  C   UNL     1       4.241   6.545 -15.102  0.00  0.00    +0.176 A 
ATOM      7  C   UNL     1       4.922   5.729 -14.212  0.00  0.00    +0.045 A 
ATOM      8  C   UNL     1       6.283   5.896 -14.079  0.00  0.00    +0.061 A 
ATOM      9  C   UNL     1       6.980   6.298 -15.203  0.00  0.00    +0.045 A 
BRANCH   6  10
ATOM     10  O   UNL     1       2.878   6.471 -15.291  0.00  0.00    -0.468 OA
ATOM     11  C   UNL     1       1.921   6.473 -14.264  0.00  0.00    +0.253 C 
ENDBRANCH   6  10
BRANCH   4  13
ATOM     12  C   UNL     1       8.243   7.166 -17.719  0.00  0.00    +0.253 C 
ATOM     13  O   UNL     1       7.025   7.646 -17.186  0.00  0.00    -0.468 OA
ENDBRANCH   4  13
BRANCH   5  14
ATOM     14  O   UNL     1       4.326   7.922 -17.055  0.00  0.00    -0.465 OA
ATOM     15  C   UNL     1       4.103   9.301 -16.842  0.00  0.00    +0.253 C 
ENDBRANCH   5  14
ENDBRANCH   1   8
BRANCH   2  16
ATOM     16  C   UNL     1       7.233   6.432 -10.495  0.00  0.00    +0.142 C 
BRANCH  16  17
ATOM     17  C   UNL     1       5.937   5.891  -9.980  0.00  0.00    -0.000 A 
ATOM     18  C   UNL     1       5.930   5.247  -8.749  0.00  0.00    +0.001 A 
ATOM     19  C   UNL     1       4.844   5.334  -7.886  0.00  0.00    +0.037 A 
ATOM     20  C   UNL     1       3.802   6.209  -8.166  0.00  0.00    +0.139 A 
ATOM     21  C   UNL     1       3.649   6.535  -9.509  0.00  0.00    +0.037 A 
ATOM     22  C   UNL     1       4.724   6.432 -10.383  0.00  0.00    +0.001 A 
BRANCH  20  23
ATOM     23  O   UNL     1       3.209   6.969  -7.153  0.00  0.00    -0.474 OA
BRANCH  23  24
ATOM     24  C   UNL     1       1.894   7.466  -7.235  0.00  0.00    +0.223 C 
BRANCH  24  25
ATOM     25  C   UNL     1       1.008   6.745  -6.233  0.00  0.00    +0.120 C 
BRANCH  25  26
ATOM     26  N   UNL     1       0.666   5.456  -6.821  0.00  0.00    -0.267 NA
ATOM     27  C   UNL     1      -0.757   5.345  -7.076  0.00  0.00    +0.090 C 
ATOM     28  C   UNL     1       1.138   4.371  -5.991  0.00  0.00    +0.090 C 
ENDBRANCH  25  26
ENDBRANCH  24  25
ENDBRANCH  23  24
ENDBRANCH  20  23
ENDBRANCH  16  17
ENDBRANCH   2  16
TORSDOF 10
ENDMDL
MODEL 8
REMARK VINA RESULT:      -6.5      6.832     12.421
REMARK  Name = 
REMARK  10 active torsions:
REMARK  status: ('A' for Active; 'I' for Inactive)
REMARK    1  A    between atoms: O_2  and  C_3
REMARK    2  A    between atoms: C_5  and  C_6
REMARK    3  A    between atoms: N_8  and  C_9
REMARK    4  A    between atoms: C_9  and  C_10
REMARK    5  A    between atoms: C_13  and  O_14
REMARK    6  A    between atoms: O_14  and  C_15
REMARK    7  A    between atoms: C_15  and  C_16
REMARK    8  A    between atoms: C_16  and  N_17
REMARK    9  A    between atoms: C_23  and  O_24
REMARK   10  A    between atoms: C_26  and  O_27
REMARK                            x       y       z     vdW  Elec       q    Type
REMARK                         _______ _______ _______ _____ _____    ______ ____
ROOT
ATOM      1  C   UNL     1       7.128   5.620 -13.043  0.00  0.00    +0.265 C 
ATOM      2  N   UNL     1       7.721   6.795 -12.483  0.00  0.00    -0.197 NA
ATOM      3  O   UNL     1       7.829   4.573 -12.963  0.00  0.00    -0.268 OA
ENDROOT
BRANCH   1   8
ATOM      4  C   UNL     1       5.918   6.727 -16.407  0.00  0.00    +0.176 A 
ATOM      5  C   UNL     1       4.642   7.077 -15.984  0.00  0.00    +0.206 A 
ATOM      6  C   UNL     1       4.068   6.399 -14.915  0.00  0.00    +0.176 A 
ATOM      7  C   UNL     1       4.899   5.622 -14.125  0.00  0.00    +0.045 A 
ATOM      8  C   UNL     1       6.259   5.820 -14.210  0.00  0.00    +0.061 A 
ATOM      9  C   UNL     1       6.762   6.207 -15.438  0.00  0.00    +0.045 A 
BRANCH   6  10
ATOM     10  O   UNL     1       2.694   6.292 -14.887  0.00  0.00    -0.468 OA
ATOM     11  C   UNL     1       1.920   6.159 -13.723  0.00  0.00    +0.253 C 
ENDBRANCH   6  10
BRANCH   4  13
ATOM     12  C   UNL     1       7.401   8.516 -17.125  0.00  0.00    +0.253 C 
ATOM     13  O   UNL     1       6.465   7.503 -17.434  0.00  0.00    -0.468 OA
ENDBRANCH   4  13
BRANCH   5  14
ATOM     14  O   UNL     1       3.813   7.727 -16.888  0.00  0.00    -0.465 OA
ATOM     15  C   UNL     1       3.656   9.121 -16.722  0.00  0.00    +0.253 C 
ENDBRANCH   5  14
ENDBRANCH   1   8
BRANCH   2  16
ATOM     16  C   UNL     1       8.134   6.689 -11.085  0.00  0.00    +0.142 C 
BRANCH  16  17
ATOM     17  C   UNL     1       6.905   6.731 -10.233  0.00  0.00    -0.000 A 
ATOM     18  C   UNL     1       5.749   7.291 -10.764  0.00  0.00    +0.001 A 
ATOM     19  C   UNL     1       4.488   6.804 -10.439  0.00  0.00    +0.037 A 
ATOM     20  C   UNL     1       4.363   5.633  -9.702  0.00  0.00    +0.139 A 
ATOM     21  C   UNL     1       5.454   5.322  -8.899  0.00  0.00    +0.037 A 
ATOM     22  C   UNL     1       6.714   5.820  -9.204  0.00  0.00    +0.001 A 
BRANCH  20  23
ATOM     23  O   UNL     1       3.391   4.681 -10.024  0.00  0.00    -0.474 OA
BRANCH  23  24
ATOM     24  C   UNL     1       2.184   4.544  -9.311  0.00  0.00    +0.223 C 
BRANCH  24  25
ATOM     25  C   UNL     1       1.006   4.717 -10.254  0.00  0.00    +0.120 C 
BRANCH  25  26
ATOM     26  N   UNL     1       0.208   5.821  -9.736  0.00  0.00    -0.267 NA
ATOM     27  C   UNL     1      -0.154   6.756 -10.785  0.00  0.00    +0.090 C 
ATOM     28  C   UNL     1       0.893   6.486  -8.652  0.00  0.00    +0.090 C 
ENDBRANCH  25  26
ENDBRANCH  24  25
ENDBRANCH  23  24
ENDBRANCH  20  23
ENDBRANCH  16  17
ENDBRANCH   2  16
TORSDOF 10
ENDMDL
MODEL 9
REMARK VINA RESULT:      -6.5      3.501      8.895
REMARK  Name = 
REMARK  10 active torsions:
REMARK  status: ('A' for Active; 'I' for Inactive)
REMARK    1  A    between atoms: O_2  and  C_3
REMARK    2  A    between atoms: C_5  and  C_6
REMARK    3  A    between atoms: N_8  and  C_9
REMARK    4  A    between atoms: C_9  and  C_10
REMARK    5  A    between atoms: C_13  and  O_14
REMARK    6  A    between atoms: O_14  and  C_15
REMARK    7  A    between atoms: C_15  and  C_16
REMARK    8  A    between atoms: C_16  and  N_17
REMARK    9  A    between atoms: C_23  and  O_24
REMARK   10  A    between atoms: C_26  and  O_27
REMARK                            x       y       z     vdW  Elec       q    Type
REMARK                         _______ _______ _______ _____ _____    ______ ____
ROOT
ATOM      1  C   UNL     1       4.628   5.382  -8.159  0.00  0.00    +0.265 C 
ATOM      2  N   UNL     1       4.231   6.030  -6.947  0.00  0.00    -0.197 NA
ATOM      3  O   UNL     1       5.796   4.901  -8.154  0.00  0.00    -0.268 OA
ENDROOT
BRANCH   1   8
ATOM      4  C   UNL     1       2.201   6.313 -10.850  0.00  0.00    +0.176 A 
ATOM      5  C   UNL     1       3.050   6.013 -11.909  0.00  0.00    +0.206 A 
ATOM      6  C   UNL     1       4.423   6.152 -11.743  0.00  0.00    +0.176 A 
ATOM      7  C   UNL     1       4.905   6.285 -10.450  0.00  0.00    +0.045 A 
ATOM      8  C   UNL     1       4.080   5.935  -9.404  0.00  0.00    +0.061 A 
ATOM      9  C   UNL     1       2.723   6.135  -9.579  0.00  0.00    +0.045 A 
BRANCH   6  10
ATOM     10  O   UNL     1       5.177   6.454 -12.856  0.00  0.00    -0.468 OA
ATOM     11  C   UNL     1       6.039   5.561 -13.512  0.00  0.00    +0.253 C 
ENDBRANCH   6  10
BRANCH   4  13
ATOM     12  C   UNL     1       0.168   5.107 -10.281  0.00  0.00    +0.253 C 
ATOM     13  O   UNL     1       0.839   6.074 -11.062  0.00  0.00    -0.468 OA
ENDBRANCH   4  13
BRANCH   5  14
ATOM     14  O   UNL     1       2.525   6.046 -13.193  0.00  0.00    -0.465 OA
ATOM     15  C   UNL     1       2.355   4.804 -13.845  0.00  0.00    +0.253 C 
ENDBRANCH   5  14
ENDBRANCH   1   8
BRANCH   2  16
ATOM     16  C   UNL     1       4.330   5.218  -5.736  0.00  0.00    +0.142 C 
BRANCH  16  17
ATOM     17  C   UNL     1       2.953   4.766  -5.364  0.00  0.00    -0.000 A 
ATOM     18  C   UNL     1       2.255   5.490  -4.405  0.00  0.00    +0.001 A 
ATOM     19  C   UNL     1       0.875   5.645  -4.470  0.00  0.00    +0.037 A 
ATOM     20  C   UNL     1       0.180   5.218  -5.594  0.00  0.00    +0.139 A 
ATOM     21  C   UNL     1       0.799   4.210  -6.324  0.00  0.00    +0.037 A 
ATOM     22  C   UNL     1       2.175   4.034  -6.249  0.00  0.00    +0.001 A 
BRANCH  20  23
ATOM     23  O   UNL     1      -0.857   5.985  -6.133  0.00  0.00    -0.474 OA
BRANCH  23  24
ATOM     24  C   UNL     1      -2.183   5.926  -5.662  0.00  0.00    +0.223 C 
BRANCH  24  25
ATOM     25  C   UNL     1      -2.501   7.175  -4.859  0.00  0.00    +0.120 C 
BRANCH  25  26
ATOM     26  N   UNL     1      -2.968   6.730  -3.552  0.00  0.00    -0.267 NA
ATOM     27  C   UNL     1      -2.154   7.273  -2.481  0.00  0.00    +0.090 C 
ATOM     28  C   UNL     1      -3.025   5.288  -3.490  0.00  0.00    +0.090 C 
ENDBRANCH  25  26
ENDBRANCH  24  25
ENDBRANCH  23  24
ENDBRANCH  20  23
ENDBRANCH  16  17
ENDBRANCH   2  16
TORSDOF 10
ENDMDL
