MODEL 1
REMARK VINA RESULT:      -8.5      0.000      0.000
REMARK  Name = 
REMARK  7 active torsions:
REMARK  status: ('A' for Active; 'I' for Inactive)
REMARK    1  A    between atoms: N_2  and  C_3
REMARK    2  A    between atoms: C_3  and  C_5
REMARK    3  A    between atoms: C_10  and  O_11
REMARK    4  A    between atoms: O_11  and  C_12
REMARK    5  A    between atoms: C_15  and  O_16
REMARK    6  A    between atoms: O_16  and  C_17
REMARK    7  A    between atoms: C_23  and  N_24
REMARK                            x       y       z     vdW  Elec       q    Type
REMARK                         _______ _______ _______ _____ _____    ______ ____
ROOT
ATOM      1  C   UNL     1       1.751   6.543  -5.863  0.00  0.00    +0.168 C 
ATOM      2  C   UNL     1       1.186   4.937  -5.714  0.00  0.00    +0.123 C 
ATOM      3  N   UNL     1      -0.250   5.444  -5.364  0.00  0.00    -0.130 NA
ATOM      4  C   UNL     1       0.823   4.687  -7.290  0.00  0.00    +0.043 C 
ATOM      5  C   UNL     1       2.340   4.092  -7.467  0.00  0.00    +0.123 C 
ATOM      6  N   UNL     1       2.126   3.517  -8.889  0.00  0.00    -0.130 NA
ATOM      7  C   UNL     1       3.124   5.580  -7.850  0.00  0.00    +0.168 C 
ATOM      8  C   UNL     1       1.788   6.607  -7.557  0.00  0.00    +0.209 C 
ATOM      9  O   UNL     1       2.704   7.794  -7.473  0.00  0.00    -0.218 OA
ENDROOT
BRANCH   1  10
ATOM     10  O   UNL     1       3.174   6.151  -5.568  0.00  0.00    -0.328 OA
BRANCH  10  13
ATOM     11  C   UNL     1       2.906   6.602  -2.043  0.00  0.00    +0.134 C 
ATOM     12  O   UNL     1       3.301   5.930  -3.332  0.00  0.00    -0.331 OA
ATOM     13  C   UNL     1       3.082   7.053  -4.332  0.00  0.00    +0.253 C 
ATOM     14  C   UNL     1       4.757   7.478  -4.494  0.00  0.00    +0.148 C 
ATOM     15  N   UNL     1       5.366   6.077  -4.180  0.00  0.00    -0.128 NA
ATOM     16  C   UNL     1       4.846   7.957  -2.945  0.00  0.00    +0.027 C 
ATOM     17  C   UNL     1       3.496   8.085  -2.402  0.00  0.00    +0.033 C 
BRANCH  11  18
ATOM     18  C   UNL     1       4.346   6.065  -1.267  0.00  0.00    +0.100 C 
ATOM     19  C   UNL     1       3.750   4.558  -1.081  0.00  0.00    +0.021 C 
BRANCH  18  21
ATOM     20  C   UNL     1       4.625   6.894   0.751  0.00  0.00    +0.107 C 
ATOM     21  N   UNL     1       3.938   6.478   0.183  0.00  0.00    -0.215 NA
ENDBRANCH  18  21
ENDBRANCH  11  18
ENDBRANCH  10  13
ENDBRANCH   1  10
BRANCH   7  22
ATOM     22  O   UNL     1       3.057   5.694  -9.273  0.00  0.00    -0.327 OA
BRANCH  22  23
ATOM     23  C   UNL     1       3.913   5.325 -10.383  0.00  0.00    +0.268 C 
ATOM     24  C   UNL     1       3.924   6.853 -11.202  0.00  0.00    +0.226 C 
ATOM     25  O   UNL     1       4.683   7.636 -10.186  0.00  0.00    -0.216 OA
ATOM     26  C   UNL     1       5.213   6.534 -12.284  0.00  0.00    +0.138 C 
ATOM     27  C   UNL     1       6.458   6.541 -11.243  0.00  0.00    +0.171 C 
ATOM     28  O   UNL     1       7.504   6.203 -12.123  0.00  0.00    -0.222 OA
ATOM     29  C   UNL     1       6.870   7.984 -10.996  0.00  0.00    +0.037 C 
ATOM     30  C   UNL     1       6.231   5.654 -10.175  0.00  0.00    +0.176 C 
ATOM     31  O   UNL     1       5.130   5.604  -9.486  0.00  0.00    -0.326 OA
BRANCH  26  32
ATOM     32  N   UNL     1       5.055   4.977 -12.323  0.00  0.00    -0.213 NA
ATOM     33  C   UNL     1       4.571   4.563 -13.569  0.00  0.00    +0.108 C 
ENDBRANCH  26  32
ENDBRANCH  22  23
ENDBRANCH   7  22
TORSDOF 7
ENDMDL
MODEL 2
REMARK VINA RESULT:      -8.2      3.291      4.997
REMARK  Name = 
REMARK  7 active torsions:
REMARK  status: ('A' for Active; 'I' for Inactive)
REMARK    1  A    between atoms: N_2  and  C_3
REMARK    2  A    between atoms: C_3  and  C_5
REMARK    3  A    between atoms: C_10  and  O_11
REMARK    4  A    between atoms: O_11  and  C_12
REMARK    5  A    between atoms: C_15  and  O_16
REMARK    6  A    between atoms: O_16  and  C_17
REMARK    7  A    between atoms: C_23  and  N_24
REMARK                            x       y       z     vdW  Elec       q    Type
REMARK                         _______ _______ _______ _____ _____    ______ ____
ROOT
ATOM      1  C   UNL     1       1.230   5.040  -3.463  0.00  0.00    +0.168 C 
ATOM      2  C   UNL     1       2.229   6.135  -2.614  0.00  0.00    +0.123 C 
ATOM      3  N   UNL     1       2.646   5.018  -1.603  0.00  0.00    -0.130 NA
ATOM      4  C   UNL     1       3.576   5.954  -3.526  0.00  0.00    +0.043 C 
ATOM      5  C   UNL     1       3.041   7.209  -4.432  0.00  0.00    +0.123 C 
ATOM      6  N   UNL     1       4.350   7.400  -5.238  0.00  0.00    -0.130 NA
ATOM      7  C   UNL     1       2.112   6.296  -5.562  0.00  0.00    +0.168 C 
ATOM      8  C   UNL     1       2.262   4.780  -4.784  0.00  0.00    +0.209 C 
ATOM      9  O   UNL     1       1.094   4.249  -5.566  0.00  0.00    -0.218 OA
ENDROOT
BRANCH   1  10
ATOM     10  O   UNL     1       0.355   6.138  -4.005  0.00  0.00    -0.328 OA
BRANCH  10  13
ATOM     11  C   UNL     1      -1.253   6.044  -0.826  0.00  0.00    +0.134 C 
ATOM     12  O   UNL     1      -0.472   6.633  -1.972  0.00  0.00    -0.331 OA
ATOM     13  C   UNL     1      -0.741   5.617  -3.069  0.00  0.00    +0.253 C 
ATOM     14  C   UNL     1      -1.930   6.567  -3.904  0.00  0.00    +0.148 C 
ATOM     15  N   UNL     1      -1.403   7.978  -3.497  0.00  0.00    -0.128 NA
ATOM     16  C   UNL     1      -2.955   6.496  -2.647  0.00  0.00    +0.027 C 
ATOM     17  C   UNL     1      -2.502   5.468  -1.713  0.00  0.00    +0.033 C 
BRANCH  11  18
ATOM     18  C   UNL     1      -2.004   7.558  -0.499  0.00  0.00    +0.100 C 
ATOM     19  C   UNL     1      -0.638   8.157   0.160  0.00  0.00    +0.021 C 
BRANCH  18  21
ATOM     20  C   UNL     1      -2.743   7.898   1.545  0.00  0.00    +0.107 C 
ATOM     21  N   UNL     1      -2.591   7.174   0.897  0.00  0.00    -0.215 NA
ENDBRANCH  18  21
ENDBRANCH  11  18
ENDBRANCH  10  13
ENDBRANCH   1  10
BRANCH   7  22
ATOM     22  O   UNL     1       3.011   5.975  -6.627  0.00  0.00    -0.327 OA
BRANCH  22  23
ATOM     23  C   UNL     1       3.230   6.456  -7.977  0.00  0.00    +0.268 C 
ATOM     24  C   UNL     1       3.331   4.917  -8.770  0.00  0.00    +0.226 C 
ATOM     25  O   UNL     1       1.917   4.485  -8.585  0.00  0.00    -0.216 OA
ATOM     26  C   UNL     1       3.211   5.474 -10.386  0.00  0.00    +0.138 C 
ATOM     27  C   UNL     1       1.652   5.922 -10.411  0.00  0.00    +0.171 C 
ATOM     28  O   UNL     1       1.578   6.449 -11.714  0.00  0.00    -0.222 OA
ATOM     29  C   UNL     1       0.800   4.686 -10.652  0.00  0.00    +0.037 C 
ATOM     30  C   UNL     1       1.364   6.813  -9.361  0.00  0.00    +0.176 C 
ATOM     31  O   UNL     1       1.708   6.621  -8.122  0.00  0.00    -0.326 OA
BRANCH  26  32
ATOM     32  N   UNL     1       3.780   6.912 -10.139  0.00  0.00    -0.213 NA
ATOM     33  C   UNL     1       4.916   7.133 -10.927  0.00  0.00    +0.108 C 
ENDBRANCH  26  32
ENDBRANCH  22  23
ENDBRANCH   7  22
TORSDOF 7
ENDMDL
MODEL 3
REMARK VINA RESULT:      -8.0      3.324      9.178
REMARK  Name = 
REMARK  7 active torsions:
REMARK  status: ('A' for Active; 'I' for Inactive)
REMARK    1  A    between atoms: N_2  and  C_3
REMARK    2  A    between atoms: C_3  and  C_5
REMARK    3  A    between atoms: C_10  and  O_11
REMARK    4  A    between atoms: O_11  and  C_12
REMARK    5  A    between atoms: C_15  and  O_16
REMARK    6  A    between atoms: O_16  and  C_17
REMARK    7  A    between atoms: C_23  and  N_24
REMARK                            x       y       z     vdW  Elec       q    Type
REMARK                         _______ _______ _______ _____ _____    ______ ____
ROOT
ATOM      1  C   UNL     1       3.010   6.420  -9.340  0.00  0.00    +0.168 C 
ATOM      2  C   UNL     1       3.896   4.966  -9.193  0.00  0.00    +0.123 C 
ATOM      3  N   UNL     1       5.229   5.710  -9.528  0.00  0.00    -0.130 NA
ATOM      4  C   UNL     1       4.149   5.028  -7.577  0.00  0.00    +0.043 C 
ATOM      5  C   UNL     1       2.772   4.157  -7.404  0.00  0.00    +0.123 C 
ATOM      6  N   UNL     1       2.960   3.852  -5.897  0.00  0.00    -0.130 NA
ATOM      7  C   UNL     1       1.673   5.483  -7.316  0.00  0.00    +0.168 C 
ATOM      8  C   UNL     1       2.799   6.718  -7.684  0.00  0.00    +0.209 C 
ATOM      9  O   UNL     1       1.677   7.659  -8.017  0.00  0.00    -0.218 OA
ENDROOT
BRANCH   1  10
ATOM     10  O   UNL     1       1.728   5.697  -9.658  0.00  0.00    -0.328 OA
BRANCH  10  13
ATOM     11  C   UNL     1       1.802   6.459 -13.139  0.00  0.00    +0.134 C 
ATOM     12  O   UNL     1       1.622   5.614 -11.905  0.00  0.00    -0.331 OA
ATOM     13  C   UNL     1       1.557   6.679 -10.822  0.00  0.00    +0.253 C 
ATOM     14  C   UNL     1      -0.168   6.634 -10.631  0.00  0.00    +0.148 C 
ATOM     15  N   UNL     1      -0.392   5.148 -11.050  0.00  0.00    -0.128 NA
ATOM     16  C   UNL     1      -0.409   7.184 -12.139  0.00  0.00    +0.027 C 
ATOM     17  C   UNL     1       0.849   7.704 -12.669  0.00  0.00    +0.033 C 
BRANCH  11  18
ATOM     18  C   UNL     1       0.540   5.619 -13.955  0.00  0.00    +0.100 C 
ATOM     19  C   UNL     1       1.493   4.320 -14.210  0.00  0.00    +0.021 C 
BRANCH  18  21
ATOM     20  C   UNL     1       0.073   6.583 -15.876  0.00  0.00    +0.107 C 
ATOM     21  N   UNL     1       0.827   6.195 -15.379  0.00  0.00    -0.215 NA
ENDBRANCH  18  21
ENDBRANCH  11  18
ENDBRANCH  10  13
ENDBRANCH   1  10
BRANCH   7  22
ATOM     22  O   UNL     1       1.580   5.814  -5.928  0.00  0.00    -0.327 OA
BRANCH  22  23
ATOM     23  C   UNL     1       0.688   5.466  -4.838  0.00  0.00    +0.268 C 
ATOM     24  C   UNL     1       0.367   7.071  -4.266  0.00  0.00    +0.226 C 
ATOM     25  O   UNL     1      -0.403   7.569  -5.441  0.00  0.00    -0.216 OA
ATOM     26  C   UNL     1      -0.956   6.698  -3.243  0.00  0.00    +0.138 C 
ATOM     27  C   UNL     1      -2.083   6.355  -4.359  0.00  0.00    +0.171 C 
ATOM     28  O   UNL     1      -3.144   5.975  -3.515  0.00  0.00    -0.222 OA
ATOM     29  C   UNL     1      -2.684   7.661  -4.852  0.00  0.00    +0.037 C 
ATOM     30  C   UNL     1      -1.622   5.377  -5.260  0.00  0.00    +0.176 C 
ATOM     31  O   UNL     1      -0.466   5.414  -5.853  0.00  0.00    -0.326 OA
BRANCH  26  32
ATOM     32  N   UNL     1      -0.566   5.209  -2.955  0.00  0.00    -0.213 NA
ATOM     33  C   UNL     1      -0.281   5.029  -1.597  0.00  0.00    +0.108 C 
ENDBRANCH  26  32
ENDBRANCH  22  23
ENDBRANCH   7  22
TORSDOF 7
ENDMDL
MODEL 4
REMARK VINA RESULT:      -8.0      1.010      1.803
REMARK  Name = 
REMARK  7 active torsions:
REMARK  status: ('A' for Active; 'I' for Inactive)
REMARK    1  A    between atoms: N_2  and  C_3
REMARK    2  A    between atoms: C_3  and  C_5
REMARK    3  A    between atoms: C_10  and  O_11
REMARK    4  A    between atoms: O_11  and  C_12
REMARK    5  A    between atoms: C_15  and  O_16
REMARK    6  A    between atoms: O_16  and  C_17
REMARK    7  A    between atoms: C_23  and  N_24
REMARK                            x       y       z     vdW  Elec       q    Type
REMARK                         _______ _______ _______ _____ _____    ______ ____
ROOT
ATOM      1  C   UNL     1       1.621   6.540  -5.647  0.00  0.00    +0.168 C 
ATOM      2  C   UNL     1       1.012   4.944  -5.681  0.00  0.00    +0.123 C 
ATOM      3  N   UNL     1      -0.429   5.455  -5.358  0.00  0.00    -0.130 NA
ATOM      4  C   UNL     1       0.729   4.853  -7.291  0.00  0.00    +0.043 C 
ATOM      5  C   UNL     1       2.239   4.236  -7.446  0.00  0.00    +0.123 C 
ATOM      6  N   UNL     1       2.088   3.804  -8.926  0.00  0.00    -0.130 NA
ATOM      7  C   UNL     1       3.076   5.730  -7.644  0.00  0.00    +0.168 C 
ATOM      8  C   UNL     1       1.750   6.762  -7.324  0.00  0.00    +0.209 C 
ATOM      9  O   UNL     1       2.687   7.910  -7.079  0.00  0.00    -0.218 OA
ENDROOT
BRANCH   1  10
ATOM     10  O   UNL     1       3.017   6.083  -5.319  0.00  0.00    -0.328 OA
BRANCH  10  13
ATOM     11  C   UNL     1       2.938   6.652  -1.801  0.00  0.00    +0.134 C 
ATOM     12  O   UNL     1       3.287   5.952  -3.089  0.00  0.00    -0.331 OA
ATOM     13  C   UNL     1       2.955   7.025  -4.111  0.00  0.00    +0.253 C 
ATOM     14  C   UNL     1       4.595   7.520  -4.390  0.00  0.00    +0.148 C 
ATOM     15  N   UNL     1       5.289   6.160  -4.066  0.00  0.00    -0.128 NA
ATOM     16  C   UNL     1       4.754   8.059  -2.867  0.00  0.00    +0.027 C 
ATOM     17  C   UNL     1       3.434   8.146  -2.247  0.00  0.00    +0.033 C 
BRANCH  11  18
ATOM     18  C   UNL     1       4.445   6.210  -1.097  0.00  0.00    +0.100 C 
ATOM     19  C   UNL     1       3.984   4.652  -0.952  0.00  0.00    +0.021 C 
BRANCH  18  21
ATOM     20  C   UNL     1       4.737   6.964   0.949  0.00  0.00    +0.107 C 
ATOM     21  N   UNL     1       4.058   6.534   0.382  0.00  0.00    -0.215 NA
ENDBRANCH  18  21
ENDBRANCH  11  18
ENDBRANCH  10  13
ENDBRANCH   1  10
BRANCH   7  22
ATOM     22  O   UNL     1       3.088   5.980  -9.052  0.00  0.00    -0.327 OA
BRANCH  22  23
ATOM     23  C   UNL     1       3.931   6.729  -9.964  0.00  0.00    +0.268 C 
ATOM     24  C   UNL     1       5.122   5.502 -10.257  0.00  0.00    +0.226 C 
ATOM     25  O   UNL     1       4.261   4.540 -11.001  0.00  0.00    -0.216 OA
ATOM     26  C   UNL     1       5.892   6.236 -11.599  0.00  0.00    +0.138 C 
ATOM     27  C   UNL     1       4.734   6.053 -12.720  0.00  0.00    +0.171 C 
ATOM     28  O   UNL     1       5.340   6.725 -13.799  0.00  0.00    -0.222 OA
ATOM     29  C   UNL     1       4.831   4.646 -13.287  0.00  0.00    +0.037 C 
ATOM     30  C   UNL     1       3.507   6.576 -12.271  0.00  0.00    +0.176 C 
ATOM     31  O   UNL     1       2.985   6.324 -11.107  0.00  0.00    -0.326 OA
BRANCH  26  32
ATOM     32  N   UNL     1       5.532   7.718 -11.245  0.00  0.00    -0.213 NA
ATOM     33  C   UNL     1       6.666   8.533 -11.327  0.00  0.00    +0.108 C 
ENDBRANCH  26  32
ENDBRANCH  22  23
ENDBRANCH   7  22
TORSDOF 7
ENDMDL
MODEL 5
REMARK VINA RESULT:      -7.9      1.966      8.710
REMARK  Name = 
REMARK  7 active torsions:
REMARK  status: ('A' for Active; 'I' for Inactive)
REMARK    1  A    between atoms: N_2  and  C_3
REMARK    2  A    between atoms: C_3  and  C_5
REMARK    3  A    between atoms: C_10  and  O_11
REMARK    4  A    between atoms: O_11  and  C_12
REMARK    5  A    between atoms: C_15  and  O_16
REMARK    6  A    between atoms: O_16  and  C_17
REMARK    7  A    between atoms: C_23  and  N_24
REMARK                            x       y       z     vdW  Elec       q    Type
REMARK                         _______ _______ _______ _____ _____    ______ ____
ROOT
ATOM      1  C   UNL     1       3.866   5.283  -9.926  0.00  0.00    +0.168 C 
ATOM      2  C   UNL     1       2.501   6.206 -10.379  0.00  0.00    +0.123 C 
ATOM      3  N   UNL     1       1.847   4.960 -11.059  0.00  0.00    -0.130 NA
ATOM      4  C   UNL     1       1.647   6.027  -8.995  0.00  0.00    +0.043 C 
ATOM      5  C   UNL     1       2.354   7.408  -8.468  0.00  0.00    +0.123 C 
ATOM      6  N   UNL     1       1.452   7.588  -7.222  0.00  0.00    -0.130 NA
ATOM      7  C   UNL     1       3.744   6.690  -7.743  0.00  0.00    +0.168 C 
ATOM      8  C   UNL     1       3.468   5.092  -8.288  0.00  0.00    +0.209 C 
ATOM      9  O   UNL     1       4.899   4.735  -8.003  0.00  0.00    -0.218 OA
ENDROOT
BRANCH   1  10
ATOM     10  O   UNL     1       4.758   6.494  -9.857  0.00  0.00    -0.328 OA
BRANCH  10  13
ATOM     11  C   UNL     1       5.754   5.444 -13.113  0.00  0.00    +0.134 C 
ATOM     12  O   UNL     1       5.138   6.338 -12.069  0.00  0.00    -0.331 OA
ATOM     13  C   UNL     1       5.712   5.745 -10.793  0.00  0.00    +0.253 C 
ATOM     14  C   UNL     1       6.926   6.964 -10.560  0.00  0.00    +0.148 C 
ATOM     15  N   UNL     1       6.186   8.143 -11.263  0.00  0.00    -0.128 NA
ATOM     16  C   UNL     1       7.704   6.533 -11.918  0.00  0.00    +0.027 C 
ATOM     17  C   UNL     1       7.199   5.240 -12.373  0.00  0.00    +0.033 C 
BRANCH  11  18
ATOM     18  C   UNL     1       6.266   6.801 -14.041  0.00  0.00    +0.100 C 
ATOM     19  C   UNL     1       4.870   6.821 -14.885  0.00  0.00    +0.021 C 
BRANCH  18  21
ATOM     20  C   UNL     1       7.090   6.408 -16.042  0.00  0.00    +0.107 C 
ATOM     21  N   UNL     1       7.006   5.993 -15.154  0.00  0.00    -0.215 NA
ENDBRANCH  18  21
ENDBRANCH  11  18
ENDBRANCH  10  13
ENDBRANCH   1  10
BRANCH   7  22
ATOM     22  O   UNL     1       3.374   6.421  -6.388  0.00  0.00    -0.327 OA
BRANCH  22  23
ATOM     23  C   UNL     1       3.701   6.987  -5.094  0.00  0.00    +0.268 C 
ATOM     24  C   UNL     1       2.299   6.445  -4.229  0.00  0.00    +0.226 C 
ATOM     25  O   UNL     1       2.583   4.982  -4.254  0.00  0.00    -0.216 OA
ATOM     26  C   UNL     1       2.854   6.779  -2.643  0.00  0.00    +0.138 C 
ATOM     27  C   UNL     1       3.983   5.623  -2.494  0.00  0.00    +0.171 C 
ATOM     28  O   UNL     1       4.488   5.949  -1.221  0.00  0.00    -0.222 OA
ATOM     29  C   UNL     1       3.294   4.325  -2.103  0.00  0.00    +0.037 C 
ATOM     30  C   UNL     1       4.900   5.671  -3.559  0.00  0.00    +0.176 C 
ATOM     31  O   UNL     1       4.564   5.745  -4.813  0.00  0.00    -0.326 OA
BRANCH  26  32
ATOM     32  N   UNL     1       3.854   7.923  -3.023  0.00  0.00    -0.213 NA
ATOM     33  C   UNL     1       3.875   8.907  -2.029  0.00  0.00    +0.108 C 
ENDBRANCH  26  32
ENDBRANCH  22  23
ENDBRANCH   7  22
TORSDOF 7
ENDMDL
MODEL 6
REMARK VINA RESULT:      -7.6      3.221      8.708
REMARK  Name = 
REMARK  7 active torsions:
REMARK  status: ('A' for Active; 'I' for Inactive)
REMARK    1  A    between atoms: N_2  and  C_3
REMARK    2  A    between atoms: C_3  and  C_5
REMARK    3  A    between atoms: C_10  and  O_11
REMARK    4  A    between atoms: O_11  and  C_12
REMARK    5  A    between atoms: C_15  and  O_16
REMARK    6  A    between atoms: O_16  and  C_17
REMARK    7  A    between atoms: C_23  and  N_24
REMARK                            x       y       z     vdW  Elec       q    Type
REMARK                         _______ _______ _______ _____ _____    ______ ____
ROOT
ATOM      1  C   UNL     1      -0.635   5.196  -6.263  0.00  0.00    +0.168 C 
ATOM      2  C   UNL     1      -2.029   6.184  -6.229  0.00  0.00    +0.123 C 
ATOM      3  N   UNL     1      -2.950   4.945  -6.471  0.00  0.00    -0.130 NA
ATOM      4  C   UNL     1      -2.265   6.171  -4.610  0.00  0.00    +0.043 C 
ATOM      5  C   UNL     1      -1.351   7.529  -4.541  0.00  0.00    +0.123 C 
ATOM      6  N   UNL     1      -1.672   7.868  -3.064  0.00  0.00    -0.130 NA
ATOM      7  C   UNL     1       0.182   6.763  -4.357  0.00  0.00    +0.168 C 
ATOM      8  C   UNL     1      -0.353   5.155  -4.592  0.00  0.00    +0.209 C 
ATOM      9  O   UNL     1       1.056   4.712  -4.860  0.00  0.00    -0.218 OA
ENDROOT
BRANCH   1  10
ATOM     10  O   UNL     1       0.258   6.337  -6.669  0.00  0.00    -0.328 OA
BRANCH  10  13
ATOM     11  C   UNL     1       0.350   5.244 -10.060  0.00  0.00    +0.134 C 
ATOM     12  O   UNL     1       0.189   6.209  -8.915  0.00  0.00    -0.331 OA
ATOM     13  C   UNL     1       0.798   5.417  -7.770  0.00  0.00    +0.253 C 
ATOM     14  C   UNL     1       2.315   6.261  -7.757  0.00  0.00    +0.148 C 
ATOM     15  N   UNL     1       1.805   7.630  -8.304  0.00  0.00    -0.128 NA
ATOM     16  C   UNL     1       2.698   5.717  -9.237  0.00  0.00    +0.027 C 
ATOM     17  C   UNL     1       1.795   4.628  -9.600  0.00  0.00    +0.033 C 
BRANCH  11  18
ATOM     18  C   UNL     1       1.034   6.468 -11.058  0.00  0.00    +0.100 C 
ATOM     19  C   UNL     1      -0.432   7.110 -11.372  0.00  0.00    +0.021 C 
BRANCH  18  21
ATOM     20  C   UNL     1       1.569   5.987 -13.136  0.00  0.00    +0.107 C 
ATOM     21  N   UNL     1       1.034   5.645 -12.385  0.00  0.00    -0.215 NA
ENDBRANCH  18  21
ENDBRANCH  11  18
ENDBRANCH  10  13
ENDBRANCH   1  10
BRANCH   7  22
ATOM     22  O   UNL     1       0.374   6.622  -2.946  0.00  0.00    -0.327 OA
BRANCH  22  23
ATOM     23  C   UNL     1       1.276   7.189  -1.963  0.00  0.00    +0.268 C 
ATOM     24  C   UNL     1       1.357   5.827  -0.893  0.00  0.00    +0.226 C 
ATOM     25  O   UNL     1       2.081   4.887  -1.796  0.00  0.00    -0.216 OA
ATOM     26  C   UNL     1       2.690   6.344   0.049  0.00  0.00    +0.138 C 
ATOM     27  C   UNL     1       3.883   6.169  -1.037  0.00  0.00    +0.171 C 
ATOM     28  O   UNL     1       4.964   6.667  -0.284  0.00  0.00    -0.222 OA
ATOM     29  C   UNL     1       4.311   4.710  -1.051  0.00  0.00    +0.037 C 
ATOM     30  C   UNL     1       3.587   6.855  -2.229  0.00  0.00    +0.176 C 
ATOM     31  O   UNL     1       2.453   6.771  -2.860  0.00  0.00    -0.326 OA
BRANCH  26  32
ATOM     32  N   UNL     1       2.503   7.882  -0.174  0.00  0.00    -0.213 NA
ATOM     33  C   UNL     1       2.539   8.565   1.047  0.00  0.00    +0.108 C 
ENDBRANCH  26  32
ENDBRANCH  22  23
ENDBRANCH   7  22
TORSDOF 7
ENDMDL
MODEL 7
REMARK VINA RESULT:      -7.5      1.929      2.875
REMARK  Name = 
REMARK  7 active torsions:
REMARK  status: ('A' for Active; 'I' for Inactive)
REMARK    1  A    between atoms: N_2  and  C_3
REMARK    2  A    between atoms: C_3  and  C_5
REMARK    3  A    between atoms: C_10  and  O_11
REMARK    4  A    between atoms: O_11  and  C_12
REMARK    5  A    between atoms: C_15  and  O_16
REMARK    6  A    between atoms: O_16  and  C_17
REMARK    7  A    between atoms: C_23  and  N_24
REMARK                            x       y       z     vdW  Elec       q    Type
REMARK                         _______ _______ _______ _____ _____    ______ ____
ROOT
ATOM      1  C   UNL     1       1.951   6.689  -3.750  0.00  0.00    +0.168 C 
ATOM      2  C   UNL     1       0.586   5.665  -3.854  0.00  0.00    +0.123 C 
ATOM      3  N   UNL     1      -0.373   6.864  -3.562  0.00  0.00    -0.130 NA
ATOM      4  C   UNL     1       0.370   5.755  -5.474  0.00  0.00    +0.043 C 
ATOM      5  C   UNL     1       1.323   4.428  -5.599  0.00  0.00    +0.123 C 
ATOM      6  N   UNL     1       1.031   4.157  -7.096  0.00  0.00    -0.130 NA
ATOM      7  C   UNL     1       2.837   5.245  -5.723  0.00  0.00    +0.168 C 
ATOM      8  C   UNL     1       2.253   6.823  -5.413  0.00  0.00    +0.209 C 
ATOM      9  O   UNL     1       3.645   7.291  -5.102  0.00  0.00    -0.218 OA
ENDROOT
BRANCH   1  10
ATOM     10  O   UNL     1       2.871   5.553  -3.390  0.00  0.00    -0.328 OA
BRANCH  10  13
ATOM     11  C   UNL     1       2.845   8.018  -0.816  0.00  0.00    +0.134 C 
ATOM     12  O   UNL     1       2.388   6.805  -1.584  0.00  0.00    -0.331 OA
ATOM     13  C   UNL     1       3.596   6.539  -2.467  0.00  0.00    +0.253 C 
ATOM     14  C   UNL     1       4.221   5.224  -1.523  0.00  0.00    +0.148 C 
ATOM     15  N   UNL     1       2.868   4.719  -0.933  0.00  0.00    -0.128 NA
ATOM     16  C   UNL     1       4.509   6.193  -0.253  0.00  0.00    +0.027 C 
ATOM     17  C   UNL     1       4.418   7.587  -0.681  0.00  0.00    +0.033 C 
BRANCH  11  18
ATOM     18  C   UNL     1       2.379   7.305   0.680  0.00  0.00    +0.100 C 
ATOM     19  C   UNL     1       0.805   7.640   0.413  0.00  0.00    +0.021 C 
BRANCH  18  21
ATOM     20  C   UNL     1       2.681   8.458   2.529  0.00  0.00    +0.107 C 
ATOM     21  N   UNL     1       2.572   8.582   1.559  0.00  0.00    -0.215 NA
ENDBRANCH  18  21
ENDBRANCH  11  18
ENDBRANCH  10  13
ENDBRANCH   1  10
BRANCH   7  22
ATOM     22  O   UNL     1       3.042   5.464  -7.121  0.00  0.00    -0.327 OA
BRANCH  22  23
ATOM     23  C   UNL     1       4.180   5.773  -7.964  0.00  0.00    +0.268 C 
ATOM     24  C   UNL     1       3.977   4.501  -9.125  0.00  0.00    +0.226 C 
ATOM     25  O   UNL     1       2.710   4.979  -9.748  0.00  0.00    -0.216 OA
ATOM     26  C   UNL     1       5.071   5.081 -10.307  0.00  0.00    +0.138 C 
ATOM     27  C   UNL     1       4.238   6.362 -10.853  0.00  0.00    +0.171 C 
ATOM     28  O   UNL     1       5.173   6.880 -11.770  0.00  0.00    -0.222 OA
ATOM     29  C   UNL     1       3.218   5.875 -11.870  0.00  0.00    +0.037 C 
ATOM     30  C   UNL     1       3.866   7.212  -9.795  0.00  0.00    +0.176 C 
ATOM     31  O   UNL     1       3.308   6.809  -8.693  0.00  0.00    -0.326 OA
BRANCH  26  32
ATOM     32  N   UNL     1       5.991   5.897  -9.339  0.00  0.00    -0.213 NA
ATOM     33  C   UNL     1       7.340   5.652  -9.618  0.00  0.00    +0.108 C 
ENDBRANCH  26  32
ENDBRANCH  22  23
ENDBRANCH   7  22
TORSDOF 7
ENDMDL
MODEL 8
REMARK VINA RESULT:      -7.1      1.896      2.365
REMARK  Name = 
REMARK  7 active torsions:
REMARK  status: ('A' for Active; 'I' for Inactive)
REMARK    1  A    between atoms: N_2  and  C_3
REMARK    2  A    between atoms: C_3  and  C_5
REMARK    3  A    between atoms: C_10  and  O_11
REMARK    4  A    between atoms: O_11  and  C_12
REMARK    5  A    between atoms: C_15  and  O_16
REMARK    6  A    between atoms: O_16  and  C_17
REMARK    7  A    between atoms: C_23  and  N_24
REMARK                            x       y       z     vdW  Elec       q    Type
REMARK                         _______ _______ _______ _____ _____    ______ ____
ROOT
ATOM      1  C   UNL     1       1.082   7.039  -4.835  0.00  0.00    +0.168 C 
ATOM      2  C   UNL     1      -0.142   5.960  -4.329  0.00  0.00    +0.123 C 
ATOM      3  N   UNL     1      -0.910   7.119  -3.616  0.00  0.00    -0.130 NA
ATOM      4  C   UNL     1      -1.070   6.037  -5.675  0.00  0.00    +0.043 C 
ATOM      5  C   UNL     1      -0.227   4.750  -6.239  0.00  0.00    +0.123 C 
ATOM      6  N   UNL     1      -1.154   4.463  -7.446  0.00  0.00    -0.130 NA
ATOM      7  C   UNL     1       1.035   5.628  -7.019  0.00  0.00    +0.168 C 
ATOM      8  C   UNL     1       0.595   7.181  -6.453  0.00  0.00    +0.209 C 
ATOM      9  O   UNL     1       1.959   7.707  -6.797  0.00  0.00    -0.218 OA
ENDROOT
BRANCH   1  10
ATOM     10  O   UNL     1       2.108   5.944  -4.949  0.00  0.00    -0.328 OA
BRANCH  10  13
ATOM     11  C   UNL     1       3.571   7.672  -2.197  0.00  0.00    +0.134 C 
ATOM     12  O   UNL     1       2.887   6.545  -2.925  0.00  0.00    -0.331 OA
ATOM     13  C   UNL     1       3.120   6.941  -4.373  0.00  0.00    +0.253 C 
ATOM     14  C   UNL     1       4.414   5.821  -4.659  0.00  0.00    +0.148 C 
ATOM     15  N   UNL     1       3.985   4.729  -3.632  0.00  0.00    -0.128 NA
ATOM     16  C   UNL     1       5.378   6.569  -3.588  0.00  0.00    +0.027 C 
ATOM     17  C   UNL     1       4.806   7.871  -3.253  0.00  0.00    +0.033 C 
BRANCH  11  18
ATOM     18  C   UNL     1       4.426   6.567  -1.192  0.00  0.00    +0.100 C 
ATOM     19  C   UNL     1       3.059   6.126  -0.419  0.00  0.00    +0.021 C 
BRANCH  18  21
ATOM     20  C   UNL     1       5.110   7.235   0.789  0.00  0.00    +0.107 C 
ATOM     21  N   UNL     1       4.808   7.592  -0.076  0.00  0.00    -0.215 NA
ENDBRANCH  18  21
ENDBRANCH  11  18
ENDBRANCH  10  13
ENDBRANCH   1  10
BRANCH   7  22
ATOM     22  O   UNL     1       0.578   5.851  -8.355  0.00  0.00    -0.327 OA
BRANCH  22  23
ATOM     23  C   UNL     1       0.970   5.392  -9.673  0.00  0.00    +0.268 C 
ATOM     24  C   UNL     1       1.381   6.932 -10.357  0.00  0.00    +0.226 C 
ATOM     25  O   UNL     1       2.580   7.225  -9.520  0.00  0.00    -0.216 OA
ATOM     26  C   UNL     1       2.187   6.363 -11.756  0.00  0.00    +0.138 C 
ATOM     27  C   UNL     1       3.535   5.766 -11.078  0.00  0.00    +0.171 C 
ATOM     28  O   UNL     1       4.159   5.232 -12.222  0.00  0.00    -0.222 OA
ATOM     29  C   UNL     1       4.505   6.914 -10.846  0.00  0.00    +0.037 C 
ATOM     30  C   UNL     1       3.225   4.853 -10.054  0.00  0.00    +0.176 C 
ATOM     31  O   UNL     1       2.365   5.079  -9.106  0.00  0.00    -0.326 OA
BRANCH  26  32
ATOM     32  N   UNL     1       1.447   4.987 -11.863  0.00  0.00    -0.213 NA
ATOM     33  C   UNL     1       0.914   4.813 -13.145  0.00  0.00    +0.108 C 
ENDBRANCH  26  32
ENDBRANCH  22  23
ENDBRANCH   7  22
TORSDOF 7
ENDMDL
MODEL 9
REMARK VINA RESULT:      -6.9      2.490      8.868
REMARK  Name = 
REMARK  7 active torsions:
REMARK  status: ('A' for Active; 'I' for Inactive)
REMARK    1  A    between atoms: N_2  and  C_3
REMARK    2  A    between atoms: C_3  and  C_5
REMARK    3  A    between atoms: C_10  and  O_11
REMARK    4  A    between atoms: O_11  and  C_12
REMARK    5  A    between atoms: C_15  and  O_16
REMARK    6  A    between atoms: O_16  and  C_17
REMARK    7  A    between atoms: C_23  and  N_24
REMARK                            x       y       z     vdW  Elec       q    Type
REMARK                         _______ _______ _______ _____ _____    ______ ____
ROOT
ATOM      1  C   UNL     1       2.921   6.769  -8.672  0.00  0.00    +0.168 C 
ATOM      2  C   UNL     1       4.051   5.495  -8.812  0.00  0.00    +0.123 C 
ATOM      3  N   UNL     1       5.043   6.420  -9.587  0.00  0.00    -0.130 NA
ATOM      4  C   UNL     1       4.807   5.715  -7.377  0.00  0.00    +0.043 C 
ATOM      5  C   UNL     1       3.743   4.646  -6.737  0.00  0.00    +0.123 C 
ATOM      6  N   UNL     1       4.468   4.486  -5.378  0.00  0.00    -0.130 NA
ATOM      7  C   UNL     1       2.516   5.777  -6.303  0.00  0.00    +0.168 C 
ATOM      8  C   UNL     1       3.218   7.148  -7.046  0.00  0.00    +0.209 C 
ATOM      9  O   UNL     1       1.900   7.866  -6.993  0.00  0.00    -0.218 OA
ENDROOT
BRANCH   1  10
ATOM     10  O   UNL     1       1.758   5.825  -8.529  0.00  0.00    -0.328 OA
BRANCH  10  13
ATOM     11  C   UNL     1       1.594   6.998 -11.890  0.00  0.00    +0.134 C 
ATOM     12  O   UNL     1       1.921   6.056 -10.762  0.00  0.00    -0.331 OA
ATOM     13  C   UNL     1       1.072   6.629  -9.639  0.00  0.00    +0.253 C 
ATOM     14  C   UNL     1      -0.189   5.442  -9.746  0.00  0.00    +0.148 C 
ATOM     15  N   UNL     1       0.671   4.261 -10.293  0.00  0.00    -0.128 NA
ATOM     16  C   UNL     1      -0.610   5.935 -11.234  0.00  0.00    +0.027 C 
ATOM     17  C   UNL     1       0.018   7.225 -11.509  0.00  0.00    +0.033 C 
BRANCH  11  18
ATOM     18  C   UNL     1       1.288   5.685 -12.961  0.00  0.00    +0.100 C 
ATOM     19  C   UNL     1       2.883   5.436 -13.199  0.00  0.00    +0.021 C 
BRANCH  18  21
ATOM     20  C   UNL     1       0.602   6.178 -14.992  0.00  0.00    +0.107 C 
ATOM     21  N   UNL     1       1.157   6.537 -14.264  0.00  0.00    -0.215 NA
ENDBRANCH  18  21
ENDBRANCH  11  18
ENDBRANCH  10  13
ENDBRANCH   1  10
BRANCH   7  22
ATOM     22  O   UNL     1       2.828   6.188  -4.969  0.00  0.00    -0.327 OA
BRANCH  22  23
ATOM     23  C   UNL     1       2.079   6.378  -3.742  0.00  0.00    +0.268 C 
ATOM     24  C   UNL     1       2.725   5.037  -2.852  0.00  0.00    +0.226 C 
ATOM     25  O   UNL     1       4.123   5.532  -2.701  0.00  0.00    -0.216 OA
ATOM     26  C   UNL     1       2.138   5.474  -1.304  0.00  0.00    +0.138 C 
ATOM     27  C   UNL     1       3.088   6.753  -0.996  0.00  0.00    +0.171 C 
ATOM     28  O   UNL     1       2.551   7.156   0.241  0.00  0.00    -0.222 OA
ATOM     29  C   UNL     1       4.422   6.246  -0.473  0.00  0.00    +0.037 C 
ATOM     30  C   UNL     1       3.023   7.695  -2.040  0.00  0.00    +0.176 C 
ATOM     31  O   UNL     1       3.139   7.401  -3.300  0.00  0.00    -0.326 OA
BRANCH  26  32
ATOM     32  N   UNL     1       0.907   6.311  -1.791  0.00  0.00    -0.213 NA
ATOM     33  C   UNL     1      -0.256   5.907  -1.127  0.00  0.00    +0.108 C 
ENDBRANCH  26  32
ENDBRANCH  22  23
ENDBRANCH   7  22
TORSDOF 7
ENDMDL
