MODEL 1
REMARK VINA RESULT:      -8.1      0.000      0.000
REMARK  Name = 
REMARK  10 active torsions:
REMARK  status: ('A' for Active; 'I' for Inactive)
REMARK    1  A    between atoms: C_2  and  C_3
REMARK    2  A    between atoms: C_3  and  C_4
REMARK    3  A    between atoms: C_4  and  C_5
REMARK    4  A    between atoms: C_5  and  C_6
REMARK    5  A    between atoms: C_6  and  C_8
REMARK    6  A    between atoms: C_8  and  C_9
REMARK    7  A    between atoms: C_9  and  C_10
REMARK    8  A    between atoms: C_21  and  O_22
REMARK    9  A    between atoms: O_22  and  C_23
REMARK   10  A    between atoms: C_23  and  C_24
REMARK                            x       y       z     vdW  Elec       q    Type
REMARK                         _______ _______ _______ _____ _____    ______ ____
ROOT
ATOM      1  C   UNL     1       1.883   5.435  -9.161  0.00  0.00    +0.031 C 
ATOM      2  C   UNL     1       1.235   6.546  -8.073  0.00  0.00    +0.007 C 
ATOM      3  C   UNL     1       2.282   6.092  -6.806  0.00  0.00    +0.007 C 
ATOM      4  C   UNL     1       1.315   6.629  -5.609  0.00  0.00    +0.029 C 
ATOM      5  C   UNL     1       0.141   5.793  -5.484  0.00  0.00    +0.008 A 
ATOM      6  C   UNL     1      -0.456   5.774  -4.225  0.00  0.00    +0.135 A 
ATOM      7  C   UNL     1      -1.834   5.624  -4.129  0.00  0.00    +0.037 A 
ATOM      8  C   UNL     1      -2.636   5.433  -5.239  0.00  0.00    +0.003 A 
ATOM      9  C   UNL     1      -1.999   5.442  -6.474  0.00  0.00    -0.004 A 
ATOM     10  C   UNL     1      -0.703   5.939  -6.589  0.00  0.00    -0.023 A 
ATOM     11  C   UNL     1       1.754   4.539  -6.890  0.00  0.00    +0.033 C 
ATOM     12  C   UNL     1       0.009   5.522  -7.796  0.00  0.00    +0.026 C 
ATOM     13  C   UNL     1       2.946   4.682  -8.050  0.00  0.00    +0.152 C 
ATOM     14  O   UNL     1       2.632   3.297  -8.628  0.00  0.00    -0.223 OA
ENDROOT
BRANCH   1  15
ATOM     15  C   UNL     1       3.030   6.468  -9.640  0.00  0.00    +0.005 C 
BRANCH  15  16
ATOM     16  C   UNL     1       3.137   6.273 -11.153  0.00  0.00    +0.033 C 
BRANCH  16  17
ATOM     17  C   UNL     1       4.740   5.788 -11.223  0.00  0.00    +0.152 C 
ATOM     18  O   UNL     1       4.822   6.154 -12.719  0.00  0.00    -0.223 OA
BRANCH  17  19
ATOM     19  C   UNL     1       5.271   7.312 -10.781  0.00  0.00    +0.033 C 
BRANCH  19  20
ATOM     20  C   UNL     1       6.625   7.450 -11.452  0.00  0.00    +0.003 C 
BRANCH  20  21
ATOM     21  C   UNL     1       7.687   6.793 -10.654  0.00  0.00    +0.000 C 
BRANCH  21  23
ATOM     22  C   UNL     1       8.563   5.919 -12.601  0.00  0.00    +0.000 C 
ATOM     23  C   UNL     1       8.325   5.592 -11.271  0.00  0.00    +0.000 C 
ENDBRANCH  21  23
ENDBRANCH  20  21
ENDBRANCH  19  20
ENDBRANCH  17  19
ENDBRANCH  16  17
ENDBRANCH  15  16
ENDBRANCH   1  15
BRANCH   6  24
ATOM     24  O   UNL     1       0.157   6.361  -3.114  0.00  0.00    -0.464 OA
BRANCH  24  25
ATOM     25  C   UNL     1       0.560   5.455  -2.092  0.00  0.00    +0.319 C 
BRANCH  25  26
ATOM     26  C   UNL     1       2.004   5.779  -1.845  0.00  0.00    +0.408 C 
ATOM     27  O   UNL     1       2.397   5.664  -0.506  0.00  0.00    -0.241 OA
ATOM     28  O   UNL     1       2.801   5.266  -2.690  0.00  0.00    -0.241 OA
ENDBRANCH  25  26
ENDBRANCH  24  25
ENDBRANCH   6  24
TORSDOF 10
ENDMDL
MODEL 2
REMARK VINA RESULT:      -8.0      1.921      3.452
REMARK  Name = 
REMARK  10 active torsions:
REMARK  status: ('A' for Active; 'I' for Inactive)
REMARK    1  A    between atoms: C_2  and  C_3
REMARK    2  A    between atoms: C_3  and  C_4
REMARK    3  A    between atoms: C_4  and  C_5
REMARK    4  A    between atoms: C_5  and  C_6
REMARK    5  A    between atoms: C_6  and  C_8
REMARK    6  A    between atoms: C_8  and  C_9
REMARK    7  A    between atoms: C_9  and  C_10
REMARK    8  A    between atoms: C_21  and  O_22
REMARK    9  A    between atoms: O_22  and  C_23
REMARK   10  A    between atoms: C_23  and  C_24
REMARK                            x       y       z     vdW  Elec       q    Type
REMARK                         _______ _______ _______ _____ _____    ______ ____
ROOT
ATOM      1  C   UNL     1       3.132   6.181  -7.795  0.00  0.00    +0.031 C 
ATOM      2  C   UNL     1       2.776   4.982  -6.667  0.00  0.00    +0.007 C 
ATOM      3  C   UNL     1       1.140   5.437  -6.524  0.00  0.00    +0.007 C 
ATOM      4  C   UNL     1       0.928   4.785  -5.046  0.00  0.00    +0.029 C 
ATOM      5  C   UNL     1       1.648   5.540  -4.044  0.00  0.00    +0.008 A 
ATOM      6  C   UNL     1       1.142   5.461  -2.749  0.00  0.00    +0.135 A 
ATOM      7  C   UNL     1       2.018   5.521  -1.671  0.00  0.00    +0.037 A 
ATOM      8  C   UNL     1       3.377   5.716  -1.834  0.00  0.00    +0.003 A 
ATOM      9  C   UNL     1       3.839   5.805  -3.141  0.00  0.00    -0.004 A 
ATOM     10  C   UNL     1       3.031   5.395  -4.199  0.00  0.00    -0.023 A 
ATOM     11  C   UNL     1       1.575   6.958  -6.077  0.00  0.00    +0.033 C 
ATOM     12  C   UNL     1       3.423   5.914  -5.509  0.00  0.00    +0.026 C 
ATOM     13  C   UNL     1       1.601   6.944  -7.747  0.00  0.00    +0.152 C 
ATOM     14  O   UNL     1       2.247   8.333  -7.806  0.00  0.00    -0.223 OA
ENDROOT
BRANCH   1  15
ATOM     15  C   UNL     1       2.687   5.246  -9.035  0.00  0.00    +0.005 C 
BRANCH  15  16
ATOM     16  C   UNL     1       3.991   4.853  -9.728  0.00  0.00    +0.033 C 
BRANCH  16  17
ATOM     17  C   UNL     1       4.812   6.303  -9.541  0.00  0.00    +0.152 C 
ATOM     18  O   UNL     1       6.168   5.570  -9.491  0.00  0.00    -0.223 OA
BRANCH  17  19
ATOM     19  C   UNL     1       4.936   6.502 -11.197  0.00  0.00    +0.033 C 
BRANCH  19  20
ATOM     20  C   UNL     1       6.233   7.269 -11.391  0.00  0.00    +0.003 C 
BRANCH  20  21
ATOM     21  C   UNL     1       6.855   6.945 -12.697  0.00  0.00    +0.000 C 
BRANCH  21  23
ATOM     22  C   UNL     1       8.813   5.845 -12.168  0.00  0.00    +0.000 C 
ATOM     23  C   UNL     1       7.579   5.641 -12.774  0.00  0.00    +0.000 C 
ENDBRANCH  21  23
ENDBRANCH  20  21
ENDBRANCH  19  20
ENDBRANCH  17  19
ENDBRANCH  16  17
ENDBRANCH  15  16
ENDBRANCH   1  15
BRANCH   6  24
ATOM     24  O   UNL     1      -0.091   4.860  -2.478  0.00  0.00    -0.464 OA
BRANCH  24  25
ATOM     25  C   UNL     1      -0.973   5.621  -1.658  0.00  0.00    +0.319 C 
BRANCH  25  26
ATOM     26  C   UNL     1      -2.226   5.757  -2.472  0.00  0.00    +0.408 C 
ATOM     27  O   UNL     1      -2.123   6.661  -3.537  0.00  0.00    -0.241 OA
ATOM     28  O   UNL     1      -2.783   4.651  -2.753  0.00  0.00    -0.241 OA
ENDBRANCH  25  26
ENDBRANCH  24  25
ENDBRANCH   6  24
TORSDOF 10
ENDMDL
MODEL 3
REMARK VINA RESULT:      -7.8      2.648      8.974
REMARK  Name = 
REMARK  10 active torsions:
REMARK  status: ('A' for Active; 'I' for Inactive)
REMARK    1  A    between atoms: C_2  and  C_3
REMARK    2  A    between atoms: C_3  and  C_4
REMARK    3  A    between atoms: C_4  and  C_5
REMARK    4  A    between atoms: C_5  and  C_6
REMARK    5  A    between atoms: C_6  and  C_8
REMARK    6  A    between atoms: C_8  and  C_9
REMARK    7  A    between atoms: C_9  and  C_10
REMARK    8  A    between atoms: C_21  and  O_22
REMARK    9  A    between atoms: O_22  and  C_23
REMARK   10  A    between atoms: C_23  and  C_24
REMARK                            x       y       z     vdW  Elec       q    Type
REMARK                         _______ _______ _______ _____ _____    ______ ____
ROOT
ATOM      1  C   UNL     1       1.457   6.049  -7.706  0.00  0.00    +0.031 C 
ATOM      2  C   UNL     1       2.178   4.953  -8.762  0.00  0.00    +0.007 C 
ATOM      3  C   UNL     1       3.733   5.628  -8.588  0.00  0.00    +0.007 C 
ATOM      4  C   UNL     1       4.303   5.068 -10.008  0.00  0.00    +0.029 C 
ATOM      5  C   UNL     1       3.683   5.757 -11.118  0.00  0.00    +0.008 A 
ATOM      6  C   UNL     1       4.427   5.797 -12.295  0.00  0.00    +0.135 A 
ATOM      7  C   UNL     1       3.765   5.780 -13.518  0.00  0.00    +0.037 A 
ATOM      8  C   UNL     1       2.386   5.785 -13.612  0.00  0.00    +0.003 A 
ATOM      9  C   UNL     1       1.682   5.761 -12.414  0.00  0.00    -0.004 A 
ATOM     10  C   UNL     1       2.330   5.423 -11.228  0.00  0.00    -0.023 A 
ATOM     11  C   UNL     1       3.182   7.093  -9.089  0.00  0.00    +0.033 C 
ATOM     12  C   UNL     1       1.633   5.833 -10.009  0.00  0.00    +0.026 C 
ATOM     13  C   UNL     1       2.849   7.012  -7.455  0.00  0.00    +0.152 C 
ATOM     14  O   UNL     1       2.017   8.298  -7.501  0.00  0.00    -0.223 OA
ENDROOT
BRANCH   1  15
ATOM     15  C   UNL     1       1.790   5.135  -6.416  0.00  0.00    +0.005 C 
BRANCH  15  16
ATOM     16  C   UNL     1       0.439   4.870  -5.753  0.00  0.00    +0.033 C 
BRANCH  16  17
ATOM     17  C   UNL     1      -0.495   5.907  -6.683  0.00  0.00    +0.152 C 
ATOM     18  O   UNL     1      -1.614   4.853  -6.800  0.00  0.00    -0.223 OA
BRANCH  17  19
ATOM     19  C   UNL     1      -1.206   6.566  -5.319  0.00  0.00    +0.033 C 
BRANCH  19  20
ATOM     20  C   UNL     1      -2.474   5.755  -5.123  0.00  0.00    +0.003 C 
BRANCH  20  21
ATOM     21  C   UNL     1      -2.612   5.309  -3.716  0.00  0.00    +0.000 C 
BRANCH  21  23
ATOM     22  C   UNL     1      -2.895   6.818  -1.996  0.00  0.00    +0.000 C 
ATOM     23  C   UNL     1      -3.619   6.039  -2.891  0.00  0.00    +0.000 C 
ENDBRANCH  21  23
ENDBRANCH  20  21
ENDBRANCH  19  20
ENDBRANCH  17  19
ENDBRANCH  16  17
ENDBRANCH  15  16
ENDBRANCH   1  15
BRANCH   6  24
ATOM     24  O   UNL     1       5.760   5.378 -12.336  0.00  0.00    -0.464 OA
BRANCH  24  25
ATOM     25  C   UNL     1       6.728   6.422 -12.303  0.00  0.00    +0.319 C 
BRANCH  25  26
ATOM     26  C   UNL     1       7.956   5.820 -12.922  0.00  0.00    +0.408 C 
ATOM     27  O   UNL     1       9.086   5.851 -12.097  0.00  0.00    -0.241 OA
ATOM     28  O   UNL     1       7.748   4.717 -13.516  0.00  0.00    -0.241 OA
ENDBRANCH  25  26
ENDBRANCH  24  25
ENDBRANCH   6  24
TORSDOF 10
ENDMDL
MODEL 4
REMARK VINA RESULT:      -7.5      2.190      8.013
REMARK  Name = 
REMARK  10 active torsions:
REMARK  status: ('A' for Active; 'I' for Inactive)
REMARK    1  A    between atoms: C_2  and  C_3
REMARK    2  A    between atoms: C_3  and  C_4
REMARK    3  A    between atoms: C_4  and  C_5
REMARK    4  A    between atoms: C_5  and  C_6
REMARK    5  A    between atoms: C_6  and  C_8
REMARK    6  A    between atoms: C_8  and  C_9
REMARK    7  A    between atoms: C_9  and  C_10
REMARK    8  A    between atoms: C_21  and  O_22
REMARK    9  A    between atoms: O_22  and  C_23
REMARK   10  A    between atoms: C_23  and  C_24
REMARK                            x       y       z     vdW  Elec       q    Type
REMARK                         _______ _______ _______ _____ _____    ______ ____
ROOT
ATOM      1  C   UNL     1       1.468   6.145  -7.666  0.00  0.00    +0.031 C 
ATOM      2  C   UNL     1       2.077   4.992  -8.732  0.00  0.00    +0.007 C 
ATOM      3  C   UNL     1       3.653   5.643  -8.721  0.00  0.00    +0.007 C 
ATOM      4  C   UNL     1       4.088   5.015 -10.160  0.00  0.00    +0.029 C 
ATOM      5  C   UNL     1       3.386   5.671 -11.241  0.00  0.00    +0.008 A 
ATOM      6  C   UNL     1       4.025   5.649 -12.478  0.00  0.00    +0.135 A 
ATOM      7  C   UNL     1       3.260   5.595 -13.637  0.00  0.00    +0.037 A 
ATOM      8  C   UNL     1       1.878   5.624 -13.612  0.00  0.00    +0.003 A 
ATOM      9  C   UNL     1       1.280   5.662 -12.359  0.00  0.00    -0.004 A 
ATOM     10  C   UNL     1       2.023   5.360 -11.220  0.00  0.00    -0.023 A 
ATOM     11  C   UNL     1       3.084   7.097  -9.234  0.00  0.00    +0.033 C 
ATOM     12  C   UNL     1       1.441   5.832  -9.964  0.00  0.00    +0.026 C 
ATOM     13  C   UNL     1       2.893   7.089  -7.575  0.00  0.00    +0.152 C 
ATOM     14  O   UNL     1       2.081   8.389  -7.603  0.00  0.00    -0.223 OA
ENDROOT
BRANCH   1  15
ATOM     15  C   UNL     1       1.897   5.277  -6.372  0.00  0.00    +0.005 C 
BRANCH  15  16
ATOM     16  C   UNL     1       0.654   5.241  -5.484  0.00  0.00    +0.033 C 
BRANCH  16  17
ATOM     17  C   UNL     1       0.975   6.602  -4.561  0.00  0.00    +0.152 C 
ATOM     18  O   UNL     1      -0.484   6.654  -4.063  0.00  0.00    -0.223 OA
BRANCH  17  19
ATOM     19  C   UNL     1       1.429   5.666  -3.251  0.00  0.00    +0.033 C 
BRANCH  19  20
ATOM     20  C   UNL     1       2.887   6.022  -3.018  0.00  0.00    +0.003 C 
BRANCH  20  21
ATOM     21  C   UNL     1       3.199   7.370  -3.549  0.00  0.00    +0.000 C 
BRANCH  21  23
ATOM     22  C   UNL     1       4.961   6.243  -4.522  0.00  0.00    +0.000 C 
ATOM     23  C   UNL     1       4.533   7.526  -4.202  0.00  0.00    +0.000 C 
ENDBRANCH  21  23
ENDBRANCH  20  21
ENDBRANCH  19  20
ENDBRANCH  17  19
ENDBRANCH  16  17
ENDBRANCH  15  16
ENDBRANCH   1  15
BRANCH   6  24
ATOM     24  O   UNL     1       5.342   5.202 -12.615  0.00  0.00    -0.464 OA
BRANCH  24  25
ATOM     25  C   UNL     1       6.253   6.148 -13.166  0.00  0.00    +0.319 C 
BRANCH  25  26
ATOM     26  C   UNL     1       7.585   5.779 -12.582  0.00  0.00    +0.408 C 
ATOM     27  O   UNL     1       7.880   6.425 -11.376  0.00  0.00    -0.241 OA
ATOM     28  O   UNL     1       7.831   4.533 -12.605  0.00  0.00    -0.241 OA
ENDBRANCH  25  26
ENDBRANCH  24  25
ENDBRANCH   6  24
TORSDOF 10
ENDMDL
MODEL 5
REMARK VINA RESULT:      -7.5      1.184      1.608
REMARK  Name = 
REMARK  10 active torsions:
REMARK  status: ('A' for Active; 'I' for Inactive)
REMARK    1  A    between atoms: C_2  and  C_3
REMARK    2  A    between atoms: C_3  and  C_4
REMARK    3  A    between atoms: C_4  and  C_5
REMARK    4  A    between atoms: C_5  and  C_6
REMARK    5  A    between atoms: C_6  and  C_8
REMARK    6  A    between atoms: C_8  and  C_9
REMARK    7  A    between atoms: C_9  and  C_10
REMARK    8  A    between atoms: C_21  and  O_22
REMARK    9  A    between atoms: O_22  and  C_23
REMARK   10  A    between atoms: C_23  and  C_24
REMARK                            x       y       z     vdW  Elec       q    Type
REMARK                         _______ _______ _______ _____ _____    ______ ____
ROOT
ATOM      1  C   UNL     1       2.851   5.684  -9.414  0.00  0.00    +0.031 C 
ATOM      2  C   UNL     1       2.392   6.809  -8.248  0.00  0.00    +0.007 C 
ATOM      3  C   UNL     1       3.562   6.293  -7.121  0.00  0.00    +0.007 C 
ATOM      4  C   UNL     1       2.774   6.858  -5.812  0.00  0.00    +0.029 C 
ATOM      5  C   UNL     1       1.586   6.076  -5.550  0.00  0.00    +0.008 A 
ATOM      6  C   UNL     1       1.146   6.068  -4.228  0.00  0.00    +0.135 A 
ATOM      7  C   UNL     1      -0.216   5.980  -3.966  0.00  0.00    +0.037 A 
ATOM      8  C   UNL     1      -1.154   5.839  -4.971  0.00  0.00    +0.003 A 
ATOM      9  C   UNL     1      -0.673   5.835  -6.274  0.00  0.00    -0.004 A 
ATOM     10  C   UNL     1       0.622   6.274  -6.543  0.00  0.00    -0.023 A 
ATOM     11  C   UNL     1       2.956   4.767  -7.150  0.00  0.00    +0.033 C 
ATOM     12  C   UNL     1       1.162   5.839  -7.831  0.00  0.00    +0.026 C 
ATOM     13  C   UNL     1       4.003   4.870  -8.447  0.00  0.00    +0.152 C 
ATOM     14  O   UNL     1       3.557   3.508  -8.991  0.00  0.00    -0.223 OA
ENDROOT
BRANCH   1  15
ATOM     15  C   UNL     1       3.978   6.669 -10.023  0.00  0.00    +0.005 C 
BRANCH  15  16
ATOM     16  C   UNL     1       3.740   6.664 -11.533  0.00  0.00    +0.033 C 
BRANCH  16  17
ATOM     17  C   UNL     1       4.634   5.298 -11.915  0.00  0.00    +0.152 C 
ATOM     18  O   UNL     1       3.910   5.160 -13.269  0.00  0.00    -0.223 OA
BRANCH  17  19
ATOM     19  C   UNL     1       5.841   6.224 -12.611  0.00  0.00    +0.033 C 
BRANCH  19  20
ATOM     20  C   UNL     1       7.111   5.422 -12.386  0.00  0.00    +0.003 C 
BRANCH  20  21
ATOM     21  C   UNL     1       8.114   6.210 -11.630  0.00  0.00    +0.000 C 
BRANCH  21  23
ATOM     22  C   UNL     1       7.518   5.759  -9.448  0.00  0.00    +0.000 C 
ATOM     23  C   UNL     1       7.646   6.811 -10.347  0.00  0.00    +0.000 C 
ENDBRANCH  21  23
ENDBRANCH  20  21
ENDBRANCH  19  20
ENDBRANCH  17  19
ENDBRANCH  16  17
ENDBRANCH  15  16
ENDBRANCH   1  15
BRANCH   6  24
ATOM     24  O   UNL     1       1.916   6.613  -3.196  0.00  0.00    -0.464 OA
BRANCH  24  25
ATOM     25  C   UNL     1       2.735   5.685  -2.492  0.00  0.00    +0.319 C 
BRANCH  25  26
ATOM     26  C   UNL     1       2.230   5.727  -1.080  0.00  0.00    +0.408 C 
ATOM     27  O   UNL     1       1.454   6.854  -0.783  0.00  0.00    -0.241 OA
ATOM     28  O   UNL     1       1.762   4.622  -0.665  0.00  0.00    -0.241 OA
ENDBRANCH  25  26
ENDBRANCH  24  25
ENDBRANCH   6  24
TORSDOF 10
ENDMDL
MODEL 6
REMARK VINA RESULT:      -7.4      1.939      2.727
REMARK  Name = 
REMARK  10 active torsions:
REMARK  status: ('A' for Active; 'I' for Inactive)
REMARK    1  A    between atoms: C_2  and  C_3
REMARK    2  A    between atoms: C_3  and  C_4
REMARK    3  A    between atoms: C_4  and  C_5
REMARK    4  A    between atoms: C_5  and  C_6
REMARK    5  A    between atoms: C_6  and  C_8
REMARK    6  A    between atoms: C_8  and  C_9
REMARK    7  A    between atoms: C_9  and  C_10
REMARK    8  A    between atoms: C_21  and  O_22
REMARK    9  A    between atoms: O_22  and  C_23
REMARK   10  A    between atoms: C_23  and  C_24
REMARK                            x       y       z     vdW  Elec       q    Type
REMARK                         _______ _______ _______ _____ _____    ______ ____
ROOT
ATOM      1  C   UNL     1       1.488   5.610  -7.066  0.00  0.00    +0.031 C 
ATOM      2  C   UNL     1       0.777   6.725  -6.022  0.00  0.00    +0.007 C 
ATOM      3  C   UNL     1       1.691   6.222  -4.674  0.00  0.00    +0.007 C 
ATOM      4  C   UNL     1       0.636   6.772  -3.561  0.00  0.00    +0.029 C 
ATOM      5  C   UNL     1      -0.569   5.973  -3.555  0.00  0.00    +0.008 A 
ATOM      6  C   UNL     1      -1.278   5.955  -2.356  0.00  0.00    +0.135 A 
ATOM      7  C   UNL     1      -2.663   5.848  -2.387  0.00  0.00    +0.037 A 
ATOM      8  C   UNL     1      -3.366   5.697  -3.568  0.00  0.00    +0.003 A 
ATOM      9  C   UNL     1      -2.621   5.703  -4.740  0.00  0.00    -0.004 A 
ATOM     10  C   UNL     1      -1.305   6.160  -4.730  0.00  0.00    -0.023 A 
ATOM     11  C   UNL     1       1.126   4.687  -4.831  0.00  0.00    +0.033 C 
ATOM     12  C   UNL     1      -0.499   5.737  -5.874  0.00  0.00    +0.026 C 
ATOM     13  C   UNL     1       2.422   4.809  -5.877  0.00  0.00    +0.152 C 
ATOM     14  O   UNL     1       2.120   3.443  -6.503  0.00  0.00    -0.223 OA
ENDROOT
BRANCH   1  15
ATOM     15  C   UNL     1       2.704   6.612  -7.423  0.00  0.00    +0.005 C 
BRANCH  15  16
ATOM     16  C   UNL     1       3.153   6.212  -8.828  0.00  0.00    +0.033 C 
BRANCH  16  17
ATOM     17  C   UNL     1       4.484   5.286  -8.403  0.00  0.00    +0.152 C 
ATOM     18  O   UNL     1       3.884   4.043  -9.090  0.00  0.00    -0.223 OA
BRANCH  17  19
ATOM     19  C   UNL     1       5.291   5.718  -9.804  0.00  0.00    +0.033 C 
BRANCH  19  20
ATOM     20  C   UNL     1       6.758   5.711  -9.414  0.00  0.00    +0.003 C 
BRANCH  20  21
ATOM     21  C   UNL     1       7.491   6.820 -10.070  0.00  0.00    +0.000 C 
BRANCH  21  23
ATOM     22  C   UNL     1       6.551   8.305 -11.564  0.00  0.00    +0.000 C 
ATOM     23  C   UNL     1       7.169   7.061 -11.508  0.00  0.00    +0.000 C 
ENDBRANCH  21  23
ENDBRANCH  20  21
ENDBRANCH  19  20
ENDBRANCH  17  19
ENDBRANCH  16  17
ENDBRANCH  15  16
ENDBRANCH   1  15
BRANCH   6  24
ATOM     24  O   UNL     1      -0.751   6.508  -1.185  0.00  0.00    -0.464 OA
BRANCH  24  25
ATOM     25  C   UNL     1      -1.616   7.400  -0.490  0.00  0.00    +0.319 C 
BRANCH  25  26
ATOM     26  C   UNL     1      -0.725   8.106   0.490  0.00  0.00    +0.408 C 
ATOM     27  O   UNL     1       0.643   7.899   0.273  0.00  0.00    -0.241 OA
ATOM     28  O   UNL     1      -1.061   9.309   0.721  0.00  0.00    -0.241 OA
ENDBRANCH  25  26
ENDBRANCH  24  25
ENDBRANCH   6  24
TORSDOF 10
ENDMDL
MODEL 7
REMARK VINA RESULT:      -7.1      1.847      2.190
REMARK  Name = 
REMARK  10 active torsions:
REMARK  status: ('A' for Active; 'I' for Inactive)
REMARK    1  A    between atoms: C_2  and  C_3
REMARK    2  A    between atoms: C_3  and  C_4
REMARK    3  A    between atoms: C_4  and  C_5
REMARK    4  A    between atoms: C_5  and  C_6
REMARK    5  A    between atoms: C_6  and  C_8
REMARK    6  A    between atoms: C_8  and  C_9
REMARK    7  A    between atoms: C_9  and  C_10
REMARK    8  A    between atoms: C_21  and  O_22
REMARK    9  A    between atoms: O_22  and  C_23
REMARK   10  A    between atoms: C_23  and  C_24
REMARK                            x       y       z     vdW  Elec       q    Type
REMARK                         _______ _______ _______ _____ _____    ______ ____
ROOT
ATOM      1  C   UNL     1       3.041   5.635  -9.768  0.00  0.00    +0.031 C 
ATOM      2  C   UNL     1       2.124   6.734  -8.880  0.00  0.00    +0.007 C 
ATOM      3  C   UNL     1       3.020   6.504  -7.447  0.00  0.00    +0.007 C 
ATOM      4  C   UNL     1       1.837   7.003  -6.445  0.00  0.00    +0.029 C 
ATOM      5  C   UNL     1       0.756   6.043  -6.407  0.00  0.00    +0.008 A 
ATOM      6  C   UNL     1      -0.010   6.042  -5.244  0.00  0.00    +0.135 A 
ATOM      7  C   UNL     1      -1.364   5.734  -5.322  0.00  0.00    +0.037 A 
ATOM      8  C   UNL     1      -1.970   5.367  -6.509  0.00  0.00    +0.003 A 
ATOM      9  C   UNL     1      -1.167   5.365  -7.642  0.00  0.00    -0.004 A 
ATOM     10  C   UNL     1       0.070   6.005  -7.624  0.00  0.00    -0.023 A 
ATOM     11  C   UNL     1       2.684   4.895  -7.465  0.00  0.00    +0.033 C 
ATOM     12  C   UNL     1       0.991   5.592  -8.682  0.00  0.00    +0.026 C 
ATOM     13  C   UNL     1       4.008   5.098  -8.461  0.00  0.00    +0.152 C 
ATOM     14  O   UNL     1       3.935   3.648  -8.952  0.00  0.00    -0.223 OA
ENDROOT
BRANCH   1  15
ATOM     15  C   UNL     1       4.125   6.762 -10.177  0.00  0.00    +0.005 C 
BRANCH  15  16
ATOM     16  C   UNL     1       4.324   6.597 -11.683  0.00  0.00    +0.033 C 
BRANCH  16  17
ATOM     17  C   UNL     1       5.814   5.829 -11.649  0.00  0.00    +0.152 C 
ATOM     18  O   UNL     1       5.350   4.805 -12.704  0.00  0.00    -0.223 OA
BRANCH  17  19
ATOM     19  C   UNL     1       6.415   6.840 -12.840  0.00  0.00    +0.033 C 
BRANCH  19  20
ATOM     20  C   UNL     1       5.663   6.436 -14.096  0.00  0.00    +0.003 C 
BRANCH  20  21
ATOM     21  C   UNL     1       6.076   7.263 -15.255  0.00  0.00    +0.000 C 
BRANCH  21  23
ATOM     22  C   UNL     1       7.575   7.652 -16.964  0.00  0.00    +0.000 C 
ATOM     23  C   UNL     1       7.018   6.620 -16.218  0.00  0.00    +0.000 C 
ENDBRANCH  21  23
ENDBRANCH  20  21
ENDBRANCH  19  20
ENDBRANCH  17  19
ENDBRANCH  16  17
ENDBRANCH  15  16
ENDBRANCH   1  15
BRANCH   6  24
ATOM     24  O   UNL     1       0.367   6.778  -4.116  0.00  0.00    -0.464 OA
BRANCH  24  25
ATOM     25  C   UNL     1      -0.161   6.309  -2.879  0.00  0.00    +0.319 C 
BRANCH  25  26
ATOM     26  C   UNL     1       0.774   5.213  -2.458  0.00  0.00    +0.408 C 
ATOM     27  O   UNL     1       2.083   5.642  -2.209  0.00  0.00    -0.241 OA
ATOM     28  O   UNL     1       0.287   4.423  -1.591  0.00  0.00    -0.241 OA
ENDBRANCH  25  26
ENDBRANCH  24  25
ENDBRANCH   6  24
TORSDOF 10
ENDMDL
MODEL 8
REMARK VINA RESULT:      -7.1      2.361      4.431
REMARK  Name = 
REMARK  10 active torsions:
REMARK  status: ('A' for Active; 'I' for Inactive)
REMARK    1  A    between atoms: C_2  and  C_3
REMARK    2  A    between atoms: C_3  and  C_4
REMARK    3  A    between atoms: C_4  and  C_5
REMARK    4  A    between atoms: C_5  and  C_6
REMARK    5  A    between atoms: C_6  and  C_8
REMARK    6  A    between atoms: C_8  and  C_9
REMARK    7  A    between atoms: C_9  and  C_10
REMARK    8  A    between atoms: C_21  and  O_22
REMARK    9  A    between atoms: O_22  and  C_23
REMARK   10  A    between atoms: C_23  and  C_24
REMARK                            x       y       z     vdW  Elec       q    Type
REMARK                         _______ _______ _______ _____ _____    ______ ____
ROOT
ATOM      1  C   UNL     1       2.874   5.820  -7.221  0.00  0.00    +0.031 C 
ATOM      2  C   UNL     1       2.699   4.896  -5.823  0.00  0.00    +0.007 C 
ATOM      3  C   UNL     1       1.031   5.216  -5.680  0.00  0.00    +0.007 C 
ATOM      4  C   UNL     1       0.954   4.918  -4.081  0.00  0.00    +0.029 C 
ATOM      5  C   UNL     1       1.632   5.954  -3.332  0.00  0.00    +0.008 A 
ATOM      6  C   UNL     1       1.193   6.139  -2.023  0.00  0.00    +0.135 A 
ATOM      7  C   UNL     1       2.104   6.536  -1.051  0.00  0.00    +0.037 A 
ATOM      8  C   UNL     1       3.425   6.814  -1.346  0.00  0.00    +0.003 A 
ATOM      9  C   UNL     1       3.818   6.632  -2.666  0.00  0.00    -0.004 A 
ATOM     10  C   UNL     1       3.013   5.908  -3.542  0.00  0.00    -0.023 A 
ATOM     11  C   UNL     1       1.318   6.833  -5.630  0.00  0.00    +0.033 C 
ATOM     12  C   UNL     1       3.291   6.134  -4.960  0.00  0.00    +0.026 C 
ATOM     13  C   UNL     1       1.273   6.424  -7.248  0.00  0.00    +0.152 C 
ATOM     14  O   UNL     1       1.763   7.814  -7.673  0.00  0.00    -0.223 OA
ENDROOT
BRANCH   1  15
ATOM     15  C   UNL     1       2.479   4.578  -8.176  0.00  0.00    +0.005 C 
BRANCH  15  16
ATOM     16  C   UNL     1       3.747   4.267  -8.972  0.00  0.00    +0.033 C 
BRANCH  16  17
ATOM     17  C   UNL     1       4.365   5.822  -9.063  0.00  0.00    +0.152 C 
ATOM     18  O   UNL     1       5.810   5.286  -9.090  0.00  0.00    -0.223 OA
BRANCH  17  19
ATOM     19  C   UNL     1       4.286   5.807 -10.734  0.00  0.00    +0.033 C 
BRANCH  19  20
ATOM     20  C   UNL     1       2.988   6.526 -11.059  0.00  0.00    +0.003 C 
BRANCH  20  21
ATOM     21  C   UNL     1       2.138   5.712 -11.961  0.00  0.00    +0.000 C 
BRANCH  21  23
ATOM     22  C   UNL     1       0.383   6.674 -10.814  0.00  0.00    +0.000 C 
ATOM     23  C   UNL     1       0.716   5.539 -11.544  0.00  0.00    +0.000 C 
ENDBRANCH  21  23
ENDBRANCH  20  21
ENDBRANCH  19  20
ENDBRANCH  17  19
ENDBRANCH  16  17
ENDBRANCH  15  16
ENDBRANCH   1  15
BRANCH   6  24
ATOM     24  O   UNL     1       0.044   5.506  -1.538  0.00  0.00    -0.464 OA
BRANCH  24  25
ATOM     25  C   UNL     1      -1.015   6.377  -1.155  0.00  0.00    +0.319 C 
BRANCH  25  26
ATOM     26  C   UNL     1      -2.086   6.146  -2.181  0.00  0.00    +0.408 C 
ATOM     27  O   UNL     1      -2.678   4.879  -2.115  0.00  0.00    -0.241 OA
ATOM     28  O   UNL     1      -2.895   7.117  -2.311  0.00  0.00    -0.241 OA
ENDBRANCH  25  26
ENDBRANCH  24  25
ENDBRANCH   6  24
TORSDOF 10
ENDMDL
MODEL 9
REMARK VINA RESULT:      -7.0      3.444      6.765
REMARK  Name = 
REMARK  10 active torsions:
REMARK  status: ('A' for Active; 'I' for Inactive)
REMARK    1  A    between atoms: C_2  and  C_3
REMARK    2  A    between atoms: C_3  and  C_4
REMARK    3  A    between atoms: C_4  and  C_5
REMARK    4  A    between atoms: C_5  and  C_6
REMARK    5  A    between atoms: C_6  and  C_8
REMARK    6  A    between atoms: C_8  and  C_9
REMARK    7  A    between atoms: C_9  and  C_10
REMARK    8  A    between atoms: C_21  and  O_22
REMARK    9  A    between atoms: O_22  and  C_23
REMARK   10  A    between atoms: C_23  and  C_24
REMARK                            x       y       z     vdW  Elec       q    Type
REMARK                         _______ _______ _______ _____ _____    ______ ____
ROOT
ATOM      1  C   UNL     1       3.166   4.721  -6.534  0.00  0.00    +0.031 C 
ATOM      2  C   UNL     1       2.377   5.343  -5.182  0.00  0.00    +0.007 C 
ATOM      3  C   UNL     1       2.962   6.926  -5.423  0.00  0.00    +0.007 C 
ATOM      4  C   UNL     1       2.788   7.392  -3.872  0.00  0.00    +0.029 C 
ATOM      5  C   UNL     1       3.754   6.728  -3.025  0.00  0.00    +0.008 A 
ATOM      6  C   UNL     1       4.094   7.399  -1.853  0.00  0.00    +0.135 A 
ATOM      7  C   UNL     1       4.409   6.665  -0.715  0.00  0.00    +0.037 A 
ATOM      8  C   UNL     1       4.457   5.283  -0.718  0.00  0.00    +0.003 A 
ATOM      9  C   UNL     1       4.128   4.653  -1.911  0.00  0.00    -0.004 A 
ATOM     10  C   UNL     1       3.480   5.360  -2.921  0.00  0.00    -0.023 A 
ATOM     11  C   UNL     1       4.514   6.391  -5.361  0.00  0.00    +0.033 C 
ATOM     12  C   UNL     1       3.563   4.751  -4.248  0.00  0.00    +0.026 C 
ATOM     13  C   UNL     1       4.009   6.155  -6.936  0.00  0.00    +0.152 C 
ATOM     14  O   UNL     1       5.273   5.362  -7.284  0.00  0.00    -0.223 OA
ENDROOT
BRANCH   1  15
ATOM     15  C   UNL     1       1.939   5.104  -7.513  0.00  0.00    +0.005 C 
BRANCH  15  16
ATOM     16  C   UNL     1       0.678   4.688  -6.756  0.00  0.00    +0.033 C 
BRANCH  16  17
ATOM     17  C   UNL     1      -0.281   6.009  -7.138  0.00  0.00    +0.152 C 
ATOM     18  O   UNL     1      -0.382   5.556  -8.608  0.00  0.00    -0.223 OA
BRANCH  17  19
ATOM     19  C   UNL     1      -1.675   5.171  -6.744  0.00  0.00    +0.033 C 
BRANCH  19  20
ATOM     20  C   UNL     1      -2.190   5.860  -5.492  0.00  0.00    +0.003 C 
BRANCH  20  21
ATOM     21  C   UNL     1      -1.282   6.954  -5.073  0.00  0.00    +0.000 C 
BRANCH  21  23
ATOM     22  C   UNL     1      -2.135   7.677  -3.055  0.00  0.00    +0.000 C 
ATOM     23  C   UNL     1      -1.920   8.101  -4.361  0.00  0.00    +0.000 C 
ENDBRANCH  21  23
ENDBRANCH  20  21
ENDBRANCH  19  20
ENDBRANCH  17  19
ENDBRANCH  16  17
ENDBRANCH  15  16
ENDBRANCH   1  15
BRANCH   6  24
ATOM     24  O   UNL     1       3.681   8.714  -1.615  0.00  0.00    -0.464 OA
BRANCH  24  25
ATOM     25  C   UNL     1       3.912   9.195  -0.295  0.00  0.00    +0.319 C 
BRANCH  25  26
ATOM     26  C   UNL     1       3.252  10.542  -0.261  0.00  0.00    +0.408 C 
ATOM     27  O   UNL     1       2.071  10.583   0.490  0.00  0.00    -0.241 OA
ATOM     28  O   UNL     1       4.054  11.507  -0.063  0.00  0.00    -0.241 OA
ENDBRANCH  25  26
ENDBRANCH  24  25
ENDBRANCH   6  24
TORSDOF 10
ENDMDL
