MODEL 1
REMARK VINA RESULT:      -6.9      0.000      0.000
REMARK  Name = 
REMARK  6 active torsions:
REMARK  status: ('A' for Active; 'I' for Inactive)
REMARK    1  A    between atoms: C_2  and  C_4
REMARK    2  A    between atoms: C_8  and  C_9
REMARK    3  A    between atoms: C_12  and  S_13
REMARK    4  A    between atoms: S_13  and  C_14
REMARK    5  A    between atoms: C_14  and  C_15
REMARK    6  A    between atoms: C_15  and  N_16
REMARK                            x       y       z     vdW  Elec       q    Type
REMARK                         _______ _______ _______ _____ _____    ______ ____
ROOT
ATOM      1  C   UNL     1      -2.408   6.190  -4.407  0.00  0.00    +0.126 C 
ATOM      2  C   UNL     1      -1.168   5.292  -5.109  0.00  0.00    +0.096 C 
ATOM      3  N   UNL     1      -0.345   6.609  -5.028  0.00  0.00    -0.254 N 
ATOM      4  C   UNL     1       0.583   6.300  -6.095  0.00  0.00    +0.136 C 
ATOM      5  C   UNL     1      -0.065   5.750  -7.131  0.00  0.00    +0.025 C 
ATOM      6  C   UNL     1      -1.503   5.650  -6.672  0.00  0.00    +0.055 C 
ATOM      7  C   UNL     1      -1.489   7.422  -4.706  0.00  0.00    +0.233 C 
ATOM      8  O   UNL     1      -1.747   8.628  -4.707  0.00  0.00    -0.274 OA
ENDROOT
BRANCH   1  10
ATOM      9  C   UNL     1      -2.873   6.800  -2.031  0.00  0.00    +0.036 C 
ATOM     10  C   UNL     1      -1.769   5.903  -2.843  0.00  0.00    +0.162 C 
ATOM     11  O   UNL     1      -2.622   4.667  -2.689  0.00  0.00    -0.223 OA
ENDBRANCH   1  10
BRANCH   4  12
ATOM     12  C   UNL     1       1.968   6.685  -5.963  0.00  0.00    +0.401 C 
ATOM     13  O   UNL     1       2.597   7.659  -6.752  0.00  0.00    -0.239 OA
ATOM     14  O   UNL     1       2.788   6.157  -5.153  0.00  0.00    -0.239 OA
ENDBRANCH   4  12
BRANCH   5  15
ATOM     15  S   UNL     1       0.508   5.733  -8.800  0.00  0.00    -0.115 S 
BRANCH  15  16
ATOM     16  C   UNL     1       1.587   4.471  -9.316  0.00  0.00    +0.085 C 
BRANCH  16  17
ATOM     17  C   UNL     1       2.667   3.978  -8.406  0.00  0.00    +0.126 C 
BRANCH  17  18
ATOM     18  N   UNL     1       3.910   4.182  -9.127  0.00  0.00    -0.216 NA
ATOM     19  C   UNL     1       4.801   5.246  -8.856  0.00  0.00    +0.204 C 
ATOM     20  N   UNL     1       5.035   5.375  -7.582  0.00  0.00    -0.127 NA
ENDBRANCH  17  18
ENDBRANCH  16  17
ENDBRANCH  15  16
ENDBRANCH   5  15
TORSDOF 6
ENDMDL
MODEL 2
REMARK VINA RESULT:      -6.7      3.417      7.813
REMARK  Name = 
REMARK  6 active torsions:
REMARK  status: ('A' for Active; 'I' for Inactive)
REMARK    1  A    between atoms: C_2  and  C_4
REMARK    2  A    between atoms: C_8  and  C_9
REMARK    3  A    between atoms: C_12  and  S_13
REMARK    4  A    between atoms: S_13  and  C_14
REMARK    5  A    between atoms: C_14  and  C_15
REMARK    6  A    between atoms: C_15  and  N_16
REMARK                            x       y       z     vdW  Elec       q    Type
REMARK                         _______ _______ _______ _____ _____    ______ ____
ROOT
ATOM      1  C   UNL     1       5.887   5.858 -11.648  0.00  0.00    +0.126 C 
ATOM      2  C   UNL     1       4.691   5.234 -10.640  0.00  0.00    +0.096 C 
ATOM      3  N   UNL     1       4.280   6.717 -10.425  0.00  0.00    -0.254 N 
ATOM      4  C   UNL     1       3.635   6.535  -9.142  0.00  0.00    +0.136 C 
ATOM      5  C   UNL     1       4.365   5.722  -8.367  0.00  0.00    +0.025 C 
ATOM      6  C   UNL     1       5.533   5.310  -9.237  0.00  0.00    +0.055 C 
ATOM      7  C   UNL     1       5.469   7.242 -11.045  0.00  0.00    +0.233 C 
ATOM      8  O   UNL     1       6.042   8.333 -11.079  0.00  0.00    -0.274 OA
ENDROOT
BRANCH   1  10
ATOM      9  C   UNL     1       5.858   6.483 -14.065  0.00  0.00    +0.036 C 
ATOM     10  C   UNL     1       4.786   5.928 -12.959  0.00  0.00    +0.162 C 
ATOM     11  O   UNL     1       5.098   4.500 -13.336  0.00  0.00    -0.223 OA
ENDBRANCH   1  10
BRANCH   4  12
ATOM     12  C   UNL     1       2.434   7.275  -8.840  0.00  0.00    +0.401 C 
ATOM     13  O   UNL     1       2.337   8.257  -7.843  0.00  0.00    -0.239 OA
ATOM     14  O   UNL     1       1.315   7.093  -9.408  0.00  0.00    -0.239 OA
ENDBRANCH   4  12
BRANCH   5  15
ATOM     15  S   UNL     1       4.297   5.660  -6.604  0.00  0.00    -0.115 S 
BRANCH  15  16
ATOM     16  C   UNL     1       2.925   4.922  -5.832  0.00  0.00    +0.085 C 
BRANCH  16  17
ATOM     17  C   UNL     1       1.815   4.341  -6.650  0.00  0.00    +0.126 C 
BRANCH  17  18
ATOM     18  N   UNL     1       0.617   4.491  -5.846  0.00  0.00    -0.216 NA
ATOM     19  C   UNL     1      -0.415   5.409  -6.151  0.00  0.00    +0.204 C 
ATOM     20  N   UNL     1      -0.760   5.358  -7.405  0.00  0.00    -0.127 NA
ENDBRANCH  17  18
ENDBRANCH  16  17
ENDBRANCH  15  16
ENDBRANCH   5  15
TORSDOF 6
ENDMDL
MODEL 3
REMARK VINA RESULT:      -6.6      2.825      6.657
REMARK  Name = 
REMARK  6 active torsions:
REMARK  status: ('A' for Active; 'I' for Inactive)
REMARK    1  A    between atoms: C_2  and  C_4
REMARK    2  A    between atoms: C_8  and  C_9
REMARK    3  A    between atoms: C_12  and  S_13
REMARK    4  A    between atoms: S_13  and  C_14
REMARK    5  A    between atoms: C_14  and  C_15
REMARK    6  A    between atoms: C_15  and  N_16
REMARK                            x       y       z     vdW  Elec       q    Type
REMARK                         _______ _______ _______ _____ _____    ______ ____
ROOT
ATOM      1  C   UNL     1       1.181   6.030  -7.236  0.00  0.00    +0.126 C 
ATOM      2  C   UNL     1       0.415   6.763  -5.928  0.00  0.00    +0.096 C 
ATOM      3  N   UNL     1       1.106   5.663  -5.074  0.00  0.00    -0.254 N 
ATOM      4  C   UNL     1       0.169   5.686  -3.970  0.00  0.00    +0.136 C 
ATOM      5  C   UNL     1      -1.088   5.758  -4.429  0.00  0.00    +0.025 C 
ATOM      6  C   UNL     1      -0.941   5.843  -5.933  0.00  0.00    +0.055 C 
ATOM      7  C   UNL     1       1.510   4.887  -6.217  0.00  0.00    +0.233 C 
ATOM      8  O   UNL     1       1.909   3.737  -6.410  0.00  0.00    -0.274 OA
ENDROOT
BRANCH   1  10
ATOM      9  C   UNL     1       3.440   6.384  -8.240  0.00  0.00    +0.036 C 
ATOM     10  C   UNL     1       2.614   6.919  -6.930  0.00  0.00    +0.162 C 
ATOM     11  O   UNL     1       2.086   8.096  -7.714  0.00  0.00    -0.223 OA
ENDBRANCH   1  10
BRANCH   4  12
ATOM     12  C   UNL     1       0.659   5.535  -2.621  0.00  0.00    +0.401 C 
ATOM     13  O   UNL     1       0.259   4.518  -1.742  0.00  0.00    -0.239 OA
ATOM     14  O   UNL     1       1.471   6.329  -2.058  0.00  0.00    -0.239 OA
ENDBRANCH   4  12
BRANCH   5  15
ATOM     15  S   UNL     1      -2.528   5.255  -3.542  0.00  0.00    -0.115 S 
BRANCH  15  16
ATOM     16  C   UNL     1      -3.254   6.354  -2.407  0.00  0.00    +0.085 C 
BRANCH  16  17
ATOM     17  C   UNL     1      -2.441   7.437  -1.773  0.00  0.00    +0.126 C 
BRANCH  17  18
ATOM     18  N   UNL     1      -2.002   6.903  -0.498  0.00  0.00    -0.216 NA
ATOM     19  C   UNL     1      -0.955   7.470   0.265  0.00  0.00    +0.204 C 
ATOM     20  N   UNL     1      -1.076   8.761   0.376  0.00  0.00    -0.127 NA
ENDBRANCH  17  18
ENDBRANCH  16  17
ENDBRANCH  15  16
ENDBRANCH   5  15
TORSDOF 6
ENDMDL
MODEL 4
REMARK VINA RESULT:      -6.5      2.056      2.588
REMARK  Name = 
REMARK  6 active torsions:
REMARK  status: ('A' for Active; 'I' for Inactive)
REMARK    1  A    between atoms: C_2  and  C_4
REMARK    2  A    between atoms: C_8  and  C_9
REMARK    3  A    between atoms: C_12  and  S_13
REMARK    4  A    between atoms: S_13  and  C_14
REMARK    5  A    between atoms: C_14  and  C_15
REMARK    6  A    between atoms: C_15  and  N_16
REMARK                            x       y       z     vdW  Elec       q    Type
REMARK                         _______ _______ _______ _____ _____    ______ ____
ROOT
ATOM      1  C   UNL     1      -2.328   6.210  -4.530  0.00  0.00    +0.126 C 
ATOM      2  C   UNL     1      -0.962   5.401  -5.091  0.00  0.00    +0.096 C 
ATOM      3  N   UNL     1      -0.222   6.744  -4.836  0.00  0.00    -0.254 N 
ATOM      4  C   UNL     1       0.859   6.527  -5.774  0.00  0.00    +0.136 C 
ATOM      5  C   UNL     1       0.387   6.006  -6.915  0.00  0.00    +0.025 C 
ATOM      6  C   UNL     1      -1.095   5.825  -6.668  0.00  0.00    +0.055 C 
ATOM      7  C   UNL     1      -1.436   7.493  -4.641  0.00  0.00    +0.233 C 
ATOM      8  O   UNL     1      -1.748   8.685  -4.622  0.00  0.00    -0.274 OA
ENDROOT
BRANCH   1  10
ATOM      9  C   UNL     1      -3.092   6.753  -2.216  0.00  0.00    +0.036 C 
ATOM     10  C   UNL     1      -1.899   5.869  -2.907  0.00  0.00    +0.162 C 
ATOM     11  O   UNL     1      -2.774   4.639  -2.903  0.00  0.00    -0.223 OA
ENDBRANCH   1  10
BRANCH   4  12
ATOM     12  C   UNL     1       2.192   6.961  -5.433  0.00  0.00    +0.401 C 
ATOM     13  O   UNL     1       2.710   6.979  -4.130  0.00  0.00    -0.239 OA
ATOM     14  O   UNL     1       3.034   7.419  -6.263  0.00  0.00    -0.239 OA
ENDBRANCH   4  12
BRANCH   5  15
ATOM     15  S   UNL     1       1.185   6.099  -8.486  0.00  0.00    -0.115 S 
BRANCH  15  16
ATOM     16  C   UNL     1       0.974   4.802  -9.625  0.00  0.00    +0.085 C 
BRANCH  16  17
ATOM     17  C   UNL     1       0.161   5.005 -10.864  0.00  0.00    +0.126 C 
BRANCH  17  18
ATOM     18  N   UNL     1       0.878   5.996 -11.645  0.00  0.00    -0.216 NA
ATOM     19  C   UNL     1       0.243   7.074 -12.305  0.00  0.00    +0.204 C 
ATOM     20  N   UNL     1      -0.606   7.687 -11.534  0.00  0.00    -0.127 NA
ENDBRANCH  17  18
ENDBRANCH  16  17
ENDBRANCH  15  16
ENDBRANCH   5  15
TORSDOF 6
ENDMDL
MODEL 5
REMARK VINA RESULT:      -6.4      2.884      7.240
REMARK  Name = 
REMARK  6 active torsions:
REMARK  status: ('A' for Active; 'I' for Inactive)
REMARK    1  A    between atoms: C_2  and  C_4
REMARK    2  A    between atoms: C_8  and  C_9
REMARK    3  A    between atoms: C_12  and  S_13
REMARK    4  A    between atoms: S_13  and  C_14
REMARK    5  A    between atoms: C_14  and  C_15
REMARK    6  A    between atoms: C_15  and  N_16
REMARK                            x       y       z     vdW  Elec       q    Type
REMARK                         _______ _______ _______ _____ _____    ______ ____
ROOT
ATOM      1  C   UNL     1       4.851   5.071 -10.760  0.00  0.00    +0.126 C 
ATOM      2  C   UNL     1       3.333   5.308 -10.070  0.00  0.00    +0.096 C 
ATOM      3  N   UNL     1       4.081   6.219  -9.055  0.00  0.00    -0.254 N 
ATOM      4  C   UNL     1       3.118   6.109  -7.980  0.00  0.00    +0.136 C 
ATOM      5  C   UNL     1       2.702   4.841  -7.857  0.00  0.00    +0.025 C 
ATOM      6  C   UNL     1       3.408   4.097  -8.969  0.00  0.00    +0.055 C 
ATOM      7  C   UNL     1       5.388   5.780  -9.471  0.00  0.00    +0.233 C 
ATOM      8  O   UNL     1       6.530   5.840  -9.011  0.00  0.00    -0.274 OA
ENDROOT
BRANCH   1  10
ATOM      9  C   UNL     1       6.135   6.400 -12.439  0.00  0.00    +0.036 C 
ATOM     10  C   UNL     1       4.694   6.515 -11.670  0.00  0.00    +0.162 C 
ATOM     11  O   UNL     1       4.008   5.769 -12.790  0.00  0.00    -0.223 OA
ENDBRANCH   1  10
BRANCH   4  12
ATOM     12  C   UNL     1       2.825   7.266  -7.169  0.00  0.00    +0.401 C 
ATOM     13  O   UNL     1       2.047   8.353  -7.593  0.00  0.00    -0.239 OA
ATOM     14  O   UNL     1       3.273   7.456  -5.998  0.00  0.00    -0.239 OA
ENDBRANCH   4  12
BRANCH   5  15
ATOM     15  S   UNL     1       2.005   4.133  -6.398  0.00  0.00    -0.115 S 
BRANCH  15  16
ATOM     16  C   UNL     1       0.433   4.652  -5.869  0.00  0.00    +0.085 C 
BRANCH  16  17
ATOM     17  C   UNL     1       0.295   5.646  -4.759  0.00  0.00    +0.126 C 
BRANCH  17  18
ATOM     18  N   UNL     1       1.359   5.337  -3.822  0.00  0.00    -0.216 NA
ATOM     19  C   UNL     1       1.207   5.419  -2.418  0.00  0.00    +0.204 C 
ATOM     20  N   UNL     1       0.114   4.842  -2.010  0.00  0.00    -0.127 NA
ENDBRANCH  17  18
ENDBRANCH  16  17
ENDBRANCH  15  16
ENDBRANCH   5  15
TORSDOF 6
ENDMDL
MODEL 6
REMARK VINA RESULT:      -6.4      3.204      6.470
REMARK  Name = 
REMARK  6 active torsions:
REMARK  status: ('A' for Active; 'I' for Inactive)
REMARK    1  A    between atoms: C_2  and  C_4
REMARK    2  A    between atoms: C_8  and  C_9
REMARK    3  A    between atoms: C_12  and  S_13
REMARK    4  A    between atoms: S_13  and  C_14
REMARK    5  A    between atoms: C_14  and  C_15
REMARK    6  A    between atoms: C_15  and  N_16
REMARK                            x       y       z     vdW  Elec       q    Type
REMARK                         _______ _______ _______ _____ _____    ______ ____
ROOT
ATOM      1  C   UNL     1       1.450   6.283  -7.117  0.00  0.00    +0.126 C 
ATOM      2  C   UNL     1       1.714   6.832  -5.548  0.00  0.00    +0.096 C 
ATOM      3  N   UNL     1       2.630   5.584  -5.405  0.00  0.00    -0.254 N 
ATOM      4  C   UNL     1       2.547   5.471  -3.964  0.00  0.00    +0.136 C 
ATOM      5  C   UNL     1       1.286   5.667  -3.554  0.00  0.00    +0.025 C 
ATOM      6  C   UNL     1       0.518   5.982  -4.820  0.00  0.00    +0.055 C 
ATOM      7  C   UNL     1       2.170   4.981  -6.628  0.00  0.00    +0.233 C 
ATOM      8  O   UNL     1       2.223   3.860  -7.138  0.00  0.00    -0.274 OA
ENDROOT
BRANCH   1  10
ATOM      9  C   UNL     1       2.729   6.628  -9.233  0.00  0.00    +0.036 C 
ATOM     10  C   UNL     1       2.882   7.052  -7.658  0.00  0.00    +0.162 C 
ATOM     11  O   UNL     1       2.133   8.339  -7.906  0.00  0.00    -0.223 OA
ENDBRANCH   1  10
BRANCH   4  12
ATOM     12  C   UNL     1       3.719   5.090  -3.213  0.00  0.00    +0.401 C 
ATOM     13  O   UNL     1       4.989   4.893  -3.773  0.00  0.00    -0.239 OA
ATOM     14  O   UNL     1       3.727   4.843  -1.969  0.00  0.00    -0.239 OA
ENDBRANCH   4  12
BRANCH   5  15
ATOM     15  S   UNL     1       0.607   5.092  -2.030  0.00  0.00    -0.115 S 
BRANCH  15  16
ATOM     16  C   UNL     1      -0.533   6.090  -1.177  0.00  0.00    +0.085 C 
BRANCH  16  17
ATOM     17  C   UNL     1      -1.984   5.727  -1.146  0.00  0.00    +0.126 C 
BRANCH  17  18
ATOM     18  N   UNL     1      -2.217   4.936  -2.339  0.00  0.00    -0.216 NA
ATOM     19  C   UNL     1      -3.117   5.318  -3.362  0.00  0.00    +0.204 C 
ATOM     20  N   UNL     1      -2.960   6.562  -3.712  0.00  0.00    -0.127 NA
ENDBRANCH  17  18
ENDBRANCH  16  17
ENDBRANCH  15  16
ENDBRANCH   5  15
TORSDOF 6
ENDMDL
MODEL 7
REMARK VINA RESULT:      -6.3      3.902      7.838
REMARK  Name = 
REMARK  6 active torsions:
REMARK  status: ('A' for Active; 'I' for Inactive)
REMARK    1  A    between atoms: C_2  and  C_4
REMARK    2  A    between atoms: C_8  and  C_9
REMARK    3  A    between atoms: C_12  and  S_13
REMARK    4  A    between atoms: S_13  and  C_14
REMARK    5  A    between atoms: C_14  and  C_15
REMARK    6  A    between atoms: C_15  and  N_16
REMARK                            x       y       z     vdW  Elec       q    Type
REMARK                         _______ _______ _______ _____ _____    ______ ____
ROOT
ATOM      1  C   UNL     1       5.771   5.789 -11.637  0.00  0.00    +0.126 C 
ATOM      2  C   UNL     1       4.572   5.199 -10.612  0.00  0.00    +0.096 C 
ATOM      3  N   UNL     1       4.188   6.692 -10.415  0.00  0.00    -0.254 N 
ATOM      4  C   UNL     1       3.550   6.539  -9.124  0.00  0.00    +0.136 C 
ATOM      5  C   UNL     1       4.272   5.724  -8.343  0.00  0.00    +0.025 C 
ATOM      6  C   UNL     1       5.425   5.281  -9.216  0.00  0.00    +0.055 C 
ATOM      7  C   UNL     1       5.380   7.188 -11.050  0.00  0.00    +0.233 C 
ATOM      8  O   UNL     1       5.972   8.268 -11.103  0.00  0.00    -0.274 OA
ENDROOT
BRANCH   1  10
ATOM      9  C   UNL     1       5.724   6.428 -14.050  0.00  0.00    +0.036 C 
ATOM     10  C   UNL     1       4.661   5.860 -12.940  0.00  0.00    +0.162 C 
ATOM     11  O   UNL     1       4.981   4.436 -13.328  0.00  0.00    -0.223 OA
ENDBRANCH   1  10
BRANCH   4  12
ATOM     12  C   UNL     1       2.363   7.303  -8.824  0.00  0.00    +0.401 C 
ATOM     13  O   UNL     1       2.288   8.295  -7.837  0.00  0.00    -0.239 OA
ATOM     14  O   UNL     1       1.238   7.135  -9.385  0.00  0.00    -0.239 OA
ENDBRANCH   4  12
BRANCH   5  15
ATOM     15  S   UNL     1       4.215   5.687  -6.580  0.00  0.00    -0.115 S 
BRANCH  15  16
ATOM     16  C   UNL     1       2.738   5.228  -5.786  0.00  0.00    +0.085 C 
BRANCH  16  17
ATOM     17  C   UNL     1       2.211   6.032  -4.639  0.00  0.00    +0.126 C 
BRANCH  17  18
ATOM     18  N   UNL     1       3.149   7.124  -4.462  0.00  0.00    -0.216 NA
ATOM     19  C   UNL     1       3.579   7.583  -3.195  0.00  0.00    +0.204 C 
ATOM     20  N   UNL     1       3.930   6.603  -2.414  0.00  0.00    -0.127 NA
ENDBRANCH  17  18
ENDBRANCH  16  17
ENDBRANCH  15  16
ENDBRANCH   5  15
TORSDOF 6
ENDMDL
MODEL 8
REMARK VINA RESULT:      -6.3      3.530      5.203
REMARK  Name = 
REMARK  6 active torsions:
REMARK  status: ('A' for Active; 'I' for Inactive)
REMARK    1  A    between atoms: C_2  and  C_4
REMARK    2  A    between atoms: C_8  and  C_9
REMARK    3  A    between atoms: C_12  and  S_13
REMARK    4  A    between atoms: S_13  and  C_14
REMARK    5  A    between atoms: C_14  and  C_15
REMARK    6  A    between atoms: C_15  and  N_16
REMARK                            x       y       z     vdW  Elec       q    Type
REMARK                         _______ _______ _______ _____ _____    ______ ____
ROOT
ATOM      1  C   UNL     1       1.228   5.946  -7.537  0.00  0.00    +0.126 C 
ATOM      2  C   UNL     1       2.073   5.125  -8.741  0.00  0.00    +0.096 C 
ATOM      3  N   UNL     1       3.001   6.371  -8.758  0.00  0.00    -0.254 N 
ATOM      4  C   UNL     1       3.492   6.205 -10.110  0.00  0.00    +0.136 C 
ATOM      5  C   UNL     1       2.487   5.866 -10.930  0.00  0.00    +0.025 C 
ATOM      6  C   UNL     1       1.278   5.754 -10.027  0.00  0.00    +0.055 C 
ATOM      7  C   UNL     1       2.114   7.169  -7.952  0.00  0.00    +0.233 C 
ATOM      8  O   UNL     1       1.990   8.368  -7.692  0.00  0.00    -0.274 OA
ENDROOT
BRANCH   1  10
ATOM      9  C   UNL     1       1.574   6.085  -5.069  0.00  0.00    +0.036 C 
ATOM     10  C   UNL     1       2.316   5.372  -6.344  0.00  0.00    +0.162 C 
ATOM     11  O   UNL     1       1.494   4.120  -6.154  0.00  0.00    -0.223 OA
ENDBRANCH   1  10
BRANCH   4  12
ATOM     12  C   UNL     1       4.873   6.501 -10.405  0.00  0.00    +0.401 C 
ATOM     13  O   UNL     1       5.938   5.616 -10.183  0.00  0.00    -0.239 OA
ATOM     14  O   UNL     1       5.290   7.610 -10.856  0.00  0.00    -0.239 OA
ENDBRANCH   4  12
BRANCH   5  15
ATOM     15  S   UNL     1       2.473   6.104 -12.678  0.00  0.00    -0.115 S 
BRANCH  15  16
ATOM     16  C   UNL     1       3.625   5.252 -13.662  0.00  0.00    +0.085 C 
BRANCH  16  17
ATOM     17  C   UNL     1       4.920   5.896 -14.046  0.00  0.00    +0.126 C 
BRANCH  17  18
ATOM     18  N   UNL     1       5.959   5.002 -13.571  0.00  0.00    -0.216 NA
ATOM     19  C   UNL     1       7.333   5.339 -13.567  0.00  0.00    +0.204 C 
ATOM     20  N   UNL     1       7.544   6.523 -13.070  0.00  0.00    -0.127 NA
ENDBRANCH  17  18
ENDBRANCH  16  17
ENDBRANCH  15  16
ENDBRANCH   5  15
TORSDOF 6
ENDMDL
MODEL 9
REMARK VINA RESULT:      -6.3      3.328      4.833
REMARK  Name = 
REMARK  6 active torsions:
REMARK  status: ('A' for Active; 'I' for Inactive)
REMARK    1  A    between atoms: C_2  and  C_4
REMARK    2  A    between atoms: C_8  and  C_9
REMARK    3  A    between atoms: C_12  and  S_13
REMARK    4  A    between atoms: S_13  and  C_14
REMARK    5  A    between atoms: C_14  and  C_15
REMARK    6  A    between atoms: C_15  and  N_16
REMARK                            x       y       z     vdW  Elec       q    Type
REMARK                         _______ _______ _______ _____ _____    ______ ____
ROOT
ATOM      1  C   UNL     1       3.026   5.558  -5.303  0.00  0.00    +0.126 C 
ATOM      2  C   UNL     1       3.046   6.590  -6.634  0.00  0.00    +0.096 C 
ATOM      3  N   UNL     1       1.892   5.701  -7.176  0.00  0.00    -0.254 N 
ATOM      4  C   UNL     1       2.088   5.998  -8.579  0.00  0.00    +0.136 C 
ATOM      5  C   UNL     1       3.394   5.992  -8.878  0.00  0.00    +0.025 C 
ATOM      6  C   UNL     1       4.086   5.726  -7.559  0.00  0.00    +0.055 C 
ATOM      7  C   UNL     1       2.083   4.673  -6.186  0.00  0.00    +0.233 C 
ATOM      8  O   UNL     1       1.730   3.500  -6.047  0.00  0.00    -0.274 OA
ENDROOT
BRANCH   1  10
ATOM      9  C   UNL     1       1.596   5.518  -3.258  0.00  0.00    +0.036 C 
ATOM     10  C   UNL     1       1.758   6.460  -4.587  0.00  0.00    +0.162 C 
ATOM     11  O   UNL     1       2.750   7.344  -3.871  0.00  0.00    -0.223 OA
ENDBRANCH   1  10
BRANCH   4  12
ATOM     12  C   UNL     1       0.939   6.150  -9.439  0.00  0.00    +0.401 C 
ATOM     13  O   UNL     1       0.748   7.221 -10.324  0.00  0.00    -0.239 OA
ATOM     14  O   UNL     1      -0.052   5.360  -9.462  0.00  0.00    -0.239 OA
ENDBRANCH   4  12
BRANCH   5  15
ATOM     15  S   UNL     1       4.072   5.740 -10.488  0.00  0.00    -0.115 S 
BRANCH  15  16
ATOM     16  C   UNL     1       5.516   6.593 -10.945  0.00  0.00    +0.085 C 
BRANCH  16  17
ATOM     17  C   UNL     1       6.856   6.122 -10.478  0.00  0.00    +0.126 C 
BRANCH  17  18
ATOM     18  N   UNL     1       7.801   6.568 -11.484  0.00  0.00    -0.216 NA
ATOM     19  C   UNL     1       8.562   5.682 -12.283  0.00  0.00    +0.204 C 
ATOM     20  N   UNL     1       7.832   4.732 -12.791  0.00  0.00    -0.127 NA
ENDBRANCH  17  18
ENDBRANCH  16  17
ENDBRANCH  15  16
ENDBRANCH   5  15
TORSDOF 6
ENDMDL
