MODEL 1
REMARK VINA RESULT:      -9.2      0.000      0.000
REMARK  Name = 
REMARK  4 active torsions:
REMARK  status: ('A' for Active; 'I' for Inactive)
REMARK    1  A    between atoms: S_2  and  C_5
REMARK    2  A    between atoms: C_8  and  C_9
REMARK    3  A    between atoms: N_11  and  C_12
REMARK    4  A    between atoms: C_17  and  C_18
REMARK                            x       y       z     vdW  Elec       q    Type
REMARK                         _______ _______ _______ _____ _____    ______ ____
ROOT
ATOM      1  C   UNL     1       1.456   6.383  -7.199  0.00  0.00    +0.270 C 
ATOM      2  N   UNL     1       1.523   5.499  -8.322  0.00  0.00    -0.175 NA
ATOM      3  O   UNL     1       1.727   7.610  -7.355  0.00  0.00    -0.268 OA
ENDROOT
BRANCH   1   8
ATOM      4  C   UNL     1      -0.900   5.603  -3.859  0.00  0.00    +0.107 A 
ATOM      5  C   UNL     1       0.423   5.232  -3.878  0.00  0.00    +0.030 A 
ATOM      6  C   UNL     1       1.211   5.363  -5.014  0.00  0.00    +0.063 A 
ATOM      7 CL   UNL     1       2.769   4.573  -5.138  0.00  0.00    -0.082 Cl
ATOM      8  C   UNL     1       0.590   5.962  -6.103  0.00  0.00    +0.066 A 
ATOM      9  C   UNL     1      -0.789   5.885  -6.248  0.00  0.00    +0.007 A 
ATOM     10  C   UNL     1      -1.529   5.674  -5.096  0.00  0.00    +0.019 A 
BRANCH   4  12
ATOM     11  C   UNL     1      -0.568   6.128  -1.046  0.00  0.00    +0.182 C 
ATOM     12  S   UNL     1      -1.754   6.002  -2.374  0.00  0.00    +0.010 S 
ATOM     13  O   UNL     1      -2.356   7.354  -2.552  0.00  0.00    -0.169 OA
ATOM     14  O   UNL     1      -2.741   4.952  -1.995  0.00  0.00    -0.169 OA
ENDBRANCH   4  12
ENDBRANCH   1   8
BRANCH   2  15
ATOM     15  C   UNL     1       1.965   5.998  -9.588  0.00  0.00    +0.074 A 
ATOM     16  C   UNL     1       3.295   5.957  -9.930  0.00  0.00    +0.019 A 
ATOM     17  C   UNL     1       3.644   6.103 -11.258  0.00  0.00    +0.030 A 
ATOM     18  C   UNL     1       2.638   6.092 -12.216  0.00  0.00    +0.059 A 
ATOM     19 CL   UNL     1       3.076   5.883 -13.888  0.00  0.00    -0.082 Cl
ATOM     20  C   UNL     1       1.368   6.447 -11.841  0.00  0.00    +0.013 A 
ATOM     21  C   UNL     1       1.036   6.459 -10.494  0.00  0.00    +0.017 A 
BRANCH  17  22
ATOM     22  C   UNL     1       5.027   6.416 -11.611  0.00  0.00    +0.082 A 
ATOM     23  N   UNL     1       5.576   7.583 -11.236  0.00  0.00    -0.244 NA
ATOM     24  C   UNL     1       6.914   7.731 -11.084  0.00  0.00    +0.099 A 
ATOM     25  C   UNL     1       7.702   6.642 -11.390  0.00  0.00    +0.021 A 
ATOM     26  C   UNL     1       7.188   5.717 -12.291  0.00  0.00    +0.003 A 
ATOM     27  C   UNL     1       5.842   5.416 -12.119  0.00  0.00    +0.019 A 
ENDBRANCH  17  22
ENDBRANCH   2  15
TORSDOF 4
ENDMDL
MODEL 2
REMARK VINA RESULT:      -8.9      4.094      9.692
REMARK  Name = 
REMARK  4 active torsions:
REMARK  status: ('A' for Active; 'I' for Inactive)
REMARK    1  A    between atoms: S_2  and  C_5
REMARK    2  A    between atoms: C_8  and  C_9
REMARK    3  A    between atoms: N_11  and  C_12
REMARK    4  A    between atoms: C_17  and  C_18
REMARK                            x       y       z     vdW  Elec       q    Type
REMARK                         _______ _______ _______ _____ _____    ______ ____
ROOT
ATOM      1  C   UNL     1       3.167   6.304  -7.805  0.00  0.00    +0.270 C 
ATOM      2  N   UNL     1       2.997   5.459  -6.663  0.00  0.00    -0.175 NA
ATOM      3  O   UNL     1       2.874   7.533  -7.720  0.00  0.00    -0.268 OA
ENDROOT
BRANCH   1   8
ATOM      4  C   UNL     1       5.934   5.475 -10.801  0.00  0.00    +0.107 A 
ATOM      5  C   UNL     1       4.586   5.362 -11.049  0.00  0.00    +0.030 A 
ATOM      6  C   UNL     1       3.636   5.510 -10.047  0.00  0.00    +0.063 A 
ATOM      7 CL   UNL     1       1.973   5.021 -10.290  0.00  0.00    -0.082 Cl
ATOM      8  C   UNL     1       4.137   5.854  -8.797  0.00  0.00    +0.066 A 
ATOM      9  C   UNL     1       5.433   5.501  -8.445  0.00  0.00    +0.007 A 
ATOM     10  C   UNL     1       6.327   5.285  -9.482  0.00  0.00    +0.019 A 
BRANCH   4  12
ATOM     11  C   UNL     1       6.268   6.781 -13.347  0.00  0.00    +0.182 C 
ATOM     12  S   UNL     1       7.100   5.871 -12.056  0.00  0.00    +0.010 S 
ATOM     13  O   UNL     1       8.111   6.787 -11.457  0.00  0.00    -0.169 OA
ATOM     14  O   UNL     1       7.690   4.652 -12.678  0.00  0.00    -0.169 OA
ENDBRANCH   4  12
ENDBRANCH   1   8
BRANCH   2  15
ATOM     15  C   UNL     1       2.432   5.998  -5.464  0.00  0.00    +0.074 A 
ATOM     16  C   UNL     1       1.129   5.729  -5.123  0.00  0.00    +0.019 A 
ATOM     17  C   UNL     1       0.723   5.950  -3.822  0.00  0.00    +0.030 A 
ATOM     18  C   UNL     1       1.686   6.248  -2.866  0.00  0.00    +0.059 A 
ATOM     19 CL   UNL     1       1.255   6.143  -1.183  0.00  0.00    -0.082 Cl
ATOM     20  C   UNL     1       2.869   6.807  -3.276  0.00  0.00    +0.013 A 
ATOM     21  C   UNL     1       3.227   6.735  -4.614  0.00  0.00    +0.017 A 
BRANCH  17  22
ATOM     22  C   UNL     1      -0.704   6.016  -3.512  0.00  0.00    +0.082 A 
ATOM     23  N   UNL     1      -1.248   5.162  -2.630  0.00  0.00    -0.244 NA
ATOM     24  C   UNL     1      -2.377   5.460  -1.945  0.00  0.00    +0.099 A 
ATOM     25  C   UNL     1      -2.985   6.664  -2.236  0.00  0.00    +0.021 A 
ATOM     26  C   UNL     1      -2.753   7.207  -3.493  0.00  0.00    +0.003 A 
ATOM     27  C   UNL     1      -1.442   7.107  -3.943  0.00  0.00    +0.019 A 
ENDBRANCH  17  22
ENDBRANCH   2  15
TORSDOF 4
ENDMDL
MODEL 3
REMARK VINA RESULT:      -8.8      3.797      9.010
REMARK  Name = 
REMARK  4 active torsions:
REMARK  status: ('A' for Active; 'I' for Inactive)
REMARK    1  A    between atoms: S_2  and  C_5
REMARK    2  A    between atoms: C_8  and  C_9
REMARK    3  A    between atoms: N_11  and  C_12
REMARK    4  A    between atoms: C_17  and  C_18
REMARK                            x       y       z     vdW  Elec       q    Type
REMARK                         _______ _______ _______ _____ _____    ______ ____
ROOT
ATOM      1  C   UNL     1       1.868   6.365  -8.799  0.00  0.00    +0.270 C 
ATOM      2  N   UNL     1       1.399   5.191  -8.129  0.00  0.00    -0.175 NA
ATOM      3  O   UNL     1       1.547   7.507  -8.354  0.00  0.00    -0.268 OA
ENDROOT
BRANCH   1   8
ATOM      4  C   UNL     1       5.318   6.398 -11.125  0.00  0.00    +0.107 A 
ATOM      5  C   UNL     1       4.083   6.272 -11.716  0.00  0.00    +0.030 A 
ATOM      6  C   UNL     1       2.919   6.134 -10.971  0.00  0.00    +0.063 A 
ATOM      7 CL   UNL     1       1.418   5.624 -11.714  0.00  0.00    -0.082 Cl
ATOM      8  C   UNL     1       3.082   6.208  -9.593  0.00  0.00    +0.066 A 
ATOM      9  C   UNL     1       4.294   5.855  -9.015  0.00  0.00    +0.007 A 
ATOM     10  C   UNL     1       5.418   5.932  -9.820  0.00  0.00    +0.019 A 
BRANCH   4  12
ATOM     11  C   UNL     1       6.608   6.732 -13.679  0.00  0.00    +0.182 C 
ATOM     12  S   UNL     1       6.690   7.134 -11.942  0.00  0.00    +0.010 S 
ATOM     13  O   UNL     1       6.541   8.613 -11.828  0.00  0.00    -0.169 OA
ATOM     14  O   UNL     1       7.991   6.622 -11.426  0.00  0.00    -0.169 OA
ENDBRANCH   4  12
ENDBRANCH   1   8
BRANCH   2  15
ATOM     15  C   UNL     1       0.515   5.322  -7.011  0.00  0.00    +0.074 A 
ATOM     16  C   UNL     1       1.011   5.556  -5.752  0.00  0.00    +0.019 A 
ATOM     17  C   UNL     1       0.153   6.028  -4.777  0.00  0.00    +0.030 A 
ATOM     18  C   UNL     1      -1.123   6.428  -5.151  0.00  0.00    +0.059 A 
ATOM     19 CL   UNL     1      -2.065   7.373  -4.032  0.00  0.00    -0.082 Cl
ATOM     20  C   UNL     1      -1.671   5.900  -6.291  0.00  0.00    +0.013 A 
ATOM     21  C   UNL     1      -0.846   5.279  -7.218  0.00  0.00    +0.017 A 
BRANCH  17  22
ATOM     22  C   UNL     1       0.547   5.951  -3.371  0.00  0.00    +0.082 A 
ATOM     23  N   UNL     1      -0.101   5.130  -2.528  0.00  0.00    -0.244 NA
ATOM     24  C   UNL     1       0.483   4.646  -1.407  0.00  0.00    +0.099 A 
ATOM     25  C   UNL     1       1.763   5.082  -1.131  0.00  0.00    +0.021 A 
ATOM     26  C   UNL     1       2.144   6.310  -1.658  0.00  0.00    +0.003 A 
ATOM     27  C   UNL     1       1.733   6.541  -2.965  0.00  0.00    +0.019 A 
ENDBRANCH  17  22
ENDBRANCH   2  15
TORSDOF 4
ENDMDL
MODEL 4
REMARK VINA RESULT:      -8.8      1.867      3.168
REMARK  Name = 
REMARK  4 active torsions:
REMARK  status: ('A' for Active; 'I' for Inactive)
REMARK    1  A    between atoms: S_2  and  C_5
REMARK    2  A    between atoms: C_8  and  C_9
REMARK    3  A    between atoms: N_11  and  C_12
REMARK    4  A    between atoms: C_17  and  C_18
REMARK                            x       y       z     vdW  Elec       q    Type
REMARK                         _______ _______ _______ _____ _____    ______ ____
ROOT
ATOM      1  C   UNL     1       2.958   6.013  -6.279  0.00  0.00    +0.270 C 
ATOM      2  N   UNL     1       3.384   4.924  -7.104  0.00  0.00    -0.175 NA
ATOM      3  O   UNL     1       3.128   7.202  -6.681  0.00  0.00    -0.268 OA
ENDROOT
BRANCH   1   8
ATOM      4  C   UNL     1      -0.024   5.627  -3.403  0.00  0.00    +0.107 A 
ATOM      5  C   UNL     1       1.296   5.450  -3.063  0.00  0.00    +0.030 A 
ATOM      6  C   UNL     1       2.310   5.450  -4.013  0.00  0.00    +0.063 A 
ATOM      7 CL   UNL     1       3.919   4.879  -3.626  0.00  0.00    -0.082 Cl
ATOM      8  C   UNL     1       1.904   5.713  -5.315  0.00  0.00    +0.066 A 
ATOM      9  C   UNL     1       0.610   5.414  -5.717  0.00  0.00    +0.007 A 
ATOM     10  C   UNL     1      -0.354   5.347  -4.724  0.00  0.00    +0.019 A 
BRANCH   4  12
ATOM     11  C   UNL     1      -2.190   7.490  -3.040  0.00  0.00    +0.182 C 
ATOM     12  S   UNL     1      -1.230   6.203  -2.261  0.00  0.00    +0.010 S 
ATOM     13  O   UNL     1      -2.160   5.073  -1.980  0.00  0.00    -0.169 OA
ATOM     14  O   UNL     1      -0.610   6.787  -1.037  0.00  0.00    -0.169 OA
ENDBRANCH   4  12
ENDBRANCH   1   8
BRANCH   2  15
ATOM     15  C   UNL     1       4.060   5.193  -8.336  0.00  0.00    +0.074 A 
ATOM     16  C   UNL     1       3.350   5.486  -9.474  0.00  0.00    +0.019 A 
ATOM     17  C   UNL     1       4.007   6.082 -10.532  0.00  0.00    +0.030 A 
ATOM     18  C   UNL     1       5.305   6.537 -10.339  0.00  0.00    +0.059 A 
ATOM     19 CL   UNL     1       5.996   7.621 -11.513  0.00  0.00    -0.082 Cl
ATOM     20  C   UNL     1       6.063   5.964  -9.350  0.00  0.00    +0.013 A 
ATOM     21  C   UNL     1       5.437   5.225  -8.356  0.00  0.00    +0.017 A 
BRANCH  17  22
ATOM     22  C   UNL     1       3.390   6.083 -11.857  0.00  0.00    +0.082 A 
ATOM     23  N   UNL     1       3.999   5.478 -12.891  0.00  0.00    -0.244 NA
ATOM     24  C   UNL     1       3.308   5.017 -13.961  0.00  0.00    +0.099 A 
ATOM     25  C   UNL     1       1.948   5.249 -13.974  0.00  0.00    +0.021 A 
ATOM     26  C   UNL     1       1.480   6.331 -13.239  0.00  0.00    +0.003 A 
ATOM     27  C   UNL     1       2.074   6.495 -11.993  0.00  0.00    +0.019 A 
ENDBRANCH  17  22
ENDBRANCH   2  15
TORSDOF 4
ENDMDL
MODEL 5
REMARK VINA RESULT:      -8.5      3.910      9.301
REMARK  Name = 
REMARK  4 active torsions:
REMARK  status: ('A' for Active; 'I' for Inactive)
REMARK    1  A    between atoms: S_2  and  C_5
REMARK    2  A    between atoms: C_8  and  C_9
REMARK    3  A    between atoms: N_11  and  C_12
REMARK    4  A    between atoms: C_17  and  C_18
REMARK                            x       y       z     vdW  Elec       q    Type
REMARK                         _______ _______ _______ _____ _____    ______ ____
ROOT
ATOM      1  C   UNL     1       2.107   5.944  -8.340  0.00  0.00    +0.270 C 
ATOM      2  N   UNL     1       1.978   7.113  -7.525  0.00  0.00    -0.175 NA
ATOM      3  O   UNL     1       1.864   4.806  -7.841  0.00  0.00    -0.268 OA
ENDROOT
BRANCH   1   8
ATOM      4  C   UNL     1       1.762   6.046 -12.486  0.00  0.00    +0.107 A 
ATOM      5  C   UNL     1       3.002   6.049 -11.891  0.00  0.00    +0.030 A 
ATOM      6  C   UNL     1       3.160   6.138 -10.515  0.00  0.00    +0.063 A 
ATOM      7 CL   UNL     1       4.718   6.495  -9.799  0.00  0.00    -0.082 Cl
ATOM      8  C   UNL     1       1.981   6.149  -9.780  0.00  0.00    +0.066 A 
ATOM      9  C   UNL     1       0.808   6.621 -10.351  0.00  0.00    +0.007 A 
ATOM     10  C   UNL     1       0.726   6.586 -11.734  0.00  0.00    +0.019 A 
BRANCH   4  12
ATOM     11  C   UNL     1       0.647   6.595 -15.084  0.00  0.00    +0.182 C 
ATOM     12  S   UNL     1       1.478   5.372 -14.085  0.00  0.00    +0.010 S 
ATOM     13  O   UNL     1       2.808   5.125 -14.712  0.00  0.00    -0.169 OA
ATOM     14  O   UNL     1       0.605   4.165 -14.038  0.00  0.00    -0.169 OA
ENDBRANCH   4  12
ENDBRANCH   1   8
BRANCH   2  15
ATOM     15  C   UNL     1       1.648   6.974  -6.140  0.00  0.00    +0.074 A 
ATOM     16  C   UNL     1       0.347   6.775  -5.747  0.00  0.00    +0.019 A 
ATOM     17  C   UNL     1       0.103   6.295  -4.476  0.00  0.00    +0.030 A 
ATOM     18  C   UNL     1       1.176   5.851  -3.714  0.00  0.00    +0.059 A 
ATOM     19 CL   UNL     1       0.856   4.897  -2.294  0.00  0.00    -0.082 Cl
ATOM     20  C   UNL     1       2.426   6.344  -3.988  0.00  0.00    +0.013 A 
ATOM     21  C   UNL     1       2.657   6.973  -5.202  0.00  0.00    +0.017 A 
BRANCH  17  22
ATOM     22  C   UNL     1      -1.240   6.406  -3.908  0.00  0.00    +0.082 A 
ATOM     23  N   UNL     1      -2.189   5.511  -4.228  0.00  0.00    -0.244 NA
ATOM     24  C   UNL     1      -3.238   5.254  -3.411  0.00  0.00    +0.099 A 
ATOM     25  C   UNL     1      -3.326   5.999  -2.253  0.00  0.00    +0.021 A 
ATOM     26  C   UNL     1      -2.711   7.245  -2.250  0.00  0.00    +0.003 A 
ATOM     27  C   UNL     1      -1.464   7.287  -2.861  0.00  0.00    +0.019 A 
ENDBRANCH  17  22
ENDBRANCH   2  15
TORSDOF 4
ENDMDL
MODEL 6
REMARK VINA RESULT:      -8.4      4.149      9.217
REMARK  Name = 
REMARK  4 active torsions:
REMARK  status: ('A' for Active; 'I' for Inactive)
REMARK    1  A    between atoms: S_2  and  C_5
REMARK    2  A    between atoms: C_8  and  C_9
REMARK    3  A    between atoms: N_11  and  C_12
REMARK    4  A    between atoms: C_17  and  C_18
REMARK                            x       y       z     vdW  Elec       q    Type
REMARK                         _______ _______ _______ _____ _____    ______ ____
ROOT
ATOM      1  C   UNL     1       2.613   5.918  -9.449  0.00  0.00    +0.270 C 
ATOM      2  N   UNL     1       2.120   7.098  -8.809  0.00  0.00    -0.175 NA
ATOM      3  O   UNL     1       2.779   4.863  -8.769  0.00  0.00    -0.268 OA
ENDROOT
BRANCH   1   8
ATOM      4  C   UNL     1       1.812   6.118 -13.528  0.00  0.00    +0.107 A 
ATOM      5  C   UNL     1       0.839   5.708 -12.648  0.00  0.00    +0.030 A 
ATOM      6  C   UNL     1       1.099   5.510 -11.298  0.00  0.00    +0.063 A 
ATOM      7 CL   UNL     1      -0.032   4.660 -10.268  0.00  0.00    -0.082 Cl
ATOM      8  C   UNL     1       2.388   5.828 -10.889  0.00  0.00    +0.066 A 
ATOM      9  C   UNL     1       3.442   5.765 -11.790  0.00  0.00    +0.007 A 
ATOM     10  C   UNL     1       3.125   5.888 -13.133  0.00  0.00    +0.019 A 
BRANCH   4  12
ATOM     11  C   UNL     1       0.805   8.550 -14.698  0.00  0.00    +0.182 C 
ATOM     12  S   UNL     1       1.441   6.920 -15.048  0.00  0.00    +0.010 S 
ATOM     13  O   UNL     1       2.723   7.100 -15.786  0.00  0.00    -0.169 OA
ATOM     14  O   UNL     1       0.399   6.192 -15.827  0.00  0.00    -0.169 OA
ENDBRANCH   4  12
ENDBRANCH   1   8
BRANCH   2  15
ATOM     15  C   UNL     1       1.892   7.092  -7.396  0.00  0.00    +0.074 A 
ATOM     16  C   UNL     1       0.636   6.857  -6.892  0.00  0.00    +0.019 A 
ATOM     17  C   UNL     1       0.509   6.504  -5.563  0.00  0.00    +0.030 A 
ATOM     18  C   UNL     1       1.658   6.214  -4.839  0.00  0.00    +0.059 A 
ATOM     19 CL   UNL     1       1.499   5.403  -3.306  0.00  0.00    -0.082 Cl
ATOM     20  C   UNL     1       2.850   6.751  -5.253  0.00  0.00    +0.013 A 
ATOM     21  C   UNL     1       2.958   7.257  -6.540  0.00  0.00    +0.017 A 
BRANCH  17  22
ATOM     22  C   UNL     1      -0.798   6.593  -4.914  0.00  0.00    +0.082 A 
ATOM     23  N   UNL     1      -1.512   5.482  -4.671  0.00  0.00    -0.244 NA
ATOM     24  C   UNL     1      -2.436   5.425  -3.683  0.00  0.00    +0.099 A 
ATOM     25  C   UNL     1      -2.658   6.583  -2.967  0.00  0.00    +0.021 A 
ATOM     26  C   UNL     1      -2.366   7.786  -3.597  0.00  0.00    +0.003 A 
ATOM     27  C   UNL     1      -1.189   7.791  -4.337  0.00  0.00    +0.019 A 
ENDBRANCH  17  22
ENDBRANCH   2  15
TORSDOF 4
ENDMDL
MODEL 7
REMARK VINA RESULT:      -8.4      3.329      3.892
REMARK  Name = 
REMARK  4 active torsions:
REMARK  status: ('A' for Active; 'I' for Inactive)
REMARK    1  A    between atoms: S_2  and  C_5
REMARK    2  A    between atoms: C_8  and  C_9
REMARK    3  A    between atoms: N_11  and  C_12
REMARK    4  A    between atoms: C_17  and  C_18
REMARK                            x       y       z     vdW  Elec       q    Type
REMARK                         _______ _______ _______ _____ _____    ______ ____
ROOT
ATOM      1  C   UNL     1       2.143   5.851  -4.738  0.00  0.00    +0.270 C 
ATOM      2  N   UNL     1       2.384   7.050  -5.480  0.00  0.00    -0.175 NA
ATOM      3  O   UNL     1       2.076   4.743  -5.348  0.00  0.00    -0.268 OA
ENDROOT
BRANCH   1   8
ATOM      4  C   UNL     1       3.214   6.428  -0.758  0.00  0.00    +0.107 A 
ATOM      5  C   UNL     1       4.181   6.312  -1.728  0.00  0.00    +0.030 A 
ATOM      6  C   UNL     1       3.873   5.998  -3.045  0.00  0.00    +0.063 A 
ATOM      7 CL   UNL     1       5.113   5.509  -4.180  0.00  0.00    -0.082 Cl
ATOM      8  C   UNL     1       2.517   5.884  -3.327  0.00  0.00    +0.066 A 
ATOM      9  C   UNL     1       1.624   5.526  -2.326  0.00  0.00    +0.007 A 
ATOM     10  C   UNL     1       2.010   5.787  -1.021  0.00  0.00    +0.019 A 
BRANCH   4  12
ATOM     11  C   UNL     1       3.849   9.040   0.277  0.00  0.00    +0.182 C 
ATOM     12  S   UNL     1       3.455   7.356   0.716  0.00  0.00    +0.010 S 
ATOM     13  O   UNL     1       2.155   7.387   1.444  0.00  0.00    -0.169 OA
ATOM     14  O   UNL     1       4.586   6.830   1.532  0.00  0.00    -0.169 OA
ENDBRANCH   4  12
ENDBRANCH   1   8
BRANCH   2  15
ATOM     15  C   UNL     1       2.473   6.991  -6.907  0.00  0.00    +0.074 A 
ATOM     16  C   UNL     1       3.663   6.686  -7.521  0.00  0.00    +0.019 A 
ATOM     17  C   UNL     1       3.645   6.288  -8.844  0.00  0.00    +0.030 A 
ATOM     18  C   UNL     1       2.421   6.026  -9.443  0.00  0.00    +0.059 A 
ATOM     19 CL   UNL     1       2.396   5.164 -10.955  0.00  0.00    -0.082 Cl
ATOM     20  C   UNL     1       1.297   6.627  -8.935  0.00  0.00    +0.013 A 
ATOM     21  C   UNL     1       1.337   7.176  -7.662  0.00  0.00    +0.017 A 
BRANCH  17  22
ATOM     22  C   UNL     1       4.885   6.300  -9.618  0.00  0.00    +0.082 A 
ATOM     23  N   UNL     1       5.041   7.159 -10.638  0.00  0.00    -0.244 NA
ATOM     24  C   UNL     1       6.264   7.565 -11.055  0.00  0.00    +0.099 A 
ATOM     25  C   UNL     1       7.356   7.009 -10.421  0.00  0.00    +0.021 A 
ATOM     26  C   UNL     1       7.184   5.763  -9.832  0.00  0.00    +0.003 A 
ATOM     27  C   UNL     1       5.985   5.596  -9.150  0.00  0.00    +0.019 A 
ENDBRANCH  17  22
ENDBRANCH   2  15
TORSDOF 4
ENDMDL
MODEL 8
REMARK VINA RESULT:      -8.2      4.233      8.740
REMARK  Name = 
REMARK  4 active torsions:
REMARK  status: ('A' for Active; 'I' for Inactive)
REMARK    1  A    between atoms: S_2  and  C_5
REMARK    2  A    between atoms: C_8  and  C_9
REMARK    3  A    between atoms: N_11  and  C_12
REMARK    4  A    between atoms: C_17  and  C_18
REMARK                            x       y       z     vdW  Elec       q    Type
REMARK                         _______ _______ _______ _____ _____    ______ ____
ROOT
ATOM      1  C   UNL     1       2.043   5.396  -8.302  0.00  0.00    +0.270 C 
ATOM      2  N   UNL     1       1.504   6.335  -7.368  0.00  0.00    -0.175 NA
ATOM      3  O   UNL     1       2.315   4.220  -7.918  0.00  0.00    -0.268 OA
ENDROOT
BRANCH   1   8
ATOM      4  C   UNL     1       1.410   5.692 -12.405  0.00  0.00    +0.107 A 
ATOM      5  C   UNL     1       2.593   6.122 -11.851  0.00  0.00    +0.030 A 
ATOM      6  C   UNL     1       2.797   6.154 -10.478  0.00  0.00    +0.063 A 
ATOM      7 CL   UNL     1       4.147   7.022  -9.778  0.00  0.00    -0.082 Cl
ATOM      8  C   UNL     1       1.754   5.653  -9.709  0.00  0.00    +0.066 A 
ATOM      9  C   UNL     1       0.453   5.683 -10.194  0.00  0.00    +0.007 A 
ATOM     10  C   UNL     1       0.299   5.731 -11.570  0.00  0.00    +0.019 A 
BRANCH   4  12
ATOM     11  C   UNL     1       0.621   6.381 -15.088  0.00  0.00    +0.182 C 
ATOM     12  S   UNL     1       1.296   5.093 -14.054  0.00  0.00    +0.010 S 
ATOM     13  O   UNL     1       2.683   4.829 -14.533  0.00  0.00    -0.169 OA
ATOM     14  O   UNL     1       0.391   3.913 -14.161  0.00  0.00    -0.169 OA
ENDBRANCH   4  12
ENDBRANCH   1   8
BRANCH   2  15
ATOM     15  C   UNL     1       1.348   5.957  -5.997  0.00  0.00    +0.074 A 
ATOM     16  C   UNL     1       2.291   6.309  -5.062  0.00  0.00    +0.019 A 
ATOM     17  C   UNL     1       1.954   6.253  -3.724  0.00  0.00    +0.030 A 
ATOM     18  C   UNL     1       0.627   6.029  -3.381  0.00  0.00    +0.059 A 
ATOM     19 CL   UNL     1       0.122   6.339  -1.744  0.00  0.00    -0.082 Cl
ATOM     20  C   UNL     1      -0.186   5.385  -4.278  0.00  0.00    +0.013 A 
ATOM     21  C   UNL     1       0.207   5.292  -5.605  0.00  0.00    +0.017 A 
BRANCH  17  22
ATOM     22  C   UNL     1       3.009   6.274  -2.713  0.00  0.00    +0.082 A 
ATOM     23  N   UNL     1       3.474   7.442  -2.241  0.00  0.00    -0.244 NA
ATOM     24  C   UNL     1       4.048   7.545  -1.019  0.00  0.00    +0.099 A 
ATOM     25  C   UNL     1       4.190   6.380  -0.294  0.00  0.00    +0.021 A 
ATOM     26  C   UNL     1       4.251   5.190  -1.009  0.00  0.00    +0.003 A 
ATOM     27  C   UNL     1       3.358   5.096  -2.070  0.00  0.00    +0.019 A 
ENDBRANCH  17  22
ENDBRANCH   2  15
TORSDOF 4
ENDMDL
MODEL 9
REMARK VINA RESULT:      -8.2      2.285      2.812
REMARK  Name = 
REMARK  4 active torsions:
REMARK  status: ('A' for Active; 'I' for Inactive)
REMARK    1  A    between atoms: S_2  and  C_5
REMARK    2  A    between atoms: C_8  and  C_9
REMARK    3  A    between atoms: N_11  and  C_12
REMARK    4  A    between atoms: C_17  and  C_18
REMARK                            x       y       z     vdW  Elec       q    Type
REMARK                         _______ _______ _______ _____ _____    ______ ____
ROOT
ATOM      1  C   UNL     1       2.629   6.531  -4.851  0.00  0.00    +0.270 C 
ATOM      2  N   UNL     1       2.108   5.794  -5.960  0.00  0.00    -0.175 NA
ATOM      3  O   UNL     1       3.295   7.587  -5.062  0.00  0.00    -0.268 OA
ENDROOT
BRANCH   1   8
ATOM      4  C   UNL     1       0.733   6.483  -1.147  0.00  0.00    +0.107 A 
ATOM      5  C   UNL     1       2.089   6.275  -1.236  0.00  0.00    +0.030 A 
ATOM      6  C   UNL     1       2.740   6.162  -2.458  0.00  0.00    +0.063 A 
ATOM      7 CL   UNL     1       4.378   5.552  -2.563  0.00  0.00    -0.082 Cl
ATOM      8  C   UNL     1       1.940   6.348  -3.578  0.00  0.00    +0.066 A 
ATOM      9  C   UNL     1       0.580   6.076  -3.516  0.00  0.00    +0.007 A 
ATOM     10  C   UNL     1      -0.012   6.123  -2.264  0.00  0.00    +0.019 A 
BRANCH   4  12
ATOM     11  C   UNL     1      -1.642   6.461   0.483  0.00  0.00    +0.182 C 
ATOM     12  S   UNL     1      -0.027   7.192   0.271  0.00  0.00    +0.010 S 
ATOM     13  O   UNL     1       0.787   6.807   1.458  0.00  0.00    -0.169 OA
ATOM     14  O   UNL     1      -0.218   8.664   0.128  0.00  0.00    -0.169 OA
ENDBRANCH   4  12
ENDBRANCH   1   8
BRANCH   2  15
ATOM     15  C   UNL     1       2.407   6.218  -7.293  0.00  0.00    +0.074 A 
ATOM     16  C   UNL     1       3.640   5.974  -7.845  0.00  0.00    +0.019 A 
ATOM     17  C   UNL     1       3.785   6.064  -9.216  0.00  0.00    +0.030 A 
ATOM     18  C   UNL     1       2.647   6.207  -9.997  0.00  0.00    +0.059 A 
ATOM     19 CL   UNL     1       2.768   5.932 -11.712  0.00  0.00    -0.082 Cl
ATOM     20  C   UNL     1       1.523   6.753  -9.430  0.00  0.00    +0.013 A 
ATOM     21  C   UNL     1       1.422   6.817  -8.049  0.00  0.00    +0.017 A 
BRANCH  17  22
ATOM     22  C   UNL     1       5.124   6.161  -9.795  0.00  0.00    +0.082 A 
ATOM     23  N   UNL     1       5.382   7.056 -10.762  0.00  0.00    -0.244 NA
ATOM     24  C   UNL     1       6.629   7.535 -10.982  0.00  0.00    +0.099 A 
ATOM     25  C   UNL     1       7.644   7.017 -10.204  0.00  0.00    +0.021 A 
ATOM     26  C   UNL     1       7.454   5.746  -9.675  0.00  0.00    +0.003 A 
ATOM     27  C   UNL     1       6.178   5.500  -9.184  0.00  0.00    +0.019 A 
ENDBRANCH  17  22
ENDBRANCH   2  15
TORSDOF 4
ENDMDL
