MODEL 1
REMARK VINA RESULT:      -8.3      0.000      0.000
REMARK  Name = 
REMARK  2 active torsions:
REMARK  status: ('A' for Active; 'I' for Inactive)
REMARK    1  A    between atoms: C_2  and  C_3
REMARK    2  A    between atoms: C_13  and  O_14
REMARK                            x       y       z     vdW  Elec       q    Type
REMARK                         _______ _______ _______ _____ _____    ______ ____
ROOT
ATOM      1  C   UNL     1       0.124   5.667  -5.247  0.00  0.00    +0.180 C 
ATOM      2  C   UNL     1       1.318   5.270  -6.037  0.00  0.00    +0.037 C 
ATOM      3  C   UNL     1       0.766   6.011  -7.381  0.00  0.00    +0.004 C 
ATOM      4  C   UNL     1       2.314   6.113  -8.064  0.00  0.00    +0.004 C 
ATOM      5  C   UNL     1       2.258   4.530  -8.682  0.00  0.00    +0.022 C 
ATOM      6  C   UNL     1       2.768   3.854  -7.279  0.00  0.00    +0.004 C 
ATOM      7  C   UNL     1       3.731   4.677  -9.314  0.00  0.00    -0.026 A 
ATOM      8  C   UNL     1       3.563   5.539 -10.397  0.00  0.00    -0.023 A 
ATOM      9  C   UNL     1       4.659   6.218 -10.881  0.00  0.00    +0.032 A 
ATOM     10  C   UNL     1       5.839   6.214 -10.152  0.00  0.00    +0.138 A 
ATOM     11  C   UNL     1       5.971   5.353  -9.071  0.00  0.00    +0.037 A 
ATOM     12  C   UNL     1       2.184   6.087 -10.609  0.00  0.00    +0.026 C 
ATOM     13  C   UNL     1       4.801   4.852  -8.508  0.00  0.00    -0.001 A 
ATOM     14  C   UNL     1       1.711   6.780  -9.397  0.00  0.00    +0.005 C 
ATOM     15  C   UNL     1       0.931   7.462  -6.655  0.00  0.00    +0.004 C 
ATOM     16  C   UNL     1       2.511   6.008  -5.571  0.00  0.00    +0.003 C 
ATOM     17  C   UNL     1       1.475   3.882  -6.463  0.00  0.00    +0.004 C 
ATOM     18  C   UNL     1       0.380   7.179  -5.281  0.00  0.00    +0.043 C 
ATOM     19  O   UNL     1       0.098   5.235  -3.949  0.00  0.00    -0.212 OA
ENDROOT
BRANCH   1  21
ATOM     20  C   UNL     1      -2.123   5.402  -6.346  0.00  0.00    -0.012 C 
ATOM     21  C   UNL     1      -1.147   5.459  -5.966  0.00  0.00    -0.049 C 
ENDBRANCH   1  21
BRANCH  10  22
ATOM     22  O   UNL     1       6.765   7.228 -10.412  0.00  0.00    -0.471 OA
ATOM     23  C   UNL     1       6.512   8.154 -11.452  0.00  0.00    +0.252 C 
ENDBRANCH  10  22
TORSDOF 2
ENDMDL
MODEL 2
REMARK VINA RESULT:      -8.1      1.492      6.339
REMARK  Name = 
REMARK  2 active torsions:
REMARK  status: ('A' for Active; 'I' for Inactive)
REMARK    1  A    between atoms: C_2  and  C_3
REMARK    2  A    between atoms: C_13  and  O_14
REMARK                            x       y       z     vdW  Elec       q    Type
REMARK                         _______ _______ _______ _____ _____    ______ ____
ROOT
ATOM      1  C   UNL     1       4.610   5.578 -10.401  0.00  0.00    +0.180 C 
ATOM      2  C   UNL     1       3.492   5.181  -9.507  0.00  0.00    +0.037 C 
ATOM      3  C   UNL     1       3.963   6.217  -8.338  0.00  0.00    +0.004 C 
ATOM      4  C   UNL     1       2.427   6.243  -7.623  0.00  0.00    +0.004 C 
ATOM      5  C   UNL     1       2.701   4.818  -6.737  0.00  0.00    +0.022 C 
ATOM      6  C   UNL     1       2.263   3.840  -7.977  0.00  0.00    +0.004 C 
ATOM      7  C   UNL     1       1.233   4.887  -6.083  0.00  0.00    -0.026 A 
ATOM      8  C   UNL     1       1.303   5.945  -5.177  0.00  0.00    -0.023 A 
ATOM      9  C   UNL     1       0.134   6.555  -4.777  0.00  0.00    +0.032 A 
ATOM     10  C   UNL     1      -1.046   6.269  -5.447  0.00  0.00    +0.138 A 
ATOM     11  C   UNL     1      -1.080   5.218  -6.352  0.00  0.00    +0.037 A 
ATOM     12  C   UNL     1       2.601   6.694  -5.121  0.00  0.00    +0.026 C 
ATOM     13  C   UNL     1       0.135   4.776  -6.864  0.00  0.00    -0.001 A 
ATOM     14  C   UNL     1       2.957   7.210  -6.454  0.00  0.00    +0.005 C 
ATOM     15  C   UNL     1       3.595   7.480  -9.303  0.00  0.00    +0.004 C 
ATOM     16  C   UNL     1       2.204   5.664 -10.049  0.00  0.00    +0.003 C 
ATOM     17  C   UNL     1       3.527   3.885  -8.836  0.00  0.00    +0.004 C 
ATOM     18  C   UNL     1       4.156   7.026 -10.626  0.00  0.00    +0.043 C 
ATOM     19  O   UNL     1       4.671   4.925 -11.603  0.00  0.00    -0.212 OA
ENDROOT
BRANCH   1  21
ATOM     20  C   UNL     1       6.902   5.702  -9.375  0.00  0.00    -0.012 C 
ATOM     21  C   UNL     1       5.909   5.666  -9.709  0.00  0.00    -0.049 C 
ENDBRANCH   1  21
BRANCH  10  22
ATOM     22  O   UNL     1      -2.094   7.187  -5.333  0.00  0.00    -0.471 OA
ATOM     23  C   UNL     1      -1.941   8.321  -4.500  0.00  0.00    +0.252 C 
ENDBRANCH  10  22
TORSDOF 2
ENDMDL
MODEL 3
REMARK VINA RESULT:      -7.7      1.517      2.429
REMARK  Name = 
REMARK  2 active torsions:
REMARK  status: ('A' for Active; 'I' for Inactive)
REMARK    1  A    between atoms: C_2  and  C_3
REMARK    2  A    between atoms: C_13  and  O_14
REMARK                            x       y       z     vdW  Elec       q    Type
REMARK                         _______ _______ _______ _____ _____    ______ ____
ROOT
ATOM      1  C   UNL     1      -1.076   6.079  -4.313  0.00  0.00    +0.180 C 
ATOM      2  C   UNL     1      -0.347   5.563  -5.501  0.00  0.00    +0.037 C 
ATOM      3  C   UNL     1       0.384   6.996  -5.766  0.00  0.00    +0.004 C 
ATOM      4  C   UNL     1       1.631   6.291  -6.670  0.00  0.00    +0.004 C 
ATOM      5  C   UNL     1       0.721   6.273  -8.106  0.00  0.00    +0.022 C 
ATOM      6  C   UNL     1      -0.013   4.853  -7.745  0.00  0.00    +0.004 C 
ATOM      7  C   UNL     1       1.935   5.604  -8.921  0.00  0.00    -0.026 A 
ATOM      8  C   UNL     1       2.875   6.626  -9.052  0.00  0.00    -0.023 A 
ATOM      9  C   UNL     1       4.188   6.293  -9.299  0.00  0.00    +0.032 A 
ATOM     10  C   UNL     1       4.588   4.970  -9.181  0.00  0.00    +0.138 A 
ATOM     11  C   UNL     1       3.630   3.977  -9.040  0.00  0.00    +0.037 A 
ATOM     12  C   UNL     1       2.539   7.932  -8.395  0.00  0.00    +0.026 C 
ATOM     13  C   UNL     1       2.369   4.365  -8.599  0.00  0.00    -0.001 A 
ATOM     14  C   UNL     1       2.276   7.734  -6.959  0.00  0.00    +0.005 C 
ATOM     15  C   UNL     1       1.223   6.831  -4.377  0.00  0.00    +0.004 C 
ATOM     16  C   UNL     1       0.690   4.595  -5.087  0.00  0.00    +0.003 C 
ATOM     17  C   UNL     1      -1.071   5.324  -6.747  0.00  0.00    +0.004 C 
ATOM     18  C   UNL     1       0.158   6.325  -3.437  0.00  0.00    +0.043 C 
ATOM     19  O   UNL     1      -1.909   5.187  -3.692  0.00  0.00    -0.212 OA
ENDROOT
BRANCH   1  21
ATOM     20  C   UNL     1      -2.180   8.329  -4.524  0.00  0.00    -0.012 C 
ATOM     21  C   UNL     1      -1.685   7.404  -4.532  0.00  0.00    -0.049 C 
ENDBRANCH   1  21
BRANCH  10  22
ATOM     22  O   UNL     1       5.952   4.720  -9.001  0.00  0.00    -0.471 OA
ATOM     23  C   UNL     1       6.898   5.699  -9.387  0.00  0.00    +0.252 C 
ENDBRANCH  10  22
TORSDOF 2
ENDMDL
MODEL 4
REMARK VINA RESULT:      -7.7      2.388      5.477
REMARK  Name = 
REMARK  2 active torsions:
REMARK  status: ('A' for Active; 'I' for Inactive)
REMARK    1  A    between atoms: C_2  and  C_3
REMARK    2  A    between atoms: C_13  and  O_14
REMARK                            x       y       z     vdW  Elec       q    Type
REMARK                         _______ _______ _______ _____ _____    ______ ____
ROOT
ATOM      1  C   UNL     1       0.978   5.643 -11.112  0.00  0.00    +0.180 C 
ATOM      2  C   UNL     1       1.905   5.839  -9.968  0.00  0.00    +0.037 C 
ATOM      3  C   UNL     1       0.693   6.264  -8.964  0.00  0.00    +0.004 C 
ATOM      4  C   UNL     1       1.594   5.888  -7.578  0.00  0.00    +0.004 C 
ATOM      5  C   UNL     1       2.391   7.390  -7.563  0.00  0.00    +0.022 C 
ATOM      6  C   UNL     1       3.547   6.904  -8.619  0.00  0.00    +0.004 C 
ATOM      7  C   UNL     1       3.222   6.987  -6.246  0.00  0.00    -0.026 A 
ATOM      8  C   UNL     1       2.282   7.018  -5.216  0.00  0.00    -0.023 A 
ATOM      9  C   UNL     1       2.539   6.313  -4.060  0.00  0.00    +0.032 A 
ATOM     10  C   UNL     1       3.594   5.414  -4.033  0.00  0.00    +0.138 A 
ATOM     11  C   UNL     1       4.505   5.398  -5.079  0.00  0.00    +0.037 A 
ATOM     12  C   UNL     1       0.869   7.333  -5.608  0.00  0.00    +0.026 C 
ATOM     13  C   UNL     1       4.103   5.963  -6.285  0.00  0.00    -0.001 A 
ATOM     14  C   UNL     1       0.394   6.384  -6.630  0.00  0.00    +0.005 C 
ATOM     15  C   UNL     1       0.087   4.753  -9.047  0.00  0.00    +0.004 C 
ATOM     16  C   UNL     1       2.438   4.538  -9.510  0.00  0.00    +0.003 C 
ATOM     17  C   UNL     1       2.785   7.004  -9.940  0.00  0.00    +0.004 C 
ATOM     18  C   UNL     1       0.208   4.457 -10.520  0.00  0.00    +0.043 C 
ATOM     19  O   UNL     1       1.560   5.268 -12.293  0.00  0.00    -0.212 OA
ENDROOT
BRANCH   1  21
ATOM     20  C   UNL     1      -0.657   7.509 -11.528  0.00  0.00    -0.012 C 
ATOM     21  C   UNL     1      -0.008   6.730 -11.257  0.00  0.00    -0.049 C 
ENDBRANCH   1  21
BRANCH  10  22
ATOM     22  O   UNL     1       3.572   4.420  -3.050  0.00  0.00    -0.471 OA
ATOM     23  C   UNL     1       3.866   4.759  -1.708  0.00  0.00    +0.252 C 
ENDBRANCH  10  22
TORSDOF 2
ENDMDL
MODEL 5
REMARK VINA RESULT:      -7.6      1.663      6.389
REMARK  Name = 
REMARK  2 active torsions:
REMARK  status: ('A' for Active; 'I' for Inactive)
REMARK    1  A    between atoms: C_2  and  C_3
REMARK    2  A    between atoms: C_13  and  O_14
REMARK                            x       y       z     vdW  Elec       q    Type
REMARK                         _______ _______ _______ _____ _____    ______ ____
ROOT
ATOM      1  C   UNL     1       3.623   5.613  -9.616  0.00  0.00    +0.180 C 
ATOM      2  C   UNL     1       3.118   6.111  -8.311  0.00  0.00    +0.037 C 
ATOM      3  C   UNL     1       1.712   5.299  -8.461  0.00  0.00    +0.004 C 
ATOM      4  C   UNL     1       1.412   5.336  -6.794  0.00  0.00    +0.004 C 
ATOM      5  C   UNL     1       0.738   6.897  -6.846  0.00  0.00    +0.022 C 
ATOM      6  C   UNL     1       2.195   7.642  -6.744  0.00  0.00    +0.004 C 
ATOM      7  C   UNL     1       0.473   6.884  -5.259  0.00  0.00    -0.026 A 
ATOM      8  C   UNL     1      -0.586   5.992  -5.088  0.00  0.00    -0.023 A 
ATOM      9  C   UNL     1      -0.775   5.415  -3.852  0.00  0.00    +0.032 A 
ATOM     10  C   UNL     1       0.207   5.546  -2.882  0.00  0.00    +0.138 A 
ATOM     11  C   UNL     1       1.255   6.432  -3.087  0.00  0.00    +0.037 A 
ATOM     12  C   UNL     1      -1.092   5.310  -6.323  0.00  0.00    +0.026 C 
ATOM     13  C   UNL     1       1.512   6.826  -4.396  0.00  0.00    -0.001 A 
ATOM     14  C   UNL     1       0.002   4.594  -7.003  0.00  0.00    +0.005 C 
ATOM     15  C   UNL     1       2.512   3.882  -8.341  0.00  0.00    +0.004 C 
ATOM     16  C   UNL     1       3.878   5.500  -7.199  0.00  0.00    +0.003 C 
ATOM     17  C   UNL     1       2.688   7.501  -8.184  0.00  0.00    +0.004 C 
ATOM     18  C   UNL     1       3.708   4.132  -9.224  0.00  0.00    +0.043 C 
ATOM     19  O   UNL     1       4.863   6.061  -9.985  0.00  0.00    -0.212 OA
ENDROOT
BRANCH   1  21
ATOM     20  C   UNL     1       2.011   5.863 -11.530  0.00  0.00    -0.012 C 
ATOM     21  C   UNL     1       2.621   5.685 -10.696  0.00  0.00    -0.049 C 
ENDBRANCH   1  21
BRANCH  10  22
ATOM     22  O   UNL     1       0.209   4.622  -1.833  0.00  0.00    -0.471 OA
ATOM     23  C   UNL     1       1.321   4.561  -0.959  0.00  0.00    +0.252 C 
ENDBRANCH  10  22
TORSDOF 2
ENDMDL
MODEL 6
REMARK VINA RESULT:      -7.6      3.013      6.165
REMARK  Name = 
REMARK  2 active torsions:
REMARK  status: ('A' for Active; 'I' for Inactive)
REMARK    1  A    between atoms: C_2  and  C_3
REMARK    2  A    between atoms: C_13  and  O_14
REMARK                            x       y       z     vdW  Elec       q    Type
REMARK                         _______ _______ _______ _____ _____    ______ ____
ROOT
ATOM      1  C   UNL     1       1.875   5.620  -8.542  0.00  0.00    +0.180 C 
ATOM      2  C   UNL     1       1.942   5.440  -7.068  0.00  0.00    +0.037 C 
ATOM      3  C   UNL     1       3.356   6.247  -6.961  0.00  0.00    +0.004 C 
ATOM      4  C   UNL     1       3.135   6.589  -5.317  0.00  0.00    +0.004 C 
ATOM      5  C   UNL     1       3.738   5.080  -4.816  0.00  0.00    +0.022 C 
ATOM      6  C   UNL     1       2.294   4.326  -4.998  0.00  0.00    +0.004 C 
ATOM      7  C   UNL     1       3.510   5.453  -3.267  0.00  0.00    -0.026 A 
ATOM      8  C   UNL     1       4.498   6.396  -2.985  0.00  0.00    -0.023 A 
ATOM      9  C   UNL     1       4.324   7.238  -1.909  0.00  0.00    +0.032 A 
ATOM     10  C   UNL     1       3.090   7.291  -1.279  0.00  0.00    +0.138 A 
ATOM     11  C   UNL     1       2.123   6.346  -1.591  0.00  0.00    +0.037 A 
ATOM     12  C   UNL     1       5.378   6.806  -4.127  0.00  0.00    +0.026 C 
ATOM     13  C   UNL     1       2.262   5.664  -2.795  0.00  0.00    -0.001 A 
ATOM     14  C   UNL     1       4.567   7.315  -5.247  0.00  0.00    +0.005 C 
ATOM     15  C   UNL     1       2.608   7.627  -7.405  0.00  0.00    +0.004 C 
ATOM     16  C   UNL     1       0.904   6.255  -6.403  0.00  0.00    +0.003 C 
ATOM     17  C   UNL     1       2.265   4.129  -6.514  0.00  0.00    +0.004 C 
ATOM     18  C   UNL     1       1.727   7.147  -8.530  0.00  0.00    +0.043 C 
ATOM     19  O   UNL     1       0.790   5.059  -9.161  0.00  0.00    -0.212 OA
ENDROOT
BRANCH   1  21
ATOM     20  C   UNL     1       3.963   5.084  -9.836  0.00  0.00    -0.012 C 
ATOM     21  C   UNL     1       3.153   5.345  -9.223  0.00  0.00    -0.049 C 
ENDBRANCH   1  21
BRANCH  10  22
ATOM     22  O   UNL     1       2.803   8.423  -0.511  0.00  0.00    -0.471 OA
ATOM     23  C   UNL     1       3.564   9.602  -0.694  0.00  0.00    +0.252 C 
ENDBRANCH  10  22
TORSDOF 2
ENDMDL
MODEL 7
REMARK VINA RESULT:      -7.3      2.394      4.387
REMARK  Name = 
REMARK  2 active torsions:
REMARK  status: ('A' for Active; 'I' for Inactive)
REMARK    1  A    between atoms: C_2  and  C_3
REMARK    2  A    between atoms: C_13  and  O_14
REMARK                            x       y       z     vdW  Elec       q    Type
REMARK                         _______ _______ _______ _____ _____    ______ ____
ROOT
ATOM      1  C   UNL     1       3.610   5.691  -3.958  0.00  0.00    +0.180 C 
ATOM      2  C   UNL     1       2.674   5.882  -5.096  0.00  0.00    +0.037 C 
ATOM      3  C   UNL     1       3.891   6.161  -6.145  0.00  0.00    +0.004 C 
ATOM      4  C   UNL     1       2.938   5.766  -7.489  0.00  0.00    +0.004 C 
ATOM      5  C   UNL     1       2.245   7.317  -7.583  0.00  0.00    +0.022 C 
ATOM      6  C   UNL     1       1.081   6.977  -6.480  0.00  0.00    +0.004 C 
ATOM      7  C   UNL     1       1.361   6.894  -8.859  0.00  0.00    -0.026 A 
ATOM      8  C   UNL     1       2.279   6.797  -9.905  0.00  0.00    -0.023 A 
ATOM      9  C   UNL     1       1.950   6.044 -11.010  0.00  0.00    +0.032 A 
ATOM     10  C   UNL     1       0.836   5.220 -10.965  0.00  0.00    +0.138 A 
ATOM     11  C   UNL     1      -0.053   5.331  -9.905  0.00  0.00    +0.037 A 
ATOM     12  C   UNL     1       3.718   7.036  -9.557  0.00  0.00    +0.026 C 
ATOM     13  C   UNL     1       0.413   5.938  -8.743  0.00  0.00    -0.001 A 
ATOM     14  C   UNL     1       4.148   6.119  -8.486  0.00  0.00    +0.005 C 
ATOM     15  C   UNL     1       4.394   4.618  -5.980  0.00  0.00    +0.004 C 
ATOM     16  C   UNL     1       2.044   4.597  -5.464  0.00  0.00    +0.003 C 
ATOM     17  C   UNL     1       1.876   7.102  -5.180  0.00  0.00    +0.004 C 
ATOM     18  C   UNL     1       4.284   4.421  -4.489  0.00  0.00    +0.043 C 
ATOM     19  O   UNL     1       3.028   5.429  -2.746  0.00  0.00    -0.212 OA
ENDROOT
BRANCH   1  21
ATOM     20  C   UNL     1       5.408   7.428  -3.679  0.00  0.00    -0.012 C 
ATOM     21  C   UNL     1       4.671   6.714  -3.896  0.00  0.00    -0.049 C 
ENDBRANCH   1  21
BRANCH  10  22
ATOM     22  O   UNL     1       0.769   4.170 -11.884  0.00  0.00    -0.471 OA
ATOM     23  C   UNL     1       0.728   4.457 -13.270  0.00  0.00    +0.252 C 
ENDBRANCH  10  22
TORSDOF 2
ENDMDL
MODEL 8
REMARK VINA RESULT:      -7.3      2.020      3.862
REMARK  Name = 
REMARK  2 active torsions:
REMARK  status: ('A' for Active; 'I' for Inactive)
REMARK    1  A    between atoms: C_2  and  C_3
REMARK    2  A    between atoms: C_13  and  O_14
REMARK                            x       y       z     vdW  Elec       q    Type
REMARK                         _______ _______ _______ _____ _____    ______ ____
ROOT
ATOM      1  C   UNL     1       1.786   5.439  -5.459  0.00  0.00    +0.180 C 
ATOM      2  C   UNL     1       1.777   5.977  -6.844  0.00  0.00    +0.037 C 
ATOM      3  C   UNL     1       3.146   5.184  -7.239  0.00  0.00    +0.004 C 
ATOM      4  C   UNL     1       2.817   5.266  -8.899  0.00  0.00    +0.004 C 
ATOM      5  C   UNL     1       3.455   6.835  -9.052  0.00  0.00    +0.022 C 
ATOM      6  C   UNL     1       2.057   7.560  -8.595  0.00  0.00    +0.004 C 
ATOM      7  C   UNL     1       3.123   6.866 -10.626  0.00  0.00    -0.026 A 
ATOM      8  C   UNL     1       4.052   5.995 -11.196  0.00  0.00    -0.023 A 
ATOM      9  C   UNL     1       3.781   5.452 -12.433  0.00  0.00    +0.032 A 
ATOM     10  C   UNL     1       2.511   5.590 -12.973  0.00  0.00    +0.138 A 
ATOM     11  C   UNL     1       1.605   6.455 -12.376  0.00  0.00    +0.037 A 
ATOM     12  C   UNL     1       4.978   5.290 -10.250  0.00  0.00    +0.026 C 
ATOM     13  C   UNL     1       1.842   6.813 -11.052  0.00  0.00    -0.001 A 
ATOM     14  C   UNL     1       4.210   4.541  -9.240  0.00  0.00    +0.005 C 
ATOM     15  C   UNL     1       2.365   3.758  -7.100  0.00  0.00    +0.004 C 
ATOM     16  C   UNL     1       0.668   5.382  -7.619  0.00  0.00    +0.003 C 
ATOM     17  C   UNL     1       2.124   7.376  -7.079  0.00  0.00    +0.004 C 
ATOM     18  C   UNL     1       1.572   3.968  -5.836  0.00  0.00    +0.043 C 
ATOM     19  O   UNL     1       0.763   5.858  -4.651  0.00  0.00    -0.212 OA
ENDROOT
BRANCH   1  21
ATOM     20  C   UNL     1       3.977   5.647  -4.242  0.00  0.00    -0.012 C 
ATOM     21  C   UNL     1       3.112   5.501  -4.816  0.00  0.00    -0.049 C 
ENDBRANCH   1  21
BRANCH  10  22
ATOM     22  O   UNL     1       2.133   4.693 -13.976  0.00  0.00    -0.471 OA
ATOM     23  C   UNL     1       0.770   4.337 -14.115  0.00  0.00    +0.252 C 
ENDBRANCH  10  22
TORSDOF 2
ENDMDL
MODEL 9
REMARK VINA RESULT:      -7.2      2.999      4.641
REMARK  Name = 
REMARK  2 active torsions:
REMARK  status: ('A' for Active; 'I' for Inactive)
REMARK    1  A    between atoms: C_2  and  C_3
REMARK    2  A    between atoms: C_13  and  O_14
REMARK                            x       y       z     vdW  Elec       q    Type
REMARK                         _______ _______ _______ _____ _____    ______ ____
ROOT
ATOM      1  C   UNL     1       4.231   6.454  -2.124  0.00  0.00    +0.180 C 
ATOM      2  C   UNL     1       4.208   6.328  -3.604  0.00  0.00    +0.037 C 
ATOM      3  C   UNL     1       2.779   5.544  -3.588  0.00  0.00    +0.004 C 
ATOM      4  C   UNL     1       2.446   5.939  -5.202  0.00  0.00    +0.004 C 
ATOM      5  C   UNL     1       3.366   4.647  -5.816  0.00  0.00    +0.022 C 
ATOM      6  C   UNL     1       4.774   5.484  -5.753  0.00  0.00    +0.004 C 
ATOM      7  C   UNL     1       3.021   5.062  -7.332  0.00  0.00    -0.026 A 
ATOM      8  C   UNL     1       1.679   4.715  -7.493  0.00  0.00    -0.023 A 
ATOM      9  C   UNL     1       0.952   5.320  -8.494  0.00  0.00    +0.032 A 
ATOM     10  C   UNL     1       1.489   6.412  -9.159  0.00  0.00    +0.138 A 
ATOM     11  C   UNL     1       2.823   6.741  -8.968  0.00  0.00    +0.037 A 
ATOM     12  C   UNL     1       0.983   4.157  -6.288  0.00  0.00    +0.026 C 
ATOM     13  C   UNL     1       3.445   6.246  -7.826  0.00  0.00    -0.001 A 
ATOM     14  C   UNL     1       1.079   5.095  -5.156  0.00  0.00    +0.005 C 
ATOM     15  C   UNL     1       2.039   6.893  -3.048  0.00  0.00    +0.004 C 
ATOM     16  C   UNL     1       3.993   7.650  -4.229  0.00  0.00    +0.003 C 
ATOM     17  C   UNL     1       5.101   5.379  -4.264  0.00  0.00    +0.004 C 
ATOM     18  C   UNL     1       3.011   7.375  -2.002  0.00  0.00    +0.043 C 
ATOM     19  O   UNL     1       5.330   7.077  -1.596  0.00  0.00    -0.212 OA
ENDROOT
BRANCH   1  21
ATOM     20  C   UNL     1       3.766   4.268  -0.970  0.00  0.00    -0.012 C 
ATOM     21  C   UNL     1       3.865   5.208  -1.426  0.00  0.00    -0.049 C 
ENDBRANCH   1  21
BRANCH  10  22
ATOM     22  O   UNL     1       0.603   7.260  -9.831  0.00  0.00    -0.471 OA
ATOM     23  C   UNL     1      -0.005   6.822 -11.032  0.00  0.00    +0.252 C 
ENDBRANCH  10  22
TORSDOF 2
ENDMDL
