MODEL 1
REMARK VINA RESULT:      -8.4      0.000      0.000
REMARK  Name = 
REMARK  2 active torsions:
REMARK  status: ('A' for Active; 'I' for Inactive)
REMARK    1  A    between atoms: N_2  and  C_4
REMARK    2  A    between atoms: C_7  and  C_8
REMARK                            x       y       z     vdW  Elec       q    Type
REMARK                         _______ _______ _______ _____ _____    ______ ____
ROOT
ATOM      1  C   UNL     1       0.457   5.947  -4.783  0.00  0.00    +0.124 C 
ATOM      2  C   UNL     1       1.786   7.016  -4.849  0.00  0.00    +0.065 C 
ATOM      3  C   UNL     1       2.934   5.884  -4.712  0.00  0.00    +0.237 C 
ATOM      4  C   UNL     1       2.833   4.925  -5.776  0.00  0.00    +0.207 C 
ATOM      5  C   UNL     1       3.097   5.318  -7.054  0.00  0.00    +0.057 C 
ATOM      6  C   UNL     1       3.299   6.869  -6.784  0.00  0.00    +0.063 C 
ATOM      7  C   UNL     1       3.359   7.581  -8.338  0.00  0.00    +0.179 C 
ATOM      8  O   UNL     1       1.898   8.003  -8.431  0.00  0.00    -0.218 OA
ATOM      9  C   UNL     1       3.194   6.286  -9.273  0.00  0.00    +0.025 A 
ATOM     10  C   UNL     1       2.087   5.516  -9.233  0.00  0.00    +0.077 A 
ATOM     11  C   UNL     1       1.488   4.905 -10.333  0.00  0.00    +0.199 A 
ATOM     12  C   UNL     1       1.772   5.490 -11.555  0.00  0.00    +0.043 A 
ATOM     13  C   UNL     1       2.931   6.247 -11.687  0.00  0.00    +0.014 A 
ATOM     14  O   UNL     1       0.913   3.673 -10.166  0.00  0.00    -0.286 OA
ATOM     15  C   UNL     1       3.541   6.758 -10.546  0.00  0.00    +0.056 A 
ATOM     16 CL   UNL     1       5.013   7.680 -10.822  0.00  0.00    -0.082 Cl
ATOM     17  C   UNL     1       2.063   4.802  -7.938  0.00  0.00    +0.197 C 
ATOM     18  O   UNL     1       1.875   3.542  -7.874  0.00  0.00    -0.287 OA
ATOM     19  O   UNL     1       2.603   3.562  -5.614  0.00  0.00    -0.289 OA
ATOM     20  O   UNL     1       4.156   6.520  -5.028  0.00  0.00    -0.210 OA
ATOM     21  C   UNL     1       3.033   5.609  -3.323  0.00  0.00    +0.215 C 
ATOM     22  O   UNL     1       3.884   6.287  -2.642  0.00  0.00    -0.288 OA
ATOM     23  C   UNL     1       1.726   5.680  -2.627  0.00  0.00    +0.130 C 
ATOM     24  C   UNL     1       1.711   7.052  -6.465  0.00  0.00    +0.013 C 
ATOM     25  C   UNL     1       0.632   5.499  -3.258  0.00  0.00    +0.195 C 
ATOM     26  O   UNL     1      -0.331   4.614  -2.797  0.00  0.00    -0.290 OA
ENDROOT
BRANCH   1  28
ATOM     27  C   UNL     1      -0.649   7.680  -4.889  0.00  0.00    +0.090 C 
ATOM     28  N   UNL     1      -0.499   7.130  -4.389  0.00  0.00    -0.265 NA
ATOM     29  C   UNL     1      -1.536   6.602  -3.567  0.00  0.00    +0.090 C 
ENDBRANCH   1  28
BRANCH  23  30
ATOM     30  C   UNL     1       1.684   5.680  -1.151  0.00  0.00    +0.290 C 
ATOM     31  O   UNL     1       1.733   4.518  -0.639  0.00  0.00    -0.266 OA
ATOM     32  N   UNL     1       0.628   6.517  -0.657  0.00  0.00    -0.084 NA
ENDBRANCH  23  30
TORSDOF 2
ENDMDL
MODEL 2
REMARK VINA RESULT:      -7.9      3.493      7.671
REMARK  Name = 
REMARK  2 active torsions:
REMARK  status: ('A' for Active; 'I' for Inactive)
REMARK    1  A    between atoms: N_2  and  C_4
REMARK    2  A    between atoms: C_7  and  C_8
REMARK                            x       y       z     vdW  Elec       q    Type
REMARK                         _______ _______ _______ _____ _____    ______ ____
ROOT
ATOM      1  C   UNL     1       4.342   5.844 -10.467  0.00  0.00    +0.124 C 
ATOM      2  C   UNL     1       3.095   7.011 -10.478  0.00  0.00    +0.065 C 
ATOM      3  C   UNL     1       1.879   5.972 -10.720  0.00  0.00    +0.237 C 
ATOM      4  C   UNL     1       1.829   4.994  -9.671  0.00  0.00    +0.207 C 
ATOM      5  C   UNL     1       1.501   5.387  -8.407  0.00  0.00    +0.057 C 
ATOM      6  C   UNL     1       1.437   6.953  -8.661  0.00  0.00    +0.063 C 
ATOM      7  C   UNL     1       1.316   7.645  -7.102  0.00  0.00    +0.179 C 
ATOM      8  O   UNL     1       2.793   7.953  -6.894  0.00  0.00    -0.218 OA
ATOM      9  C   UNL     1       1.314   6.329  -6.182  0.00  0.00    +0.025 A 
ATOM     10  C   UNL     1       2.359   5.477  -6.158  0.00  0.00    +0.077 A 
ATOM     11  C   UNL     1       2.828   4.806  -5.029  0.00  0.00    +0.199 A 
ATOM     12  C   UNL     1       2.499   5.394  -3.819  0.00  0.00    +0.043 A 
ATOM     13  C   UNL     1       1.393   6.235  -3.758  0.00  0.00    +0.014 A 
ATOM     14  O   UNL     1       3.319   3.536  -5.178  0.00  0.00    -0.286 OA
ATOM     15  C   UNL     1       0.909   6.808  -4.930  0.00  0.00    +0.056 A 
ATOM     16 CL   UNL     1      -0.506   7.836  -4.743  0.00  0.00    -0.082 Cl
ATOM     17  C   UNL     1       2.425   4.781  -7.461  0.00  0.00    +0.197 C 
ATOM     18  O   UNL     1       2.522   3.512  -7.537  0.00  0.00    -0.287 OA
ATOM     19  O   UNL     1       1.967   3.619  -9.842  0.00  0.00    -0.289 OA
ATOM     20  O   UNL     1       0.688   6.695 -10.482  0.00  0.00    -0.210 OA
ATOM     21  C   UNL     1       1.863   5.726 -12.117  0.00  0.00    +0.215 C 
ATOM     22  O   UNL     1       1.118   6.476 -12.845  0.00  0.00    -0.288 OA
ATOM     23  C   UNL     1       3.219   5.706 -12.715  0.00  0.00    +0.130 C 
ATOM     24  C   UNL     1       3.054   7.018  -8.860  0.00  0.00    +0.013 C 
ATOM     25  C   UNL     1       4.247   5.433 -12.010  0.00  0.00    +0.195 C 
ATOM     26  O   UNL     1       5.172   4.484 -12.417  0.00  0.00    -0.290 OA
ENDROOT
BRANCH   1  28
ATOM     27  C   UNL     1       5.207   7.687 -10.775  0.00  0.00    +0.090 C 
ATOM     28  N   UNL     1       5.411   6.957 -10.768  0.00  0.00    -0.265 NA
ATOM     29  C   UNL     1       6.641   6.557 -10.170  0.00  0.00    +0.090 C 
ENDBRANCH   1  28
BRANCH  23  30
ATOM     30  C   UNL     1       3.371   5.723 -14.184  0.00  0.00    +0.290 C 
ATOM     31  O   UNL     1       3.105   4.611 -14.737  0.00  0.00    -0.266 OA
ATOM     32  N   UNL     1       4.618   6.314 -14.575  0.00  0.00    -0.084 NA
ENDBRANCH  23  30
TORSDOF 2
ENDMDL
MODEL 3
REMARK VINA RESULT:      -7.9      3.331      7.161
REMARK  Name = 
REMARK  2 active torsions:
REMARK  status: ('A' for Active; 'I' for Inactive)
REMARK    1  A    between atoms: N_2  and  C_4
REMARK    2  A    between atoms: C_7  and  C_8
REMARK                            x       y       z     vdW  Elec       q    Type
REMARK                         _______ _______ _______ _____ _____    ______ ____
ROOT
ATOM      1  C   UNL     1       1.535   5.584 -10.009  0.00  0.00    +0.124 C 
ATOM      2  C   UNL     1       2.773   4.663  -9.277  0.00  0.00    +0.065 C 
ATOM      3  C   UNL     1       3.768   5.904  -8.980  0.00  0.00    +0.237 C 
ATOM      4  C   UNL     1       3.126   6.884  -8.150  0.00  0.00    +0.207 C 
ATOM      5  C   UNL     1       2.818   6.567  -6.860  0.00  0.00    +0.057 C 
ATOM      6  C   UNL     1       3.240   5.037  -6.890  0.00  0.00    +0.063 C 
ATOM      7  C   UNL     1       2.651   4.391  -5.420  0.00  0.00    +0.179 C 
ATOM      8  O   UNL     1       1.342   3.822  -5.951  0.00  0.00    -0.218 OA
ATOM      9  C   UNL     1       1.984   5.693  -4.760  0.00  0.00    +0.025 A 
ATOM     10  C   UNL     1       0.957   6.341  -5.347  0.00  0.00    +0.077 A 
ATOM     11  C   UNL     1      -0.118   6.925  -4.678  0.00  0.00    +0.199 A 
ATOM     12  C   UNL     1      -0.368   6.417  -3.415  0.00  0.00    +0.043 A 
ATOM     13  C   UNL     1       0.665   5.791  -2.724  0.00  0.00    +0.014 A 
ATOM     14  O   UNL     1      -0.650   8.084  -5.179  0.00  0.00    -0.286 OA
ATOM     15  C   UNL     1       1.759   5.306  -3.432  0.00  0.00    +0.056 A 
ATOM     16 CL   UNL     1       3.018   4.554  -2.460  0.00  0.00    -0.082 Cl
ATOM     17  C   UNL     1       1.461   7.003  -6.570  0.00  0.00    +0.197 C 
ATOM     18  O   UNL     1       1.225   8.233  -6.810  0.00  0.00    -0.287 OA
ATOM     19  O   UNL     1       2.888   8.209  -8.503  0.00  0.00    -0.289 OA
ATOM     20  O   UNL     1       4.764   5.411  -8.106  0.00  0.00    -0.210 OA
ATOM     21  C   UNL     1       4.458   6.137 -10.198  0.00  0.00    +0.215 C 
ATOM     22  O   UNL     1       5.574   5.529 -10.375  0.00  0.00    -0.288 OA
ATOM     23  C   UNL     1       3.612   5.906 -11.393  0.00  0.00    +0.130 C 
ATOM     24  C   UNL     1       1.983   4.677  -7.865  0.00  0.00    +0.013 C 
ATOM     25  C   UNL     1       2.341   5.993 -11.329  0.00  0.00    +0.195 C 
ATOM     26  O   UNL     1       1.622   6.755 -12.237  0.00  0.00    -0.290 OA
ENDROOT
BRANCH   1  28
ATOM     27  C   UNL     1       0.552   3.797 -10.283  0.00  0.00    +0.090 C 
ATOM     28  N   UNL     1       0.953   4.294 -10.692  0.00  0.00    -0.265 NA
ATOM     29  C   UNL     1       0.542   4.642 -12.010  0.00  0.00    +0.090 C 
ENDBRANCH   1  28
BRANCH  23  30
ATOM     30  C   UNL     1       4.237   5.849 -12.729  0.00  0.00    +0.290 C 
ATOM     31  O   UNL     1       4.473   4.667 -13.132  0.00  0.00    -0.266 OA
ATOM     32  N   UNL     1       5.343   6.757 -12.830  0.00  0.00    -0.084 NA
ENDBRANCH  23  30
TORSDOF 2
ENDMDL
MODEL 4
REMARK VINA RESULT:      -7.3      4.045      7.888
REMARK  Name = 
REMARK  2 active torsions:
REMARK  status: ('A' for Active; 'I' for Inactive)
REMARK    1  A    between atoms: N_2  and  C_4
REMARK    2  A    between atoms: C_7  and  C_8
REMARK                            x       y       z     vdW  Elec       q    Type
REMARK                         _______ _______ _______ _____ _____    ______ ____
ROOT
ATOM      1  C   UNL     1       1.501   6.799  -3.441  0.00  0.00    +0.124 C 
ATOM      2  C   UNL     1       2.237   5.625  -2.443  0.00  0.00    +0.065 C 
ATOM      3  C   UNL     1       3.757   5.911  -2.919  0.00  0.00    +0.237 C 
ATOM      4  C   UNL     1       4.118   7.278  -2.671  0.00  0.00    +0.207 C 
ATOM      5  C   UNL     1       4.231   7.715  -1.384  0.00  0.00    +0.057 C 
ATOM      6  C   UNL     1       3.731   6.401  -0.649  0.00  0.00    +0.063 C 
ATOM      7  C   UNL     1       3.531   6.863   0.986  0.00  0.00    +0.179 C 
ATOM      8  O   UNL     1       2.036   7.152   0.941  0.00  0.00    -0.218 OA
ATOM      9  C   UNL     1       3.977   8.404   0.925  0.00  0.00    +0.025 A 
ATOM     10  C   UNL     1       3.313   9.306   0.174  0.00  0.00    +0.077 A 
ATOM     11  C   UNL     1       3.078  10.634   0.528  0.00  0.00    +0.199 A 
ATOM     12  C   UNL     1       3.123  10.896   1.887  0.00  0.00    +0.043 A 
ATOM     13  C   UNL     1       3.843  10.040   2.713  0.00  0.00    +0.014 A 
ATOM     14  O   UNL     1       3.088  11.587  -0.457  0.00  0.00    -0.286 OA
ATOM     15  C   UNL     1       4.130   8.752   2.273  0.00  0.00    +0.056 A 
ATOM     16 CL   UNL     1       5.066   7.762   3.385  0.00  0.00    -0.082 Cl
ATOM     17  C   UNL     1       3.555   8.996  -1.251  0.00  0.00    +0.197 C 
ATOM     18  O   UNL     1       3.930   9.894  -2.076  0.00  0.00    -0.287 OA
ATOM     19  O   UNL     1       4.497   8.201  -3.642  0.00  0.00    -0.289 OA
ATOM     20  O   UNL     1       4.592   5.233  -2.003  0.00  0.00    -0.210 OA
ATOM     21  C   UNL     1       3.915   5.194  -4.133  0.00  0.00    +0.215 C 
ATOM     22  O   UNL     1       4.364   3.993  -4.060  0.00  0.00    -0.288 OA
ATOM     23  C   UNL     1       2.683   5.176  -4.958  0.00  0.00    +0.130 C 
ATOM     24  C   UNL     1       2.210   6.642  -1.184  0.00  0.00    +0.013 C 
ATOM     25  C   UNL     1       1.799   6.088  -4.842  0.00  0.00    +0.195 C 
ATOM     26  O   UNL     1       1.299   6.755  -5.951  0.00  0.00    -0.290 OA
ENDROOT
BRANCH   1  28
ATOM     27  C   UNL     1       0.007   5.560  -2.755  0.00  0.00    +0.090 C 
ATOM     28  N   UNL     1       0.113   6.075  -3.301  0.00  0.00    -0.265 NA
ATOM     29  C   UNL     1      -0.908   7.019  -3.608  0.00  0.00    +0.090 C 
ENDBRANCH   1  28
BRANCH  23  30
ATOM     30  C   UNL     1       2.593   4.264  -6.115  0.00  0.00    +0.290 C 
ATOM     31  O   UNL     1       3.042   4.763  -7.194  0.00  0.00    -0.266 OA
ATOM     32  N   UNL     1       1.290   3.673  -6.217  0.00  0.00    -0.084 NA
ENDBRANCH  23  30
TORSDOF 2
ENDMDL
MODEL 5
REMARK VINA RESULT:      -7.2      1.902      3.600
REMARK  Name = 
REMARK  2 active torsions:
REMARK  status: ('A' for Active; 'I' for Inactive)
REMARK    1  A    between atoms: N_2  and  C_4
REMARK    2  A    between atoms: C_7  and  C_8
REMARK                            x       y       z     vdW  Elec       q    Type
REMARK                         _______ _______ _______ _____ _____    ______ ____
ROOT
ATOM      1  C   UNL     1       2.891   5.644  -5.007  0.00  0.00    +0.124 C 
ATOM      2  C   UNL     1       1.619   4.642  -5.551  0.00  0.00    +0.065 C 
ATOM      3  C   UNL     1       0.530   5.823  -5.743  0.00  0.00    +0.237 C 
ATOM      4  C   UNL     1       1.006   6.810  -6.669  0.00  0.00    +0.207 C 
ATOM      5  C   UNL     1       1.161   6.473  -7.982  0.00  0.00    +0.057 C 
ATOM      6  C   UNL     1       0.828   4.925  -7.864  0.00  0.00    +0.063 C 
ATOM      7  C   UNL     1       1.255   4.268  -9.384  0.00  0.00    +0.179 C 
ATOM      8  O   UNL     1       2.650   3.779  -9.017  0.00  0.00    -0.218 OA
ATOM      9  C   UNL     1       1.762   5.583 -10.154  0.00  0.00    +0.025 A 
ATOM     10  C   UNL     1       2.820   6.297  -9.720  0.00  0.00    +0.077 A 
ATOM     11  C   UNL     1       3.767   6.915 -10.536  0.00  0.00    +0.199 A 
ATOM     12  C   UNL     1       3.878   6.384 -11.810  0.00  0.00    +0.043 A 
ATOM     13  C   UNL     1       2.799   5.689 -12.346  0.00  0.00    +0.014 A 
ATOM     14  O   UNL     1       4.298   8.112 -10.133  0.00  0.00    -0.286 OA
ATOM     15  C   UNL     1       1.833   5.170 -11.491  0.00  0.00    +0.056 A 
ATOM     16 CL   UNL     1       0.501   4.329 -12.273  0.00  0.00    -0.082 Cl
ATOM     17  C   UNL     1       2.445   6.967  -8.456  0.00  0.00    +0.197 C 
ATOM     18  O   UNL     1       2.645   8.213  -8.275  0.00  0.00    -0.287 OA
ATOM     19  O   UNL     1       1.218   8.155  -6.379  0.00  0.00    -0.289 OA
ATOM     20  O   UNL     1      -0.543   5.256  -6.468  0.00  0.00    -0.210 OA
ATOM     21  C   UNL     1      -0.008   6.056  -4.450  0.00  0.00    +0.215 C 
ATOM     22  O   UNL     1      -1.058   5.398  -4.115  0.00  0.00    -0.288 OA
ATOM     23  C   UNL     1       0.996   5.900  -3.371  0.00  0.00    +0.130 C 
ATOM     24  C   UNL     1       2.218   4.656  -7.055  0.00  0.00    +0.013 C 
ATOM     25  C   UNL     1       2.242   6.049  -3.603  0.00  0.00    +0.195 C 
ATOM     26  O   UNL     1       3.032   6.871  -2.813  0.00  0.00    -0.290 OA
ENDROOT
BRANCH   1  28
ATOM     27  C   UNL     1       4.057   3.958  -4.814  0.00  0.00    +0.090 C 
ATOM     28  N   UNL     1       3.624   4.403  -4.379  0.00  0.00    -0.265 NA
ATOM     29  C   UNL     1       4.048   4.762  -3.067  0.00  0.00    +0.090 C 
ENDBRANCH   1  28
BRANCH  23  30
ATOM     30  C   UNL     1       0.554   5.850  -1.963  0.00  0.00    +0.290 C 
ATOM     31  O   UNL     1       0.320   4.674  -1.544  0.00  0.00    -0.266 OA
ATOM     32  N   UNL     1      -0.486   6.804  -1.706  0.00  0.00    -0.084 NA
ENDBRANCH  23  30
TORSDOF 2
ENDMDL
MODEL 6
REMARK VINA RESULT:      -6.8      3.295      5.202
REMARK  Name = 
REMARK  2 active torsions:
REMARK  status: ('A' for Active; 'I' for Inactive)
REMARK    1  A    between atoms: N_2  and  C_4
REMARK    2  A    between atoms: C_7  and  C_8
REMARK                            x       y       z     vdW  Elec       q    Type
REMARK                         _______ _______ _______ _____ _____    ______ ____
ROOT
ATOM      1  C   UNL     1       2.808   8.175  -0.823  0.00  0.00    +0.124 C 
ATOM      2  C   UNL     1       4.003   7.339  -1.712  0.00  0.00    +0.065 C 
ATOM      3  C   UNL     1       3.672   5.870  -1.121  0.00  0.00    +0.237 C 
ATOM      4  C   UNL     1       2.309   5.509  -1.387  0.00  0.00    +0.207 C 
ATOM      5  C   UNL     1       1.915   5.294  -2.674  0.00  0.00    +0.057 C 
ATOM      6  C   UNL     1       3.263   5.711  -3.401  0.00  0.00    +0.063 C 
ATOM      7  C   UNL     1       2.863   5.778  -5.063  0.00  0.00    +0.179 C 
ATOM      8  O   UNL     1       2.600   7.276  -5.154  0.00  0.00    -0.218 OA
ATOM      9  C   UNL     1       1.312   5.363  -5.020  0.00  0.00    +0.025 A 
ATOM     10  C   UNL     1       0.397   6.101  -4.362  0.00  0.00    +0.077 A 
ATOM     11  C   UNL     1      -0.914   6.326  -4.782  0.00  0.00    +0.199 A 
ATOM     12  C   UNL     1      -1.128   6.170  -6.141  0.00  0.00    +0.043 A 
ATOM     13  C   UNL     1      -0.257   5.369  -6.872  0.00  0.00    +0.014 A 
ATOM     14  O   UNL     1      -1.900   6.414  -3.836  0.00  0.00    -0.286 OA
ATOM     15  C   UNL     1       1.009   5.101  -6.363  0.00  0.00    +0.056 A 
ATOM     16 CL   UNL     1       2.021   4.059  -7.356  0.00  0.00    -0.082 Cl
ATOM     17  C   UNL     1       0.652   5.976  -2.911  0.00  0.00    +0.197 C 
ATOM     18  O   UNL     1      -0.281   5.687  -2.090  0.00  0.00    -0.287 OA
ATOM     19  O   UNL     1       1.345   5.228  -0.422  0.00  0.00    -0.289 OA
ATOM     20  O   UNL     1       4.367   4.950  -1.937  0.00  0.00    -0.210 OA
ATOM     21  C   UNL     1       4.344   5.804   0.128  0.00  0.00    +0.215 C 
ATOM     22  O   UNL     1       5.538   5.333   0.137  0.00  0.00    -0.288 OA
ATOM     23  C   UNL     1       4.356   7.101   0.846  0.00  0.00    +0.130 C 
ATOM     24  C   UNL     1       3.031   7.275  -3.005  0.00  0.00    +0.013 C 
ATOM     25  C   UNL     1       3.464   7.986   0.624  0.00  0.00    +0.195 C 
ATOM     26  O   UNL     1       2.768   8.588   1.661  0.00  0.00    -0.290 OA
ENDROOT
BRANCH   1  28
ATOM     27  C   UNL     1       3.763   9.743  -1.754  0.00  0.00    +0.090 C 
ATOM     28  N   UNL     1       3.562   9.535  -1.053  0.00  0.00    -0.265 NA
ATOM     29  C   UNL     1       3.031  10.492  -0.141  0.00  0.00    +0.090 C 
ENDBRANCH   1  28
BRANCH  23  30
ATOM     30  C   UNL     1       5.227   7.275   2.025  0.00  0.00    +0.290 C 
ATOM     31  O   UNL     1       4.714   6.851   3.106  0.00  0.00    -0.266 OA
ATOM     32  N   UNL     1       5.763   8.605   2.088  0.00  0.00    -0.084 NA
ENDBRANCH  23  30
TORSDOF 2
ENDMDL
MODEL 7
REMARK VINA RESULT:      -6.3      6.045      9.824
REMARK  Name = 
REMARK  2 active torsions:
REMARK  status: ('A' for Active; 'I' for Inactive)
REMARK    1  A    between atoms: N_2  and  C_4
REMARK    2  A    between atoms: C_7  and  C_8
REMARK                            x       y       z     vdW  Elec       q    Type
REMARK                         _______ _______ _______ _____ _____    ______ ____
ROOT
ATOM      1  C   UNL     1       3.982   7.544  -0.787  0.00  0.00    +0.124 C 
ATOM      2  C   UNL     1       2.787   8.754  -0.641  0.00  0.00    +0.065 C 
ATOM      3  C   UNL     1       2.193   8.251   0.777  0.00  0.00    +0.237 C 
ATOM      4  C   UNL     1       3.217   8.240   1.783  0.00  0.00    +0.207 C 
ATOM      5  C   UNL     1       3.751   9.422   2.203  0.00  0.00    +0.057 C 
ATOM      6  C   UNL     1       3.007  10.387   1.186  0.00  0.00    +0.063 C 
ATOM      7  C   UNL     1       3.776  11.903   1.376  0.00  0.00    +0.179 C 
ATOM      8  O   UNL     1       4.758  11.786   0.218  0.00  0.00    -0.218 OA
ATOM      9  C   UNL     1       4.855  11.557   2.514  0.00  0.00    +0.025 A 
ATOM     10  C   UNL     1       5.826  10.642   2.318  0.00  0.00    +0.077 A 
ATOM     11  C   UNL     1       7.133  10.736   2.795  0.00  0.00    +0.199 A 
ATOM     12  C   UNL     1       7.563  12.021   3.077  0.00  0.00    +0.043 A 
ATOM     13  C   UNL     1       6.616  13.003   3.351  0.00  0.00    +0.014 A 
ATOM     14  O   UNL     1       7.771   9.589   3.189  0.00  0.00    -0.286 OA
ATOM     15  C   UNL     1       5.303  12.817   2.931  0.00  0.00    +0.056 A 
ATOM     16 CL   UNL     1       4.184  14.107   3.350  0.00  0.00    -0.082 Cl
ATOM     17  C   UNL     1       5.200   9.303   2.257  0.00  0.00    +0.197 C 
ATOM     18  O   UNL     1       5.637   8.328   2.953  0.00  0.00    -0.287 OA
ATOM     19  O   UNL     1       3.650   7.117   2.483  0.00  0.00    -0.289 OA
ATOM     20  O   UNL     1       1.355   9.288   1.246  0.00  0.00    -0.210 OA
ATOM     21  C   UNL     1       1.298   7.196   0.461  0.00  0.00    +0.215 C 
ATOM     22  O   UNL     1       0.066   7.499   0.267  0.00  0.00    -0.288 OA
ATOM     23  C   UNL     1       1.756   6.375  -0.685  0.00  0.00    +0.130 C 
ATOM     24  C   UNL     1       3.878   9.798  -0.059  0.00  0.00    +0.013 C 
ATOM     25  C   UNL     1       2.991   6.306  -0.995  0.00  0.00    +0.195 C 
ATOM     26  O   UNL     1       3.619   5.085  -1.194  0.00  0.00    -0.290 OA
ENDROOT
BRANCH   1  28
ATOM     27  C   UNL     1       3.781   8.431  -2.634  0.00  0.00    +0.090 C 
ATOM     28  N   UNL     1       4.080   7.802  -2.334  0.00  0.00    -0.265 NA
ATOM     29  C   UNL     1       5.346   7.324  -2.780  0.00  0.00    +0.090 C 
ENDBRANCH   1  28
BRANCH  23  30
ATOM     30  C   UNL     1       0.829   5.409  -1.308  0.00  0.00    +0.290 C 
ATOM     31  O   UNL     1       1.066   4.201  -0.996  0.00  0.00    -0.266 OA
ATOM     32  N   UNL     1       0.682   5.655  -2.714  0.00  0.00    -0.084 NA
ENDBRANCH  23  30
TORSDOF 2
ENDMDL
MODEL 8
REMARK VINA RESULT:      -6.1      4.551      8.617
REMARK  Name = 
REMARK  2 active torsions:
REMARK  status: ('A' for Active; 'I' for Inactive)
REMARK    1  A    between atoms: N_2  and  C_4
REMARK    2  A    between atoms: C_7  and  C_8
REMARK                            x       y       z     vdW  Elec       q    Type
REMARK                         _______ _______ _______ _____ _____    ______ ____
ROOT
ATOM      1  C   UNL     1       4.444   6.852  -2.987  0.00  0.00    +0.124 C 
ATOM      2  C   UNL     1       2.952   7.645  -2.746  0.00  0.00    +0.065 C 
ATOM      3  C   UNL     1       2.282   6.493  -1.827  0.00  0.00    +0.237 C 
ATOM      4  C   UNL     1       3.074   6.254  -0.655  0.00  0.00    +0.207 C 
ATOM      5  C   UNL     1       3.172   7.229   0.294  0.00  0.00    +0.057 C 
ATOM      6  C   UNL     1       2.379   8.374  -0.467  0.00  0.00    +0.063 C 
ATOM      7  C   UNL     1       2.647   9.785   0.462  0.00  0.00    +0.179 C 
ATOM      8  O   UNL     1       3.811  10.348  -0.343  0.00  0.00    -0.218 OA
ATOM      9  C   UNL     1       3.561   9.201   1.646  0.00  0.00    +0.025 A 
ATOM     10  C   UNL     1       4.768   8.650   1.407  0.00  0.00    +0.077 A 
ATOM     11  C   UNL     1       5.891   8.776   2.224  0.00  0.00    +0.199 A 
ATOM     12  C   UNL     1       5.887   9.881   3.058  0.00  0.00    +0.043 A 
ATOM     13  C   UNL     1       4.670  10.464   3.398  0.00  0.00    +0.014 A 
ATOM     14  O   UNL     1       6.744   7.711   2.335  0.00  0.00    -0.286 OA
ATOM     15  C   UNL     1       3.557  10.231   2.597  0.00  0.00    +0.056 A 
ATOM     16 CL   UNL     1       2.066  10.995   3.130  0.00  0.00    -0.082 Cl
ATOM     17  C   UNL     1       4.563   7.369   0.696  0.00  0.00    +0.197 C 
ATOM     18  O   UNL     1       5.126   6.292   1.083  0.00  0.00    -0.287 OA
ATOM     19  O   UNL     1       3.673   5.043  -0.318  0.00  0.00    -0.289 OA
ATOM     20  O   UNL     1       1.118   7.064  -1.265  0.00  0.00    -0.210 OA
ATOM     21  C   UNL     1       1.789   5.522  -2.736  0.00  0.00    +0.215 C 
ATOM     22  O   UNL     1       0.576   5.644  -3.137  0.00  0.00    -0.288 OA
ATOM     23  C   UNL     1       2.653   5.356  -3.930  0.00  0.00    +0.130 C 
ATOM     24  C   UNL     1       3.586   8.532  -1.551  0.00  0.00    +0.013 C 
ATOM     25  C   UNL     1       3.893   5.654  -3.892  0.00  0.00    +0.195 C 
ATOM     26  O   UNL     1       4.863   4.769  -4.339  0.00  0.00    -0.290 OA
ENDROOT
BRANCH   1  28
ATOM     27  C   UNL     1       5.437   8.018  -4.362  0.00  0.00    +0.090 C 
ATOM     28  N   UNL     1       4.739   7.746  -4.245  0.00  0.00    -0.265 NA
ATOM     29  C   UNL     1       3.970   7.241  -5.333  0.00  0.00    +0.090 C 
ENDBRANCH   1  28
BRANCH  23  30
ATOM     30  C   UNL     1       2.160   4.586  -5.088  0.00  0.00    +0.290 C 
ATOM     31  O   UNL     1       3.042   3.842  -5.620  0.00  0.00    -0.266 OA
ATOM     32  N   UNL     1       1.438   5.422  -6.004  0.00  0.00    -0.084 NA
ENDBRANCH  23  30
TORSDOF 2
ENDMDL
MODEL 9
REMARK VINA RESULT:      -5.7      2.925      6.885
REMARK  Name = 
REMARK  2 active torsions:
REMARK  status: ('A' for Active; 'I' for Inactive)
REMARK    1  A    between atoms: N_2  and  C_4
REMARK    2  A    between atoms: C_7  and  C_8
REMARK                            x       y       z     vdW  Elec       q    Type
REMARK                         _______ _______ _______ _____ _____    ______ ____
ROOT
ATOM      1  C   UNL     1       1.779   4.686  -7.621  0.00  0.00    +0.124 C 
ATOM      2  C   UNL     1       3.148   5.683  -7.410  0.00  0.00    +0.065 C 
ATOM      3  C   UNL     1       2.334   7.069  -7.220  0.00  0.00    +0.237 C 
ATOM      4  C   UNL     1       1.431   6.980  -6.108  0.00  0.00    +0.207 C 
ATOM      5  C   UNL     1       1.936   6.876  -4.846  0.00  0.00    +0.057 C 
ATOM      6  C   UNL     1       3.474   6.757  -5.220  0.00  0.00    +0.063 C 
ATOM      7  C   UNL     1       4.249   6.327  -3.758  0.00  0.00    +0.179 C 
ATOM      8  O   UNL     1       4.297   4.821  -3.981  0.00  0.00    -0.218 OA
ATOM      9  C   UNL     1       2.999   6.284  -2.751  0.00  0.00    +0.025 A 
ATOM     10  C   UNL     1       1.976   5.422  -2.925  0.00  0.00    +0.077 A 
ATOM     11  C   UNL     1       1.286   4.771  -1.903  0.00  0.00    +0.199 A 
ATOM     12  C   UNL     1       1.979   4.652  -0.711  0.00  0.00    +0.043 A 
ATOM     13  C   UNL     1       3.007   5.548  -0.437  0.00  0.00    +0.014 A 
ATOM     14  O   UNL     1      -0.057   4.550  -2.057  0.00  0.00    -0.286 OA
ATOM     15  C   UNL     1       3.602   6.241  -1.487  0.00  0.00    +0.056 A 
ATOM     16 CL   UNL     1       4.874   7.366  -1.028  0.00  0.00    -0.082 Cl
ATOM     17  C   UNL     1       1.219   5.833  -4.127  0.00  0.00    +0.197 C 
ATOM     18  O   UNL     1      -0.049   5.965  -4.105  0.00  0.00    -0.287 OA
ATOM     19  O   UNL     1       0.047   7.116  -6.179  0.00  0.00    -0.289 OA
ATOM     20  O   UNL     1       3.269   8.015  -6.743  0.00  0.00    -0.210 OA
ATOM     21  C   UNL     1       2.029   7.512  -8.533  0.00  0.00    +0.215 C 
ATOM     22  O   UNL     1       2.866   8.301  -9.104  0.00  0.00    -0.288 OA
ATOM     23  C   UNL     1       1.738   6.397  -9.466  0.00  0.00    +0.130 C 
ATOM     24  C   UNL     1       3.239   5.271  -5.848  0.00  0.00    +0.013 C 
ATOM     25  C   UNL     1       1.319   5.271  -9.037  0.00  0.00    +0.195 C 
ATOM     26  O   UNL     1       0.201   4.659  -9.584  0.00  0.00    -0.290 OA
ENDROOT
BRANCH   1  28
ATOM     27  C   UNL     1       2.340   2.966  -8.603  0.00  0.00    +0.090 C 
ATOM     28  N   UNL     1       2.666   3.580  -8.300  0.00  0.00    -0.265 NA
ATOM     29  C   UNL     1       3.743   4.229  -8.968  0.00  0.00    +0.090 C 
ENDBRANCH   1  28
BRANCH  23  30
ATOM     30  C   UNL     1       1.659   6.660 -10.916  0.00  0.00    +0.290 C 
ATOM     31  O   UNL     1       0.495   6.974 -11.316  0.00  0.00    -0.266 OA
ATOM     32  N   UNL     1       2.301   5.623 -11.673  0.00  0.00    -0.084 NA
ENDBRANCH  23  30
TORSDOF 2
ENDMDL
