MODEL 1
REMARK VINA RESULT:      -6.5      0.000      0.000
REMARK  Name = 
REMARK  5 active torsions:
REMARK  status: ('A' for Active; 'I' for Inactive)
REMARK    1  A    between atoms: C_2  and  N_5
REMARK    2  A    between atoms: N_5  and  C_6
REMARK    3  A    between atoms: C_6  and  C_7
REMARK    4  A    between atoms: C_7  and  C_9
REMARK    5  A    between atoms: C_14  and  C_15
REMARK                            x       y       z     vdW  Elec       q    Type
REMARK                         _______ _______ _______ _____ _____    ______ ____
ROOT
ATOM      1  C   UNL     1       5.754   5.761  -9.566  0.00  0.00    +0.009 A 
ATOM      2  C   UNL     1       5.210   5.807 -10.802  0.00  0.00    -0.000 A 
ATOM      3  C   UNL     1       6.049   6.000 -11.902  0.00  0.00    +0.049 A 
ATOM      4  C   UNL     1       7.350   5.501 -11.831  0.00  0.00    +0.194 A 
ATOM      5  O   UNL     1       7.856   4.607 -12.781  0.00  0.00    -0.287 OA
ATOM      6  C   UNL     1       7.912   5.557 -10.560  0.00  0.00    +0.042 A 
ATOM      7  C   UNL     1       7.140   5.811  -9.428  0.00  0.00    +0.001 A 
ENDROOT
BRANCH   1   8
ATOM      8  C   UNL     1       5.041   4.803  -8.457  0.00  0.00    +0.192 C 
ATOM      9  O   UNL     1       4.012   4.184  -9.409  0.00  0.00    -0.217 OA
BRANCH   8  10
ATOM     10  C   UNL     1       4.016   6.005  -7.967  0.00  0.00    +0.126 C 
BRANCH  10  11
ATOM     11  N   UNL     1       2.723   5.443  -7.917  0.00  0.00    -0.218 NA
BRANCH  11  13
ATOM     12  C   UNL     1       1.345   6.656  -9.481  0.00  0.00    +0.017 C 
ATOM     13  C   UNL     1       1.622   6.283  -8.229  0.00  0.00    +0.060 C 
ATOM     14  C   UNL     1       1.865   7.570  -7.447  0.00  0.00    +0.017 C 
ATOM     15  C   UNL     1       0.293   5.741  -7.706  0.00  0.00    +0.017 C 
ENDBRANCH  11  13
ENDBRANCH  10  11
ENDBRANCH   8  10
ENDBRANCH   1   8
BRANCH   3  16
ATOM     16  C   UNL     1       5.393   5.761 -13.228  0.00  0.00    +0.212 C 
ATOM     17  O   UNL     1       4.720   4.539 -13.256  0.00  0.00    -0.215 OA
ENDBRANCH   3  16
TORSDOF 5
ENDMDL
MODEL 2
REMARK VINA RESULT:      -6.4      1.661      2.152
REMARK  Name = 
REMARK  5 active torsions:
REMARK  status: ('A' for Active; 'I' for Inactive)
REMARK    1  A    between atoms: C_2  and  N_5
REMARK    2  A    between atoms: N_5  and  C_6
REMARK    3  A    between atoms: C_6  and  C_7
REMARK    4  A    between atoms: C_7  and  C_9
REMARK    5  A    between atoms: C_14  and  C_15
REMARK                            x       y       z     vdW  Elec       q    Type
REMARK                         _______ _______ _______ _____ _____    ______ ____
ROOT
ATOM      1  C   UNL     1       5.381   5.658  -9.724  0.00  0.00    +0.009 A 
ATOM      2  C   UNL     1       5.005   5.681 -11.021  0.00  0.00    -0.000 A 
ATOM      3  C   UNL     1       5.975   5.906 -12.001  0.00  0.00    +0.049 A 
ATOM      4  C   UNL     1       7.273   5.460 -11.755  0.00  0.00    +0.194 A 
ATOM      5  O   UNL     1       7.935   4.586 -12.623  0.00  0.00    -0.287 OA
ATOM      6  C   UNL     1       7.659   5.541 -10.422  0.00  0.00    +0.042 A 
ATOM      7  C   UNL     1       6.734   5.764  -9.403  0.00  0.00    +0.001 A 
ENDROOT
BRANCH   1   8
ATOM      8  C   UNL     1       4.566   4.674  -8.712  0.00  0.00    +0.192 C 
ATOM      9  O   UNL     1       3.263   4.651  -9.518  0.00  0.00    -0.217 OA
BRANCH   8  10
ATOM     10  C   UNL     1       4.075   5.934  -7.761  0.00  0.00    +0.126 C 
BRANCH  10  11
ATOM     11  N   UNL     1       4.625   5.716  -6.480  0.00  0.00    -0.218 NA
BRANCH  11  13
ATOM     12  C   UNL     1       2.703   6.776  -5.479  0.00  0.00    +0.017 C 
ATOM     13  C   UNL     1       3.898   6.192  -5.356  0.00  0.00    +0.060 C 
ATOM     14  C   UNL     1       4.807   7.224  -4.697  0.00  0.00    +0.017 C 
ATOM     15  C   UNL     1       3.673   5.118  -4.294  0.00  0.00    +0.017 C 
ENDBRANCH  11  13
ENDBRANCH  10  11
ENDBRANCH   8  10
ENDBRANCH   1   8
BRANCH   3  16
ATOM     16  C   UNL     1       5.510   5.639 -13.401  0.00  0.00    +0.212 C 
ATOM     17  O   UNL     1       4.696   4.507 -13.466  0.00  0.00    -0.215 OA
ENDBRANCH   3  16
TORSDOF 5
ENDMDL
MODEL 3
REMARK VINA RESULT:      -6.3      4.297      8.613
REMARK  Name = 
REMARK  5 active torsions:
REMARK  status: ('A' for Active; 'I' for Inactive)
REMARK    1  A    between atoms: C_2  and  N_5
REMARK    2  A    between atoms: N_5  and  C_6
REMARK    3  A    between atoms: C_6  and  C_7
REMARK    4  A    between atoms: C_7  and  C_9
REMARK    5  A    between atoms: C_14  and  C_15
REMARK                            x       y       z     vdW  Elec       q    Type
REMARK                         _______ _______ _______ _____ _____    ______ ____
ROOT
ATOM      1  C   UNL     1      -0.407   5.909  -5.642  0.00  0.00    +0.009 A 
ATOM      2  C   UNL     1      -0.010   5.908  -4.350  0.00  0.00    -0.000 A 
ATOM      3  C   UNL     1      -0.972   6.051  -3.348  0.00  0.00    +0.049 A 
ATOM      4  C   UNL     1      -2.251   5.549  -3.589  0.00  0.00    +0.194 A 
ATOM      5  O   UNL     1      -2.853   4.614  -2.739  0.00  0.00    -0.287 OA
ATOM      6  C   UNL     1      -2.664   5.654  -4.912  0.00  0.00    +0.042 A 
ATOM      7  C   UNL     1      -1.769   5.957  -5.937  0.00  0.00    +0.001 A 
ENDROOT
BRANCH   1   8
ATOM      8  C   UNL     1       0.438   5.001  -6.699  0.00  0.00    +0.192 C 
ATOM      9  O   UNL     1       1.073   4.078  -5.654  0.00  0.00    -0.217 OA
BRANCH   8  10
ATOM     10  C   UNL     1       1.714   6.051  -6.697  0.00  0.00    +0.126 C 
BRANCH  10  11
ATOM     11  N   UNL     1       2.887   5.268  -6.738  0.00  0.00    -0.218 NA
BRANCH  11  13
ATOM     12  C   UNL     1       5.014   5.348  -7.873  0.00  0.00    +0.017 C 
ATOM     13  C   UNL     1       3.679   5.322  -7.916  0.00  0.00    +0.060 C 
ATOM     14  C   UNL     1       3.253   6.602  -8.627  0.00  0.00    +0.017 C 
ATOM     15  C   UNL     1       3.366   4.194  -8.896  0.00  0.00    +0.017 C 
ENDBRANCH  11  13
ENDBRANCH  10  11
ENDBRANCH   8  10
ENDBRANCH   1   8
BRANCH   3  16
ATOM     16  C   UNL     1      -0.470   5.762  -1.965  0.00  0.00    +0.212 C 
ATOM     17  O   UNL     1       0.271   4.580  -1.924  0.00  0.00    -0.215 OA
ENDBRANCH   3  16
TORSDOF 5
ENDMDL
MODEL 4
REMARK VINA RESULT:      -6.3      1.980      2.474
REMARK  Name = 
REMARK  5 active torsions:
REMARK  status: ('A' for Active; 'I' for Inactive)
REMARK    1  A    between atoms: C_2  and  N_5
REMARK    2  A    between atoms: N_5  and  C_6
REMARK    3  A    between atoms: C_6  and  C_7
REMARK    4  A    between atoms: C_7  and  C_9
REMARK    5  A    between atoms: C_14  and  C_15
REMARK                            x       y       z     vdW  Elec       q    Type
REMARK                         _______ _______ _______ _____ _____    ______ ____
ROOT
ATOM      1  C   UNL     1       5.561   6.745 -10.436  0.00  0.00    +0.009 A 
ATOM      2  C   UNL     1       5.390   6.901 -11.767  0.00  0.00    -0.000 A 
ATOM      3  C   UNL     1       6.474   6.672 -12.619  0.00  0.00    +0.049 A 
ATOM      4  C   UNL     1       7.419   5.721 -12.237  0.00  0.00    +0.194 A 
ATOM      5  O   UNL     1       7.746   4.630 -13.050  0.00  0.00    -0.287 OA
ATOM      6  C   UNL     1       7.639   5.656 -10.866  0.00  0.00    +0.042 A 
ATOM      7  C   UNL     1       6.781   6.271  -9.956  0.00  0.00    +0.001 A 
ENDROOT
BRANCH   1   8
ATOM      8  C   UNL     1       4.290   6.222  -9.561  0.00  0.00    +0.192 C 
ATOM      9  O   UNL     1       4.493   4.731  -9.849  0.00  0.00    -0.217 OA
BRANCH   8  10
ATOM     10  C   UNL     1       3.241   6.428 -10.823  0.00  0.00    +0.126 C 
BRANCH  10  11
ATOM     11  N   UNL     1       1.938   6.338 -10.288  0.00  0.00    -0.218 NA
BRANCH  11  13
ATOM     12  C   UNL     1       0.176   4.867 -11.031  0.00  0.00    +0.017 C 
ATOM     13  C   UNL     1       0.881   5.993 -11.172  0.00  0.00    +0.060 C 
ATOM     14  C   UNL     1       1.521   5.921 -12.555  0.00  0.00    +0.017 C 
ATOM     15  C   UNL     1      -0.184   7.082 -11.279  0.00  0.00    +0.017 C 
ENDBRANCH  11  13
ENDBRANCH  10  11
ENDBRANCH   8  10
ENDBRANCH   1   8
BRANCH   3  16
ATOM     16  C   UNL     1       6.112   6.601 -14.072  0.00  0.00    +0.212 C 
ATOM     17  O   UNL     1       6.342   7.816 -14.719  0.00  0.00    -0.215 OA
ENDBRANCH   3  16
TORSDOF 5
ENDMDL
MODEL 5
REMARK VINA RESULT:      -6.2      3.914      5.378
REMARK  Name = 
REMARK  5 active torsions:
REMARK  status: ('A' for Active; 'I' for Inactive)
REMARK    1  A    between atoms: C_2  and  N_5
REMARK    2  A    between atoms: N_5  and  C_6
REMARK    3  A    between atoms: C_6  and  C_7
REMARK    4  A    between atoms: C_7  and  C_9
REMARK    5  A    between atoms: C_14  and  C_15
REMARK                            x       y       z     vdW  Elec       q    Type
REMARK                         _______ _______ _______ _____ _____    ______ ____
ROOT
ATOM      1  C   UNL     1       1.129   6.323  -6.972  0.00  0.00    +0.009 A 
ATOM      2  C   UNL     1       0.633   5.520  -7.939  0.00  0.00    -0.000 A 
ATOM      3  C   UNL     1       0.866   5.849  -9.276  0.00  0.00    +0.049 A 
ATOM      4  C   UNL     1       2.049   6.516  -9.591  0.00  0.00    +0.194 A 
ATOM      5  O   UNL     1       2.960   6.012 -10.526  0.00  0.00    -0.287 OA
ATOM      6  C   UNL     1       2.479   7.406  -8.613  0.00  0.00    +0.042 A 
ATOM      7  C   UNL     1       1.936   7.402  -7.329  0.00  0.00    +0.001 A 
ENDROOT
BRANCH   1   8
ATOM      8  C   UNL     1       1.579   5.633  -5.566  0.00  0.00    +0.192 C 
ATOM      9  O   UNL     1       0.749   4.355  -5.735  0.00  0.00    -0.217 OA
BRANCH   8  10
ATOM     10  C   UNL     1       0.393   6.412  -4.717  0.00  0.00    +0.126 C 
BRANCH  10  11
ATOM     11  N   UNL     1      -0.701   5.525  -4.635  0.00  0.00    -0.218 NA
BRANCH  11  13
ATOM     12  C   UNL     1      -2.253   7.357  -4.865  0.00  0.00    +0.017 C 
ATOM     13  C   UNL     1      -1.998   6.047  -4.886  0.00  0.00    +0.060 C 
ATOM     14  C   UNL     1      -2.894   5.423  -3.821  0.00  0.00    +0.017 C 
ATOM     15  C   UNL     1      -2.578   5.582  -6.220  0.00  0.00    +0.017 C 
ENDBRANCH  11  13
ENDBRANCH  10  11
ENDBRANCH   8  10
ENDBRANCH   1   8
BRANCH   3  16
ATOM     16  C   UNL     1       0.519   4.763 -10.249  0.00  0.00    +0.212 C 
ATOM     17  O   UNL     1      -0.266   5.243 -11.298  0.00  0.00    -0.215 OA
ENDBRANCH   3  16
TORSDOF 5
ENDMDL
MODEL 6
REMARK VINA RESULT:      -6.2      4.446      8.632
REMARK  Name = 
REMARK  5 active torsions:
REMARK  status: ('A' for Active; 'I' for Inactive)
REMARK    1  A    between atoms: C_2  and  N_5
REMARK    2  A    between atoms: N_5  and  C_6
REMARK    3  A    between atoms: C_6  and  C_7
REMARK    4  A    between atoms: C_7  and  C_9
REMARK    5  A    between atoms: C_14  and  C_15
REMARK                            x       y       z     vdW  Elec       q    Type
REMARK                         _______ _______ _______ _____ _____    ______ ____
ROOT
ATOM      1  C   UNL     1      -0.250   5.842  -5.512  0.00  0.00    +0.009 A 
ATOM      2  C   UNL     1       0.066   5.826  -4.198  0.00  0.00    -0.000 A 
ATOM      3  C   UNL     1      -0.951   6.000  -3.256  0.00  0.00    +0.049 A 
ATOM      4  C   UNL     1      -2.228   5.542  -3.578  0.00  0.00    +0.194 A 
ATOM      5  O   UNL     1      -2.913   4.627  -2.771  0.00  0.00    -0.287 OA
ATOM      6  C   UNL     1      -2.554   5.662  -4.924  0.00  0.00    +0.042 A 
ATOM      7  C   UNL     1      -1.589   5.937  -5.890  0.00  0.00    +0.001 A 
ENDROOT
BRANCH   1   8
ATOM      8  C   UNL     1       0.628   4.907  -6.518  0.00  0.00    +0.192 C 
ATOM      9  O   UNL     1       1.785   5.897  -6.696  0.00  0.00    -0.217 OA
BRANCH   8  10
ATOM     10  C   UNL     1      -0.180   5.454  -7.853  0.00  0.00    +0.126 C 
BRANCH  10  11
ATOM     11  N   UNL     1       0.788   6.012  -8.715  0.00  0.00    -0.218 NA
BRANCH  11  13
ATOM     12  C   UNL     1       0.099   4.614 -10.555  0.00  0.00    +0.017 C 
ATOM     13  C   UNL     1       0.686   5.724 -10.101  0.00  0.00    +0.060 C 
ATOM     14  C   UNL     1       2.123   5.681 -10.609  0.00  0.00    +0.017 C 
ATOM     15  C   UNL     1       0.014   6.843 -10.894  0.00  0.00    +0.017 C 
ENDBRANCH  11  13
ENDBRANCH  10  11
ENDBRANCH   8  10
ENDBRANCH   1   8
BRANCH   3  16
ATOM     16  C   UNL     1      -0.545   5.693  -1.847  0.00  0.00    +0.212 C 
ATOM     17  O   UNL     1       0.252   4.549  -1.779  0.00  0.00    -0.215 OA
ENDBRANCH   3  16
TORSDOF 5
ENDMDL
MODEL 7
REMARK VINA RESULT:      -6.2      6.101      9.157
REMARK  Name = 
REMARK  5 active torsions:
REMARK  status: ('A' for Active; 'I' for Inactive)
REMARK    1  A    between atoms: C_2  and  N_5
REMARK    2  A    between atoms: N_5  and  C_6
REMARK    3  A    between atoms: C_6  and  C_7
REMARK    4  A    between atoms: C_7  and  C_9
REMARK    5  A    between atoms: C_14  and  C_15
REMARK                            x       y       z     vdW  Elec       q    Type
REMARK                         _______ _______ _______ _____ _____    ______ ____
ROOT
ATOM      1  C   UNL     1      -0.187   6.695  -4.906  0.00  0.00    +0.009 A 
ATOM      2  C   UNL     1       0.010   6.442  -3.594  0.00  0.00    -0.000 A 
ATOM      3  C   UNL     1      -1.102   6.272  -2.765  0.00  0.00    +0.049 A 
ATOM      4  C   UNL     1      -2.258   5.726  -3.321  0.00  0.00    +0.194 A 
ATOM      5  O   UNL     1      -2.860   4.576  -2.799  0.00  0.00    -0.287 OA
ATOM      6  C   UNL     1      -2.478   6.086  -4.645  0.00  0.00    +0.042 A 
ATOM      7  C   UNL     1      -1.485   6.688  -5.416  0.00  0.00    +0.001 A 
ENDROOT
BRANCH   1   8
ATOM      8  C   UNL     1       0.912   6.124  -5.965  0.00  0.00    +0.192 C 
ATOM      9  O   UNL     1       0.451   4.664  -5.911  0.00  0.00    -0.217 OA
BRANCH   8  10
ATOM     10  C   UNL     1       2.052   5.915  -4.786  0.00  0.00    +0.126 C 
BRANCH  10  11
ATOM     11  N   UNL     1       3.153   6.726  -5.134  0.00  0.00    -0.218 NA
BRANCH  11  13
ATOM     12  C   UNL     1       5.143   7.831  -4.337  0.00  0.00    +0.017 C 
ATOM     13  C   UNL     1       4.119   6.999  -4.129  0.00  0.00    +0.060 C 
ATOM     14  C   UNL     1       4.734   5.647  -3.785  0.00  0.00    +0.017 C 
ATOM     15  C   UNL     1       3.498   7.500  -2.827  0.00  0.00    +0.017 C 
ENDBRANCH  11  13
ENDBRANCH  10  11
ENDBRANCH   8  10
ENDBRANCH   1   8
BRANCH   3  16
ATOM     16  C   UNL     1      -0.780   5.728  -1.406  0.00  0.00    +0.212 C 
ATOM     17  O   UNL     1       0.153   4.693  -1.474  0.00  0.00    -0.215 OA
ENDBRANCH   3  16
TORSDOF 5
ENDMDL
MODEL 8
REMARK VINA RESULT:      -6.1      2.574      6.219
REMARK  Name = 
REMARK  5 active torsions:
REMARK  status: ('A' for Active; 'I' for Inactive)
REMARK    1  A    between atoms: C_2  and  N_5
REMARK    2  A    between atoms: N_5  and  C_6
REMARK    3  A    between atoms: C_6  and  C_7
REMARK    4  A    between atoms: C_7  and  C_9
REMARK    5  A    between atoms: C_14  and  C_15
REMARK                            x       y       z     vdW  Elec       q    Type
REMARK                         _______ _______ _______ _____ _____    ______ ____
ROOT
ATOM      1  C   UNL     1       3.606   6.381  -8.406  0.00  0.00    +0.009 A 
ATOM      2  C   UNL     1       4.234   5.820  -7.350  0.00  0.00    -0.000 A 
ATOM      3  C   UNL     1       3.888   6.230  -6.061  0.00  0.00    +0.049 A 
ATOM      4  C   UNL     1       2.575   6.644  -5.835  0.00  0.00    +0.194 A 
ATOM      5  O   UNL     1       1.768   6.052  -4.857  0.00  0.00    -0.287 OA
ATOM      6  C   UNL     1       1.993   7.304  -6.911  0.00  0.00    +0.042 A 
ATOM      7  C   UNL     1       2.567   7.283  -8.180  0.00  0.00    +0.001 A 
ENDROOT
BRANCH   1   8
ATOM      8  C   UNL     1       3.369   5.461  -9.730  0.00  0.00    +0.192 C 
ATOM      9  O   UNL     1       3.034   4.169  -8.975  0.00  0.00    -0.217 OA
BRANCH   8  10
ATOM     10  C   UNL     1       4.976   5.092  -9.853  0.00  0.00    +0.126 C 
BRANCH  10  11
ATOM     11  N   UNL     1       5.455   5.737 -11.012  0.00  0.00    -0.218 NA
BRANCH  11  13
ATOM     12  C   UNL     1       7.723   5.879 -11.822  0.00  0.00    +0.017 C 
ATOM     13  C   UNL     1       6.769   6.276 -10.976  0.00  0.00    +0.060 C 
ATOM     14  C   UNL     1       7.290   5.971  -9.576  0.00  0.00    +0.017 C 
ATOM     15  C   UNL     1       6.789   7.799 -11.089  0.00  0.00    +0.017 C 
ENDBRANCH  11  13
ENDBRANCH  10  11
ENDBRANCH   8  10
ENDBRANCH   1   8
BRANCH   3  16
ATOM     16  C   UNL     1       4.434   5.361  -4.969  0.00  0.00    +0.212 C 
ATOM     17  O   UNL     1       5.088   6.113  -3.992  0.00  0.00    -0.215 OA
ENDBRANCH   3  16
TORSDOF 5
ENDMDL
MODEL 9
REMARK VINA RESULT:      -6.0      4.158      7.660
REMARK  Name = 
REMARK  5 active torsions:
REMARK  status: ('A' for Active; 'I' for Inactive)
REMARK    1  A    between atoms: C_2  and  N_5
REMARK    2  A    between atoms: N_5  and  C_6
REMARK    3  A    between atoms: C_6  and  C_7
REMARK    4  A    between atoms: C_7  and  C_9
REMARK    5  A    between atoms: C_14  and  C_15
REMARK                            x       y       z     vdW  Elec       q    Type
REMARK                         _______ _______ _______ _____ _____    ______ ____
ROOT
ATOM      1  C   UNL     1       1.145   6.054  -6.045  0.00  0.00    +0.009 A 
ATOM      2  C   UNL     1       0.435   6.746  -5.128  0.00  0.00    -0.000 A 
ATOM      3  C   UNL     1      -0.935   6.928  -5.330  0.00  0.00    +0.049 A 
ATOM      4  C   UNL     1      -1.635   5.934  -6.013  0.00  0.00    +0.194 A 
ATOM      5  O   UNL     1      -2.748   5.294  -5.457  0.00  0.00    -0.287 OA
ATOM      6  C   UNL     1      -0.902   5.308  -7.015  0.00  0.00    +0.042 A 
ATOM      7  C   UNL     1       0.479   5.460  -7.117  0.00  0.00    +0.001 A 
ENDROOT
BRANCH   1   8
ATOM      8  C   UNL     1       2.413   5.173  -5.522  0.00  0.00    +0.192 C 
ATOM      9  O   UNL     1       2.527   5.846  -4.150  0.00  0.00    -0.217 OA
BRANCH   8  10
ATOM     10  C   UNL     1       3.508   6.193  -6.226  0.00  0.00    +0.126 C 
BRANCH  10  11
ATOM     11  N   UNL     1       4.356   5.394  -7.021  0.00  0.00    -0.218 NA
BRANCH  11  13
ATOM     12  C   UNL     1       3.591   6.525  -9.009  0.00  0.00    +0.017 C 
ATOM     13  C   UNL     1       4.259   5.523  -8.432  0.00  0.00    +0.060 C 
ATOM     14  C   UNL     1       3.588   4.238  -8.907  0.00  0.00    +0.017 C 
ATOM     15  C   UNL     1       5.620   5.544  -9.123  0.00  0.00    +0.017 C 
ENDBRANCH  11  13
ENDBRANCH  10  11
ENDBRANCH   8  10
ENDBRANCH   1   8
BRANCH   3  16
ATOM     16  C   UNL     1      -1.669   7.460  -4.137  0.00  0.00    +0.212 C 
ATOM     17  O   UNL     1      -1.984   8.811  -4.286  0.00  0.00    -0.215 OA
ENDBRANCH   3  16
TORSDOF 5
ENDMDL
