MODEL 1
REMARK VINA RESULT:      -7.6      0.000      0.000
REMARK  Name = 
REMARK  6 active torsions:
REMARK  status: ('A' for Active; 'I' for Inactive)
REMARK    1  A    between atoms: C_5  and  C_6
REMARK    2  A    between atoms: C_6  and  O_7
REMARK    3  A    between atoms: O_7  and  C_8
REMARK    4  A    between atoms: C_8  and  C_9
REMARK    5  A    between atoms: C_8  and  C_15
REMARK    6  A    between atoms: C_9  and  N_10
REMARK                            x       y       z     vdW  Elec       q    Type
REMARK                         _______ _______ _______ _____ _____    ______ ____
ROOT
ATOM      1  C   UNL     1       3.005   5.383  -7.271  0.00  0.00    +0.161 C 
ENDROOT
BRANCH   1   2
ATOM      2  C   UNL     1       1.723   5.346  -8.273  0.00  0.00    +0.017 A 
ATOM      3  C   UNL     1       1.713   6.619  -8.844  0.00  0.00    +0.057 A 
ATOM      4 CL   UNL     1       2.026   8.053  -7.870  0.00  0.00    -0.082 Cl
ATOM      5  C   UNL     1       1.238   6.845 -10.122  0.00  0.00    +0.023 A 
ATOM      6  C   UNL     1       0.924   5.739 -10.872  0.00  0.00    +0.058 A 
ATOM      7 CL   UNL     1       0.777   5.825 -12.627  0.00  0.00    -0.082 Cl
ATOM      8  C   UNL     1       0.959   4.479 -10.306  0.00  0.00    +0.011 A 
ATOM      9  C   UNL     1       1.766   4.316  -9.203  0.00  0.00    -0.000 A 
ENDBRANCH   1   2
BRANCH   1  10
ATOM     10  O   UNL     1       3.877   4.541  -8.193  0.00  0.00    -0.345 OA
BRANCH  10  11
ATOM     11  C   UNL     1       5.123   5.104  -8.113  0.00  0.00    +0.169 C 
BRANCH  11  16
ATOM     12 CL   UNL     1       6.550   8.699 -11.488  0.00  0.00    -0.082 Cl
ATOM     13  C   UNL     1       6.366   7.557 -11.134  0.00  0.00    +0.058 A 
ATOM     14  C   UNL     1       5.268   6.733 -11.371  0.00  0.00    +0.011 A 
ATOM     15  C   UNL     1       4.918   5.709 -10.493  0.00  0.00    -0.001 A 
ATOM     16  C   UNL     1       5.754   5.370  -9.434  0.00  0.00    +0.007 A 
ATOM     17  C   UNL     1       7.055   5.803  -9.602  0.00  0.00    -0.001 A 
ATOM     18  C   UNL     1       7.356   6.890 -10.416  0.00  0.00    +0.011 A 
ENDBRANCH  11  16
ENDBRANCH  10  11
ENDBRANCH   1  10
BRANCH   1  19
ATOM     19  C   UNL     1       2.415   4.134  -6.383  0.00  0.00    +0.142 C 
BRANCH  19  20
ATOM     20  N   UNL     1       1.787   4.584  -5.219  0.00  0.00    -0.305 N 
ATOM     21  C   UNL     1       2.576   5.361  -4.431  0.00  0.00    +0.179 A 
ATOM     22  N   UNL     1       1.875   5.729  -3.367  0.00  0.00    -0.222 NA
ATOM     23  C   UNL     1       0.582   5.511  -3.609  0.00  0.00    +0.119 A 
ATOM     24  C   UNL     1       0.544   5.025  -4.893  0.00  0.00    +0.098 A 
ENDBRANCH  19  20
ENDBRANCH   1  19
TORSDOF 6
ENDMDL
MODEL 2
REMARK VINA RESULT:      -7.5      3.689      8.091
REMARK  Name = 
REMARK  6 active torsions:
REMARK  status: ('A' for Active; 'I' for Inactive)
REMARK    1  A    between atoms: C_5  and  C_6
REMARK    2  A    between atoms: C_6  and  O_7
REMARK    3  A    between atoms: O_7  and  C_8
REMARK    4  A    between atoms: C_8  and  C_9
REMARK    5  A    between atoms: C_8  and  C_15
REMARK    6  A    between atoms: C_9  and  N_10
REMARK                            x       y       z     vdW  Elec       q    Type
REMARK                         _______ _______ _______ _____ _____    ______ ____
ROOT
ATOM      1  C   UNL     1       1.376   5.716  -5.408  0.00  0.00    +0.161 C 
ENDROOT
BRANCH   1   2
ATOM      2  C   UNL     1       1.688   5.355  -3.852  0.00  0.00    +0.017 A 
ATOM      3  C   UNL     1       2.352   6.487  -3.377  0.00  0.00    +0.057 A 
ATOM      4 CL   UNL     1       3.573   7.299  -4.352  0.00  0.00    -0.082 Cl
ATOM      5  C   UNL     1       2.264   6.888  -2.057  0.00  0.00    +0.023 A 
ATOM      6  C   UNL     1       1.364   6.221  -1.264  0.00  0.00    +0.058 A 
ATOM      7 CL   UNL     1       0.791   6.902   0.258  0.00  0.00    -0.082 Cl
ATOM      8  C   UNL     1       0.694   5.114  -1.749  0.00  0.00    +0.011 A 
ATOM      9  C   UNL     1       0.560   5.018  -3.115  0.00  0.00    -0.000 A 
ENDBRANCH   1   2
BRANCH   1  10
ATOM     10  O   UNL     1       0.011   5.040  -5.396  0.00  0.00    -0.345 OA
BRANCH  10  11
ATOM     11  C   UNL     1      -0.806   5.883  -6.102  0.00  0.00    +0.169 C 
BRANCH  11  16
ATOM     12 CL   UNL     1      -2.395   7.026  -1.356  0.00  0.00    -0.082 Cl
ATOM     13  C   UNL     1      -2.531   6.953  -2.556  0.00  0.00    +0.058 A 
ATOM     14  C   UNL     1      -3.148   5.956  -3.309  0.00  0.00    +0.011 A 
ATOM     15  C   UNL     1      -2.768   5.690  -4.622  0.00  0.00    -0.001 A 
ATOM     16  C   UNL     1      -1.870   6.523  -5.281  0.00  0.00    +0.007 A 
ATOM     17  C   UNL     1      -1.763   7.776  -4.708  0.00  0.00    -0.001 A 
ATOM     18  C   UNL     1      -2.063   7.985  -3.367  0.00  0.00    +0.011 A 
ENDBRANCH  11  16
ENDBRANCH  10  11
ENDBRANCH   1  10
BRANCH   1  19
ATOM     19  C   UNL     1       2.223   4.412  -5.935  0.00  0.00    +0.142 C 
BRANCH  19  20
ATOM     20  N   UNL     1       2.730   4.615  -7.222  0.00  0.00    -0.305 N 
ATOM     21  C   UNL     1       3.928   5.257  -7.247  0.00  0.00    +0.179 A 
ATOM     22  N   UNL     1       4.308   5.386  -8.512  0.00  0.00    -0.222 NA
ATOM     23  C   UNL     1       3.584   4.558  -9.264  0.00  0.00    +0.119 A 
ATOM     24  C   UNL     1       2.772   3.897  -8.375  0.00  0.00    +0.098 A 
ENDBRANCH  19  20
ENDBRANCH   1  19
TORSDOF 6
ENDMDL
MODEL 3
REMARK VINA RESULT:      -7.5      3.167      6.971
REMARK  Name = 
REMARK  6 active torsions:
REMARK  status: ('A' for Active; 'I' for Inactive)
REMARK    1  A    between atoms: C_5  and  C_6
REMARK    2  A    between atoms: C_6  and  O_7
REMARK    3  A    between atoms: O_7  and  C_8
REMARK    4  A    between atoms: C_8  and  C_9
REMARK    5  A    between atoms: C_8  and  C_15
REMARK    6  A    between atoms: C_9  and  N_10
REMARK                            x       y       z     vdW  Elec       q    Type
REMARK                         _______ _______ _______ _____ _____    ______ ____
ROOT
ATOM      1  C   UNL     1       1.159   5.784  -5.403  0.00  0.00    +0.161 C 
ENDROOT
BRANCH   1   2
ATOM      2  C   UNL     1       2.369   6.448  -6.265  0.00  0.00    +0.017 A 
ATOM      3  C   UNL     1       3.354   5.459  -6.269  0.00  0.00    +0.057 A 
ATOM      4 CL   UNL     1       3.716   4.533  -4.816  0.00  0.00    -0.082 Cl
ATOM      5  C   UNL     1       4.241   5.312  -7.319  0.00  0.00    +0.023 A 
ATOM      6  C   UNL     1       4.013   6.077  -8.436  0.00  0.00    +0.058 A 
ATOM      7 CL   UNL     1       4.730   5.672  -9.995  0.00  0.00    -0.082 Cl
ATOM      8  C   UNL     1       3.020   7.039  -8.432  0.00  0.00    +0.011 A 
ATOM      9  C   UNL     1       1.992   6.867  -7.534  0.00  0.00    -0.000 A 
ENDBRANCH   1   2
BRANCH   1  10
ATOM     10  O   UNL     1       0.071   6.526  -6.168  0.00  0.00    -0.345 OA
BRANCH  10  11
ATOM     11  C   UNL     1      -1.042   5.737  -6.052  0.00  0.00    +0.169 C 
BRANCH  11  16
ATOM     12 CL   UNL     1      -2.352   7.001  -1.252  0.00  0.00    -0.082 Cl
ATOM     13  C   UNL     1      -2.577   6.838  -2.429  0.00  0.00    +0.058 A 
ATOM     14  C   UNL     1      -3.138   5.734  -3.068  0.00  0.00    +0.011 A 
ATOM     15  C   UNL     1      -2.840   5.427  -4.394  0.00  0.00    -0.001 A 
ATOM     16  C   UNL     1      -2.100   6.310  -5.175  0.00  0.00    +0.007 A 
ATOM     17  C   UNL     1      -2.089   7.600  -4.683  0.00  0.00    -0.001 A 
ATOM     18  C   UNL     1      -2.299   7.861  -3.333  0.00  0.00    +0.011 A 
ENDBRANCH  11  16
ENDBRANCH  10  11
ENDBRANCH   1  10
BRANCH   1  19
ATOM     19  C   UNL     1       1.332   6.893  -4.205  0.00  0.00    +0.142 C 
BRANCH  19  20
ATOM     20  N   UNL     1       1.105   6.330  -2.946  0.00  0.00    -0.305 N 
ATOM     21  C   UNL     1       0.566   5.082  -2.990  0.00  0.00    +0.179 A 
ATOM     22  N   UNL     1       0.403   4.652  -1.745  0.00  0.00    -0.222 NA
ATOM     23  C   UNL     1       1.126   5.418  -0.929  0.00  0.00    +0.119 A 
ATOM     24  C   UNL     1       1.761   6.310  -1.757  0.00  0.00    +0.098 A 
ENDBRANCH  19  20
ENDBRANCH   1  19
TORSDOF 6
ENDMDL
MODEL 4
REMARK VINA RESULT:      -7.4      2.415      4.805
REMARK  Name = 
REMARK  6 active torsions:
REMARK  status: ('A' for Active; 'I' for Inactive)
REMARK    1  A    between atoms: C_5  and  C_6
REMARK    2  A    between atoms: C_6  and  O_7
REMARK    3  A    between atoms: O_7  and  C_8
REMARK    4  A    between atoms: C_8  and  C_9
REMARK    5  A    between atoms: C_8  and  C_15
REMARK    6  A    between atoms: C_9  and  N_10
REMARK                            x       y       z     vdW  Elec       q    Type
REMARK                         _______ _______ _______ _____ _____    ______ ____
ROOT
ATOM      1  C   UNL     1       2.952   5.599  -7.512  0.00  0.00    +0.161 C 
ENDROOT
BRANCH   1   2
ATOM      2  C   UNL     1       2.720   6.406  -6.118  0.00  0.00    +0.017 A 
ATOM      3  C   UNL     1       2.209   5.435  -5.255  0.00  0.00    +0.057 A 
ATOM      4 CL   UNL     1       1.008   4.271  -5.808  0.00  0.00    -0.082 Cl
ATOM      5  C   UNL     1       2.433   5.475  -3.892  0.00  0.00    +0.023 A 
ATOM      6  C   UNL     1       3.317   6.421  -3.435  0.00  0.00    +0.058 A 
ATOM      7 CL   UNL     1       4.065   6.295  -1.844  0.00  0.00    -0.082 Cl
ATOM      8  C   UNL     1       3.836   7.365  -4.301  0.00  0.00    +0.011 A 
ATOM      9  C   UNL     1       3.859   7.037  -5.637  0.00  0.00    -0.000 A 
ENDBRANCH   1   2
BRANCH   1  10
ATOM     10  O   UNL     1       4.386   6.087  -7.672  0.00  0.00    -0.345 OA
BRANCH  10  11
ATOM     11  C   UNL     1       5.065   5.020  -8.199  0.00  0.00    +0.169 C 
BRANCH  11  16
ATOM     12 CL   UNL     1       6.557   8.692 -11.461  0.00  0.00    -0.082 Cl
ATOM     13  C   UNL     1       6.399   7.541 -11.124  0.00  0.00    +0.058 A 
ATOM     14  C   UNL     1       5.354   6.673 -11.435  0.00  0.00    +0.011 A 
ATOM     15  C   UNL     1       4.991   5.631 -10.586  0.00  0.00    -0.001 A 
ATOM     16  C   UNL     1       5.769   5.320  -9.475  0.00  0.00    +0.007 A 
ATOM     17  C   UNL     1       7.059   5.808  -9.556  0.00  0.00    -0.001 A 
ATOM     18  C   UNL     1       7.366   6.911 -10.345  0.00  0.00    +0.011 A 
ENDBRANCH  11  16
ENDBRANCH  10  11
ENDBRANCH   1  10
BRANCH   1  19
ATOM     19  C   UNL     1       2.250   6.799  -8.385  0.00  0.00    +0.142 C 
BRANCH  19  20
ATOM     20  N   UNL     1       1.572   6.295  -9.499  0.00  0.00    -0.305 N 
ATOM     21  C   UNL     1       1.367   4.951  -9.458  0.00  0.00    +0.179 A 
ATOM     22  N   UNL     1       0.715   4.592 -10.556  0.00  0.00    -0.222 NA
ATOM     23  C   UNL     1       0.196   5.682 -11.121  0.00  0.00    +0.119 A 
ATOM     24  C   UNL     1       0.543   6.711 -10.281  0.00  0.00    +0.098 A 
ENDBRANCH  19  20
ENDBRANCH   1  19
TORSDOF 6
ENDMDL
MODEL 5
REMARK VINA RESULT:      -7.3      3.673      7.704
REMARK  Name = 
REMARK  6 active torsions:
REMARK  status: ('A' for Active; 'I' for Inactive)
REMARK    1  A    between atoms: C_5  and  C_6
REMARK    2  A    between atoms: C_6  and  O_7
REMARK    3  A    between atoms: O_7  and  C_8
REMARK    4  A    between atoms: C_8  and  C_9
REMARK    5  A    between atoms: C_8  and  C_15
REMARK    6  A    between atoms: C_9  and  N_10
REMARK                            x       y       z     vdW  Elec       q    Type
REMARK                         _______ _______ _______ _____ _____    ______ ____
ROOT
ATOM      1  C   UNL     1       0.272   6.130  -7.228  0.00  0.00    +0.161 C 
ENDROOT
BRANCH   1   2
ATOM      2  C   UNL     1       1.710   5.405  -6.995  0.00  0.00    +0.017 A 
ATOM      3  C   UNL     1       2.609   6.471  -6.925  0.00  0.00    +0.057 A 
ATOM      4 CL   UNL     1       2.484   7.838  -8.028  0.00  0.00    -0.082 Cl
ATOM      5  C   UNL     1       3.762   6.407  -6.165  0.00  0.00    +0.023 A 
ATOM      6  C   UNL     1       3.909   5.314  -5.349  0.00  0.00    +0.058 A 
ATOM      7 CL   UNL     1       5.041   5.315  -3.998  0.00  0.00    -0.082 Cl
ATOM      8  C   UNL     1       3.001   4.273  -5.408  0.00  0.00    +0.011 A 
ATOM      9  C   UNL     1       1.746   4.570  -5.886  0.00  0.00    -0.000 A 
ENDBRANCH   1   2
BRANCH   1  10
ATOM     10  O   UNL     1      -0.409   5.369  -6.098  0.00  0.00    -0.345 OA
BRANCH  10  11
ATOM     11  C   UNL     1      -1.750   5.498  -6.343  0.00  0.00    +0.169 C 
BRANCH  11  16
ATOM     12 CL   UNL     1      -1.598   7.212  -1.506  0.00  0.00    -0.082 Cl
ATOM     13  C   UNL     1      -2.157   6.959  -2.550  0.00  0.00    +0.058 A 
ATOM     14  C   UNL     1      -2.893   5.828  -2.897  0.00  0.00    +0.011 A 
ATOM     15  C   UNL     1      -2.995   5.400  -4.218  0.00  0.00    -0.001 A 
ATOM     16  C   UNL     1      -2.501   6.183  -5.256  0.00  0.00    +0.007 A 
ATOM     17  C   UNL     1      -2.331   7.509  -4.909  0.00  0.00    -0.001 A 
ATOM     18  C   UNL     1      -2.138   7.890  -3.585  0.00  0.00    +0.011 A 
ENDBRANCH  11  16
ENDBRANCH  10  11
ENDBRANCH   1  10
BRANCH   1  19
ATOM     19  C   UNL     1      -0.124   5.078  -8.424  0.00  0.00    +0.142 C 
BRANCH  19  20
ATOM     20  N   UNL     1       0.320   5.526  -9.671  0.00  0.00    -0.305 N 
ATOM     21  C   UNL     1       0.419   4.545 -10.607  0.00  0.00    +0.179 A 
ATOM     22  N   UNL     1       0.841   5.087 -11.741  0.00  0.00    -0.222 NA
ATOM     23  C   UNL     1       0.686   6.409 -11.669  0.00  0.00    +0.119 A 
ATOM     24  C   UNL     1       0.111   6.626 -10.440  0.00  0.00    +0.098 A 
ENDBRANCH  19  20
ENDBRANCH   1  19
TORSDOF 6
ENDMDL
MODEL 6
REMARK VINA RESULT:      -7.2      2.877      5.119
REMARK  Name = 
REMARK  6 active torsions:
REMARK  status: ('A' for Active; 'I' for Inactive)
REMARK    1  A    between atoms: C_5  and  C_6
REMARK    2  A    between atoms: C_6  and  O_7
REMARK    3  A    between atoms: O_7  and  C_8
REMARK    4  A    between atoms: C_8  and  C_9
REMARK    5  A    between atoms: C_8  and  C_15
REMARK    6  A    between atoms: C_9  and  N_10
REMARK                            x       y       z     vdW  Elec       q    Type
REMARK                         _______ _______ _______ _____ _____    ______ ____
ROOT
ATOM      1  C   UNL     1       0.390   5.534  -5.223  0.00  0.00    +0.161 C 
ENDROOT
BRANCH   1   2
ATOM      2  C   UNL     1       1.733   5.596  -4.306  0.00  0.00    +0.017 A 
ATOM      3  C   UNL     1       2.712   5.015  -5.114  0.00  0.00    +0.057 A 
ATOM      4 CL   UNL     1       2.365   3.575  -6.066  0.00  0.00    -0.082 Cl
ATOM      5  C   UNL     1       4.041   5.386  -5.036  0.00  0.00    +0.023 A 
ATOM      6  C   UNL     1       4.339   6.466  -4.244  0.00  0.00    +0.058 A 
ATOM      7 CL   UNL     1       5.859   7.344  -4.412  0.00  0.00    -0.082 Cl
ATOM      8  C   UNL     1       3.359   7.050  -3.464  0.00  0.00    +0.011 A 
ATOM      9  C   UNL     1       2.056   6.874  -3.869  0.00  0.00    -0.000 A 
ENDBRANCH   1   2
BRANCH   1  10
ATOM     10  O   UNL     1       0.917   6.533  -6.244  0.00  0.00    -0.345 OA
BRANCH  10  11
ATOM     11  C   UNL     1       0.438   6.093  -7.449  0.00  0.00    +0.169 C 
BRANCH  11  16
ATOM     12 CL   UNL     1       5.320   5.035  -8.632  0.00  0.00    -0.082 Cl
ATOM     13  C   UNL     1       4.215   5.463  -8.874  0.00  0.00    +0.058 A 
ATOM     14  C   UNL     1       3.752   6.776  -8.808  0.00  0.00    +0.011 A 
ATOM     15  C   UNL     1       2.413   7.067  -8.557  0.00  0.00    -0.001 A 
ATOM     16  C   UNL     1       1.462   6.052  -8.529  0.00  0.00    +0.007 A 
ATOM     17  C   UNL     1       1.872   4.898  -9.169  0.00  0.00    -0.001 A 
ATOM     18  C   UNL     1       3.221   4.595  -9.319  0.00  0.00    +0.011 A 
ENDBRANCH  11  16
ENDBRANCH  10  11
ENDBRANCH   1  10
BRANCH   1  19
ATOM     19  C   UNL     1      -0.376   6.630  -4.270  0.00  0.00    +0.142 C 
BRANCH  19  20
ATOM     20  N   UNL     1      -1.600   6.141  -3.805  0.00  0.00    -0.305 N 
ATOM     21  C   UNL     1      -1.500   5.383  -2.681  0.00  0.00    +0.179 A 
ATOM     22  N   UNL     1      -2.717   4.983  -2.335  0.00  0.00    -0.222 NA
ATOM     23  C   UNL     1      -3.613   5.730  -2.980  0.00  0.00    +0.119 A 
ATOM     24  C   UNL     1      -2.865   6.625  -3.705  0.00  0.00    +0.098 A 
ENDBRANCH  19  20
ENDBRANCH   1  19
TORSDOF 6
ENDMDL
MODEL 7
REMARK VINA RESULT:      -7.2      2.990      7.325
REMARK  Name = 
REMARK  6 active torsions:
REMARK  status: ('A' for Active; 'I' for Inactive)
REMARK    1  A    between atoms: C_5  and  C_6
REMARK    2  A    between atoms: C_6  and  O_7
REMARK    3  A    between atoms: O_7  and  C_8
REMARK    4  A    between atoms: C_8  and  C_9
REMARK    5  A    between atoms: C_8  and  C_15
REMARK    6  A    between atoms: C_9  and  N_10
REMARK                            x       y       z     vdW  Elec       q    Type
REMARK                         _______ _______ _______ _____ _____    ______ ____
ROOT
ATOM      1  C   UNL     1       1.786   5.115  -7.310  0.00  0.00    +0.161 C 
ENDROOT
BRANCH   1   2
ATOM      2  C   UNL     1       3.168   5.369  -6.489  0.00  0.00    +0.017 A 
ATOM      3  C   UNL     1       3.143   6.739  -6.219  0.00  0.00    +0.057 A 
ATOM      4 CL   UNL     1       2.622   7.895  -7.440  0.00  0.00    -0.082 Cl
ATOM      5  C   UNL     1       3.735   7.273  -5.089  0.00  0.00    +0.023 A 
ATOM      6  C   UNL     1       4.208   6.384  -4.157  0.00  0.00    +0.058 A 
ATOM      7 CL   UNL     1       4.536   6.875  -2.496  0.00  0.00    -0.082 Cl
ATOM      8  C   UNL     1       4.208   5.028  -4.422  0.00  0.00    +0.011 A 
ATOM      9  C   UNL     1       3.302   4.578  -5.355  0.00  0.00    -0.000 A 
ENDBRANCH   1   2
BRANCH   1  10
ATOM     10  O   UNL     1       1.198   4.206  -6.239  0.00  0.00    -0.345 OA
BRANCH  10  11
ATOM     11  C   UNL     1      -0.056   4.705  -6.004  0.00  0.00    +0.169 C 
BRANCH  11  16
ATOM     12 CL   UNL     1      -2.927   6.953  -2.390  0.00  0.00    -0.082 Cl
ATOM     13  C   UNL     1      -1.937   6.849  -3.079  0.00  0.00    +0.058 A 
ATOM     14  C   UNL     1      -1.627   7.501  -4.271  0.00  0.00    +0.011 A 
ATOM     15  C   UNL     1      -0.791   6.924  -5.224  0.00  0.00    -0.001 A 
ATOM     16  C   UNL     1      -0.104   5.748  -4.943  0.00  0.00    +0.007 A 
ATOM     17  C   UNL     1       0.008   5.488  -3.591  0.00  0.00    -0.001 A 
ATOM     18  C   UNL     1      -0.903   6.007  -2.677  0.00  0.00    +0.011 A 
ENDBRANCH  11  16
ENDBRANCH  10  11
ENDBRANCH   1  10
BRANCH   1  19
ATOM     19  C   UNL     1       2.476   3.922  -8.204  0.00  0.00    +0.142 C 
BRANCH  19  20
ATOM     20  N   UNL     1       3.075   4.429  -9.361  0.00  0.00    -0.305 N 
ATOM     21  C   UNL     1       2.277   5.267 -10.074  0.00  0.00    +0.179 A 
ATOM     22  N   UNL     1       2.951   5.685 -11.138  0.00  0.00    -0.222 NA
ATOM     23  C   UNL     1       4.246   5.428 -10.953  0.00  0.00    +0.119 A 
ATOM     24  C   UNL     1       4.316   4.866  -9.702  0.00  0.00    +0.098 A 
ENDBRANCH  19  20
ENDBRANCH   1  19
TORSDOF 6
ENDMDL
MODEL 8
REMARK VINA RESULT:      -7.2      2.301      3.323
REMARK  Name = 
REMARK  6 active torsions:
REMARK  status: ('A' for Active; 'I' for Inactive)
REMARK    1  A    between atoms: C_5  and  C_6
REMARK    2  A    between atoms: C_6  and  O_7
REMARK    3  A    between atoms: O_7  and  C_8
REMARK    4  A    between atoms: C_8  and  C_9
REMARK    5  A    between atoms: C_8  and  C_15
REMARK    6  A    between atoms: C_9  and  N_10
REMARK                            x       y       z     vdW  Elec       q    Type
REMARK                         _______ _______ _______ _____ _____    ______ ____
ROOT
ATOM      1  C   UNL     1       2.135   6.175 -10.494  0.00  0.00    +0.161 C 
ENDROOT
BRANCH   1   2
ATOM      2  C   UNL     1       1.698   5.840 -12.026  0.00  0.00    +0.017 A 
ATOM      3  C   UNL     1       0.770   6.838 -12.329  0.00  0.00    +0.057 A 
ATOM      4 CL   UNL     1      -0.447   7.333 -11.157  0.00  0.00    -0.082 Cl
ATOM      5  C   UNL     1       0.606   7.318 -13.615  0.00  0.00    +0.023 A 
ATOM      6  C   UNL     1       1.506   6.889 -14.559  0.00  0.00    +0.058 A 
ATOM      7 CL   UNL     1       1.731   7.751 -16.079  0.00  0.00    -0.082 Cl
ATOM      8  C   UNL     1       2.436   5.917 -14.243  0.00  0.00    +0.011 A 
ATOM      9  C   UNL     1       2.764   5.779 -12.914  0.00  0.00    -0.000 A 
ENDBRANCH   1   2
BRANCH   1  10
ATOM     10  O   UNL     1       3.589   5.779 -10.716  0.00  0.00    -0.345 OA
BRANCH  10  11
ATOM     11  C   UNL     1       4.284   6.417  -9.722  0.00  0.00    +0.169 C 
BRANCH  11  16
ATOM     12 CL   UNL     1       8.197   5.617 -12.948  0.00  0.00    -0.082 Cl
ATOM     13  C   UNL     1       7.678   6.119 -11.977  0.00  0.00    +0.058 A 
ATOM     14  C   UNL     1       7.741   5.716 -10.644  0.00  0.00    +0.011 A 
ATOM     15  C   UNL     1       6.712   5.993  -9.747  0.00  0.00    -0.001 A 
ATOM     16  C   UNL     1       5.660   6.827 -10.113  0.00  0.00    +0.007 A 
ATOM     17  C   UNL     1       5.954   7.638 -11.192  0.00  0.00    -0.001 A 
ATOM     18  C   UNL     1       6.926   7.282 -12.121  0.00  0.00    +0.011 A 
ENDBRANCH  11  16
ENDBRANCH  10  11
ENDBRANCH   1  10
BRANCH   1  19
ATOM     19  C   UNL     1       1.622   4.706  -9.971  0.00  0.00    +0.142 C 
BRANCH  19  20
ATOM     20  N   UNL     1       1.484   4.675  -8.580  0.00  0.00    -0.305 N 
ATOM     21  C   UNL     1       2.389   3.878  -7.954  0.00  0.00    +0.179 A 
ATOM     22  N   UNL     1       2.165   3.933  -6.647  0.00  0.00    -0.222 NA
ATOM     23  C   UNL     1       1.390   4.986  -6.390  0.00  0.00    +0.119 A 
ATOM     24  C   UNL     1       1.192   5.582  -7.612  0.00  0.00    +0.098 A 
ENDBRANCH  19  20
ENDBRANCH   1  19
TORSDOF 6
ENDMDL
MODEL 9
REMARK VINA RESULT:      -7.1      2.722      5.848
REMARK  Name = 
REMARK  6 active torsions:
REMARK  status: ('A' for Active; 'I' for Inactive)
REMARK    1  A    between atoms: C_5  and  C_6
REMARK    2  A    between atoms: C_6  and  O_7
REMARK    3  A    between atoms: O_7  and  C_8
REMARK    4  A    between atoms: C_8  and  C_9
REMARK    5  A    between atoms: C_8  and  C_15
REMARK    6  A    between atoms: C_9  and  N_10
REMARK                            x       y       z     vdW  Elec       q    Type
REMARK                         _______ _______ _______ _____ _____    ______ ____
ROOT
ATOM      1  C   UNL     1       1.991   5.671  -7.945  0.00  0.00    +0.161 C 
ENDROOT
BRANCH   1   2
ATOM      2  C   UNL     1       1.928   6.521  -9.331  0.00  0.00    +0.017 A 
ATOM      3  C   UNL     1       2.785   5.825 -10.184  0.00  0.00    +0.057 A 
ATOM      4 CL   UNL     1       4.327   5.197  -9.608  0.00  0.00    -0.082 Cl
ATOM      5  C   UNL     1       2.589   5.792 -11.552  0.00  0.00    +0.023 A 
ATOM      6  C   UNL     1       1.423   6.339 -12.026  0.00  0.00    +0.058 A 
ATOM      7 CL   UNL     1       0.810   5.956 -13.634  0.00  0.00    -0.082 Cl
ATOM      8  C   UNL     1       0.568   7.007 -11.170  0.00  0.00    +0.011 A 
ATOM      9  C   UNL     1       0.644   6.680  -9.836  0.00  0.00    -0.000 A 
ENDBRANCH   1   2
BRANCH   1  10
ATOM     10  O   UNL     1       0.502   5.829  -7.662  0.00  0.00    -0.345 OA
BRANCH  10  11
ATOM     11  C   UNL     1       0.218   4.870  -6.727  0.00  0.00    +0.169 C 
BRANCH  11  16
ATOM     12 CL   UNL     1      -2.019   8.822  -4.332  0.00  0.00    -0.082 Cl
ATOM     13  C   UNL     1      -1.805   7.645  -4.513  0.00  0.00    +0.058 A 
ATOM     14  C   UNL     1      -0.910   6.807  -3.851  0.00  0.00    +0.011 A 
ATOM     15  C   UNL     1      -0.355   5.692  -4.474  0.00  0.00    -0.001 A 
ATOM     16  C   UNL     1      -0.804   5.285  -5.726  0.00  0.00    +0.007 A 
ATOM     17  C   UNL     1      -2.052   5.780  -6.049  0.00  0.00    -0.001 A 
ATOM     18  C   UNL     1      -2.536   6.951  -5.473  0.00  0.00    +0.011 A 
ENDBRANCH  11  16
ENDBRANCH  10  11
ENDBRANCH   1  10
BRANCH   1  19
ATOM     19  C   UNL     1       2.480   6.989  -7.096  0.00  0.00    +0.142 C 
BRANCH  19  20
ATOM     20  N   UNL     1       3.253   6.629  -5.988  0.00  0.00    -0.305 N 
ATOM     21  C   UNL     1       3.834   5.405  -6.096  0.00  0.00    +0.179 A 
ATOM     22  N   UNL     1       4.540   5.177  -4.996  0.00  0.00    -0.222 NA
ATOM     23  C   UNL     1       4.714   6.332  -4.352  0.00  0.00    +0.119 A 
ATOM     24  C   UNL     1       4.104   7.271  -5.147  0.00  0.00    +0.098 A 
ENDBRANCH  19  20
ENDBRANCH   1  19
TORSDOF 6
ENDMDL
