MODEL 1
REMARK VINA RESULT:      -5.7      0.000      0.000
REMARK  Name = 
REMARK  5 active torsions:
REMARK  status: ('A' for Active; 'I' for Inactive)
REMARK    1  A    between atoms: O_2  and  C_3
REMARK    2  A    between atoms: C_5  and  C_6
REMARK    3  A    between atoms: C_13  and  O_14
REMARK    4  A    between atoms: O_14  and  C_15
REMARK    5  A    between atoms: C_38  and  O_39
REMARK                            x       y       z     vdW  Elec       q    Type
REMARK                         _______ _______ _______ _____ _____    ______ ____
ROOT
ATOM      1  C   UNL     1       1.773   7.046  -1.601  0.00  0.00    +0.055 C 
ATOM      2  C   UNL     1       2.813   6.427  -0.403  0.00  0.00    +0.113 C 
ATOM      3  C   UNL     1       4.231   6.514  -1.345  0.00  0.00    +0.086 C 
ATOM      4  C   UNL     1       4.881   6.192   0.088  0.00  0.00    +0.212 C 
ATOM      5  O   UNL     1       4.274   4.866  -0.083  0.00  0.00    -0.448 OA
ATOM      6  C   UNL     1       4.255   8.186  -1.511  0.00  0.00    +0.144 C 
ATOM      7  C   UNL     1       3.470   7.912  -2.913  0.00  0.00    +0.004 A 
ATOM      8  C   UNL     1       4.355   7.782  -3.995  0.00  0.00    +0.038 A 
ATOM      9  C   UNL     1       3.844   7.299  -5.200  0.00  0.00    +0.176 A 
ATOM     10  O   UNL     1       4.395   7.132  -6.460  0.00  0.00    -0.435 OA
ATOM     11  C   UNL     1       3.711   6.058  -7.103  0.00  0.00    +0.429 C 
ATOM     12  O   UNL     1       2.477   6.089  -6.465  0.00  0.00    -0.435 OA
ATOM     13  C   UNL     1       2.550   6.813  -5.272  0.00  0.00    +0.176 A 
ATOM     14  C   UNL     1       1.913   6.715  -4.045  0.00  0.00    +0.036 A 
ATOM     15  C   UNL     1       3.024   4.914  -0.776  0.00  0.00    +0.317 C 
ATOM     16  O   UNL     1       3.110   4.441  -1.942  0.00  0.00    -0.250 OA
ATOM     17  C   UNL     1       2.675   6.725  -2.881  0.00  0.00    -0.016 A 
ENDROOT
BRANCH   1  23
ATOM     18  C   UNL     1      -1.331   5.940  -0.347  0.00  0.00    +0.180 A 
ATOM     19  C   UNL     1      -2.034   5.898  -1.554  0.00  0.00    +0.263 A 
ATOM     20  O   UNL     1      -3.009   6.872  -1.808  0.00  0.00    -0.280 OA
ATOM     21  C   UNL     1      -1.292   5.338  -2.593  0.00  0.00    +0.180 A 
ATOM     22  C   UNL     1       0.093   5.372  -2.585  0.00  0.00    +0.036 A 
ATOM     23  C   UNL     1       0.799   5.778  -1.548  0.00  0.00    -0.012 A 
ATOM     24  C   UNL     1       0.063   6.048  -0.376  0.00  0.00    +0.036 A 
BRANCH  18  26
ATOM     25  C   UNL     1      -2.305   6.441   1.530  0.00  0.00    +0.253 C 
ATOM     26  O   UNL     1      -2.097   6.236   0.761  0.00  0.00    -0.468 OA
ENDBRANCH  18  26
BRANCH  21  27
ATOM     27  O   UNL     1      -1.813   5.397  -3.890  0.00  0.00    -0.468 OA
ATOM     28  C   UNL     1      -1.118   5.882  -4.991  0.00  0.00    +0.253 C 
ENDBRANCH  21  27
ENDBRANCH   1  23
BRANCH   6  29
ATOM     29  O   UNL     1       3.007   8.498  -0.708  0.00  0.00    -0.326 OA
BRANCH  29  30
ATOM     30  C   UNL     1       3.275   9.925  -0.293  0.00  0.00    +0.270 C 
ATOM     31  C   UNL     1       2.296   9.751   1.116  0.00  0.00    +0.240 C 
ATOM     32  O   UNL     1       1.091  10.289   0.415  0.00  0.00    -0.215 OA
ATOM     33  C   UNL     1       2.688  11.297   1.702  0.00  0.00    +0.217 C 
ATOM     34  O   UNL     1       1.987  11.036   2.999  0.00  0.00    -0.218 OA
ATOM     35  C   UNL     1       4.157  10.734   2.341  0.00  0.00    +0.180 C 
ATOM     36  C   UNL     1       4.882  10.974   0.812  0.00  0.00    +0.177 C 
ATOM     37  C   UNL     1       6.354  10.545   1.386  0.00  0.00    +0.177 C 
ATOM     38  O   UNL     1       6.641  11.720   2.040  0.00  0.00    -0.328 OA
ATOM     39  C   UNL     1       5.903  11.624   3.378  0.00  0.00    +0.235 C 
ATOM     40  C   UNL     1       6.298  13.197   3.743  0.00  0.00    +0.067 C 
ATOM     41  O   UNL     1       4.586  12.099   2.758  0.00  0.00    -0.328 OA
ATOM     42  O   UNL     1       4.535   9.553   0.482  0.00  0.00    -0.326 OA
ENDBRANCH  29  30
ENDBRANCH   6  29
TORSDOF 5
ENDMDL
MODEL 2
REMARK VINA RESULT:      -5.5      2.036      8.163
REMARK  Name = 
REMARK  5 active torsions:
REMARK  status: ('A' for Active; 'I' for Inactive)
REMARK    1  A    between atoms: O_2  and  C_3
REMARK    2  A    between atoms: C_5  and  C_6
REMARK    3  A    between atoms: C_13  and  O_14
REMARK    4  A    between atoms: O_14  and  C_15
REMARK    5  A    between atoms: C_38  and  O_39
REMARK                            x       y       z     vdW  Elec       q    Type
REMARK                         _______ _______ _______ _____ _____    ______ ____
ROOT
ATOM      1  C   UNL     1       2.815   7.325  -2.600  0.00  0.00    +0.055 C 
ATOM      2  C   UNL     1       3.938   6.077  -2.889  0.00  0.00    +0.113 C 
ATOM      3  C   UNL     1       2.776   4.856  -3.145  0.00  0.00    +0.086 C 
ATOM      4  C   UNL     1       4.093   4.077  -3.630  0.00  0.00    +0.212 C 
ATOM      5  O   UNL     1       4.465   4.095  -2.209  0.00  0.00    -0.448 OA
ATOM      6  C   UNL     1       2.086   5.525  -4.524  0.00  0.00    +0.144 C 
ATOM      7  C   UNL     1       1.010   6.182  -3.489  0.00  0.00    +0.004 A 
ATOM      8  C   UNL     1      -0.117   5.364  -3.311  0.00  0.00    +0.038 A 
ATOM      9  C   UNL     1      -0.992   5.678  -2.272  0.00  0.00    +0.176 A 
ATOM     10  O   UNL     1      -2.211   5.156  -1.873  0.00  0.00    -0.435 OA
ATOM     11  C   UNL     1      -2.345   5.364  -0.469  0.00  0.00    +0.429 C 
ATOM     12  O   UNL     1      -1.537   6.477  -0.272  0.00  0.00    -0.435 OA
ATOM     13  C   UNL     1      -0.670   6.662  -1.352  0.00  0.00    +0.176 A 
ATOM     14  C   UNL     1       0.620   7.155  -1.480  0.00  0.00    +0.036 A 
ATOM     15  C   UNL     1       4.032   5.280  -1.538  0.00  0.00    +0.317 C 
ATOM     16  O   UNL     1       3.081   5.053  -0.741  0.00  0.00    -0.250 OA
ATOM     17  C   UNL     1       1.561   6.420  -2.193  0.00  0.00    -0.016 A 
ENDROOT
BRANCH   1  23
ATOM     18  C   UNL     1       3.353  10.006  -0.375  0.00  0.00    +0.180 A 
ATOM     19  C   UNL     1       2.419   9.650   0.602  0.00  0.00    +0.263 A 
ATOM     20  O   UNL     1       1.239  10.397   0.719  0.00  0.00    -0.280 OA
ATOM     21  C   UNL     1       2.437   8.288   0.897  0.00  0.00    +0.180 A 
ATOM     22  C   UNL     1       2.875   7.358  -0.033  0.00  0.00    +0.036 A 
ATOM     23  C   UNL     1       3.443   7.691  -1.175  0.00  0.00    -0.012 A 
ATOM     24  C   UNL     1       3.717   9.065  -1.343  0.00  0.00    +0.036 A 
BRANCH  18  26
ATOM     25  C   UNL     1       3.936  12.083  -0.643  0.00  0.00    +0.253 C 
ATOM     26  O   UNL     1       3.559  11.362  -0.514  0.00  0.00    -0.468 OA
ENDBRANCH  18  26
BRANCH  21  27
ATOM     27  O   UNL     1       1.435   7.772   1.726  0.00  0.00    -0.468 OA
ATOM     28  C   UNL     1       1.399   7.935   3.105  0.00  0.00    +0.253 C 
ENDBRANCH  21  27
ENDBRANCH   1  23
BRANCH   6  29
ATOM     29  O   UNL     1       2.961   6.760  -4.622  0.00  0.00    -0.326 OA
BRANCH  29  30
ATOM     30  C   UNL     1       2.864   7.071  -6.096  0.00  0.00    +0.270 C 
ATOM     31  C   UNL     1       3.984   5.818  -6.484  0.00  0.00    +0.240 C 
ATOM     32  O   UNL     1       5.139   6.767  -6.465  0.00  0.00    -0.215 OA
ATOM     33  C   UNL     1       3.795   6.029  -8.159  0.00  0.00    +0.217 C 
ATOM     34  O   UNL     1       4.619   4.815  -8.454  0.00  0.00    -0.218 OA
ATOM     35  C   UNL     1       2.370   5.106  -8.161  0.00  0.00    +0.180 C 
ATOM     36  C   UNL     1       1.491   6.511  -7.741  0.00  0.00    +0.177 C 
ATOM     37  C   UNL     1       0.067   5.709  -7.831  0.00  0.00    +0.177 C 
ATOM     38  O   UNL     1      -0.042   5.688  -9.201  0.00  0.00    -0.328 OA
ATOM     39  C   UNL     1       0.839   4.519  -9.654  0.00  0.00    +0.235 C 
ATOM     40  C   UNL     1       0.622   4.936 -11.249  0.00  0.00    +0.067 C 
ATOM     41  O   UNL     1       2.108   5.375  -9.604  0.00  0.00    -0.328 OA
ATOM     42  O   UNL     1       1.678   6.134  -6.303  0.00  0.00    -0.326 OA
ENDBRANCH  29  30
ENDBRANCH   6  29
TORSDOF 5
ENDMDL
MODEL 3
REMARK VINA RESULT:      -5.4      3.966      8.091
REMARK  Name = 
REMARK  5 active torsions:
REMARK  status: ('A' for Active; 'I' for Inactive)
REMARK    1  A    between atoms: O_2  and  C_3
REMARK    2  A    between atoms: C_5  and  C_6
REMARK    3  A    between atoms: C_13  and  O_14
REMARK    4  A    between atoms: O_14  and  C_15
REMARK    5  A    between atoms: C_38  and  O_39
REMARK                            x       y       z     vdW  Elec       q    Type
REMARK                         _______ _______ _______ _____ _____    ______ ____
ROOT
ATOM      1  C   UNL     1       2.511   6.215  -9.119  0.00  0.00    +0.055 C 
ATOM      2  C   UNL     1       2.020   5.060  -7.968  0.00  0.00    +0.113 C 
ATOM      3  C   UNL     1       3.594   4.594  -7.509  0.00  0.00    +0.086 C 
ATOM      4  C   UNL     1       2.751   3.854  -6.361  0.00  0.00    +0.212 C 
ATOM      5  O   UNL     1       2.292   2.979  -7.447  0.00  0.00    -0.448 OA
ATOM      6  C   UNL     1       4.061   6.078  -6.871  0.00  0.00    +0.144 C 
ATOM      7  C   UNL     1       4.689   6.351  -8.351  0.00  0.00    +0.004 A 
ATOM      8  C   UNL     1       6.033   5.953  -8.434  0.00  0.00    +0.038 A 
ATOM      9  C   UNL     1       6.618   5.894  -9.698  0.00  0.00    +0.176 A 
ATOM     10  O   UNL     1       7.908   5.636 -10.131  0.00  0.00    -0.435 OA
ATOM     11  C   UNL     1       7.833   5.072 -11.439  0.00  0.00    +0.429 C 
ATOM     12  O   UNL     1       6.629   5.592 -11.899  0.00  0.00    -0.435 OA
ATOM     13  C   UNL     1       5.851   6.065 -10.838  0.00  0.00    +0.176 A 
ATOM     14  C   UNL     1       4.488   6.132 -10.598  0.00  0.00    +0.036 A 
ATOM     15  C   UNL     1       2.150   3.670  -8.691  0.00  0.00    +0.317 C 
ATOM     16  O   UNL     1       3.043   3.343  -9.519  0.00  0.00    -0.250 OA
ATOM     17  C   UNL     1       3.987   5.663  -9.388  0.00  0.00    -0.016 A 
ENDROOT
BRANCH   1  23
ATOM     18  C   UNL     1      -0.100   6.806 -11.413  0.00  0.00    +0.180 A 
ATOM     19  C   UNL     1       0.668   6.894 -12.577  0.00  0.00    +0.263 A 
ATOM     20  O   UNL     1       0.854   8.147 -13.176  0.00  0.00    -0.280 OA
ATOM     21  C   UNL     1       1.654   5.911 -12.650  0.00  0.00    +0.180 A 
ATOM     22  C   UNL     1       2.173   5.328 -11.505  0.00  0.00    +0.036 A 
ATOM     23  C   UNL     1       1.676   5.534 -10.301  0.00  0.00    -0.012 A 
ATOM     24  C   UNL     1       0.479   6.279 -10.254  0.00  0.00    +0.036 A 
BRANCH  18  26
ATOM     25  C   UNL     1      -2.018   7.819 -11.547  0.00  0.00    +0.253 C 
ATOM     26  O   UNL     1      -1.243   7.577 -11.412  0.00  0.00    -0.468 OA
ENDBRANCH  18  26
BRANCH  21  27
ATOM     27  O   UNL     1       2.602   5.994 -13.675  0.00  0.00    -0.468 OA
ATOM     28  C   UNL     1       3.549   5.015 -13.947  0.00  0.00    +0.253 C 
ENDBRANCH  21  27
ENDBRANCH   1  23
BRANCH   6  29
ATOM     29  O   UNL     1       2.770   6.833  -7.124  0.00  0.00    -0.326 OA
BRANCH  29  30
ATOM     30  C   UNL     1       2.574   7.529  -5.799  0.00  0.00    +0.270 C 
ATOM     31  C   UNL     1       1.455   6.326  -5.277  0.00  0.00    +0.240 C 
ATOM     32  O   UNL     1       0.285   7.125  -5.753  0.00  0.00    -0.215 OA
ATOM     33  C   UNL     1       1.316   6.987  -3.717  0.00  0.00    +0.217 C 
ATOM     34  O   UNL     1       0.503   5.823  -3.244  0.00  0.00    -0.218 OA
ATOM     35  C   UNL     1       2.752   6.232  -3.219  0.00  0.00    +0.180 C 
ATOM     36  C   UNL     1       3.634   7.551  -3.854  0.00  0.00    +0.177 C 
ATOM     37  C   UNL     1       5.049   6.936  -3.307  0.00  0.00    +0.177 C 
ATOM     38  O   UNL     1       4.898   7.286  -1.986  0.00  0.00    -0.328 OA
ATOM     39  C   UNL     1       3.998   6.203  -1.385  0.00  0.00    +0.235 C 
ATOM     40  C   UNL     1       3.893   7.043   0.046  0.00  0.00    +0.067 C 
ATOM     41  O   UNL     1       2.726   6.894  -1.884  0.00  0.00    -0.328 OA
ATOM     42  O   UNL     1       3.739   6.794  -5.143  0.00  0.00    -0.326 OA
ENDBRANCH  29  30
ENDBRANCH   6  29
TORSDOF 5
ENDMDL
MODEL 4
REMARK VINA RESULT:      -5.3      2.475      8.564
REMARK  Name = 
REMARK  5 active torsions:
REMARK  status: ('A' for Active; 'I' for Inactive)
REMARK    1  A    between atoms: O_2  and  C_3
REMARK    2  A    between atoms: C_5  and  C_6
REMARK    3  A    between atoms: C_13  and  O_14
REMARK    4  A    between atoms: O_14  and  C_15
REMARK    5  A    between atoms: C_38  and  O_39
REMARK                            x       y       z     vdW  Elec       q    Type
REMARK                         _______ _______ _______ _____ _____    ______ ____
ROOT
ATOM      1  C   UNL     1       4.493   9.705   1.692  0.00  0.00    +0.055 C 
ATOM      2  C   UNL     1       2.974   9.384   2.393  0.00  0.00    +0.113 C 
ATOM      3  C   UNL     1       2.091  10.422   1.369  0.00  0.00    +0.086 C 
ATOM      4  C   UNL     1       0.876   9.651   2.080  0.00  0.00    +0.212 C 
ATOM      5  O   UNL     1       1.282  10.394   3.280  0.00  0.00    -0.448 OA
ATOM      6  C   UNL     1       2.401   9.599  -0.063  0.00  0.00    +0.144 C 
ATOM      7  C   UNL     1       3.631  10.656  -0.233  0.00  0.00    +0.004 A 
ATOM      8  C   UNL     1       3.251  11.795  -0.960  0.00  0.00    +0.038 A 
ATOM      9  C   UNL     1       4.121  12.885  -0.965  0.00  0.00    +0.176 A 
ATOM     10  O   UNL     1       4.107  14.101  -1.627  0.00  0.00    -0.435 OA
ATOM     11  C   UNL     1       4.812  15.049  -0.829  0.00  0.00    +0.429 C 
ATOM     12  O   UNL     1       5.671  14.226  -0.111  0.00  0.00    -0.435 OA
ATOM     13  C   UNL     1       5.239  12.897  -0.149  0.00  0.00    +0.176 A 
ATOM     14  C   UNL     1       5.301  11.837   0.742  0.00  0.00    +0.036 A 
ATOM     15  C   UNL     1       2.695  10.596   3.355  0.00  0.00    +0.317 C 
ATOM     16  O   UNL     1       3.014  11.798   3.148  0.00  0.00    -0.250 OA
ATOM     17  C   UNL     1       4.146  11.113   1.019  0.00  0.00    -0.016 A 
ENDROOT
BRANCH   1  23
ATOM     18  C   UNL     1       7.441   9.462   3.612  0.00  0.00    +0.180 A 
ATOM     19  C   UNL     1       7.887  10.778   3.466  0.00  0.00    +0.263 A 
ATOM     20  O   UNL     1       8.995  11.033   2.647  0.00  0.00    -0.280 OA
ATOM     21  C   UNL     1       6.864  11.715   3.601  0.00  0.00    +0.180 A 
ATOM     22  C   UNL     1       5.546  11.382   3.327  0.00  0.00    +0.036 A 
ATOM     23  C   UNL     1       5.148  10.150   3.083  0.00  0.00    -0.012 A 
ATOM     24  C   UNL     1       6.125   9.147   3.256  0.00  0.00    +0.036 A 
BRANCH  18  26
ATOM     25  C   UNL     1       8.849   7.809   3.702  0.00  0.00    +0.253 C 
ATOM     26  O   UNL     1       8.439   8.522   3.750  0.00  0.00    -0.468 OA
ENDBRANCH  18  26
BRANCH  21  27
ATOM     27  O   UNL     1       7.142  13.053   3.303  0.00  0.00    -0.468 OA
ATOM     28  C   UNL     1       6.214  14.083   3.388  0.00  0.00    +0.253 C 
ENDBRANCH  21  27
ENDBRANCH   1  23
BRANCH   6  29
ATOM     29  O   UNL     1       3.251   8.483   0.514  0.00  0.00    -0.326 OA
BRANCH  29  30
ATOM     30  C   UNL     1       3.861   7.903  -0.740  0.00  0.00    +0.270 C 
ATOM     31  C   UNL     1       3.880   6.320  -0.058  0.00  0.00    +0.240 C 
ATOM     32  O   UNL     1       5.284   6.483   0.428  0.00  0.00    -0.215 OA
ATOM     33  C   UNL     1       4.425   5.597  -1.496  0.00  0.00    +0.217 C 
ATOM     34  O   UNL     1       4.243   4.223  -0.931  0.00  0.00    -0.218 OA
ATOM     35  C   UNL     1       2.854   5.580  -2.138  0.00  0.00    +0.180 C 
ATOM     36  C   UNL     1       3.089   7.182  -2.686  0.00  0.00    +0.177 C 
ATOM     37  C   UNL     1       1.628   7.199  -3.423  0.00  0.00    +0.177 C 
ATOM     38  O   UNL     1       1.973   6.453  -4.524  0.00  0.00    -0.328 OA
ATOM     39  C   UNL     1       1.909   4.996  -4.057  0.00  0.00    +0.235 C 
ATOM     40  C   UNL     1       2.550   4.474  -5.500  0.00  0.00    +0.067 C 
ATOM     41  O   UNL     1       3.317   5.061  -3.456  0.00  0.00    -0.328 OA
ATOM     42  O   UNL     1       2.504   7.656  -1.390  0.00  0.00    -0.326 OA
ENDBRANCH  29  30
ENDBRANCH   6  29
TORSDOF 5
ENDMDL
MODEL 5
REMARK VINA RESULT:      -5.3      2.112      7.871
REMARK  Name = 
REMARK  5 active torsions:
REMARK  status: ('A' for Active; 'I' for Inactive)
REMARK    1  A    between atoms: O_2  and  C_3
REMARK    2  A    between atoms: C_5  and  C_6
REMARK    3  A    between atoms: C_13  and  O_14
REMARK    4  A    between atoms: O_14  and  C_15
REMARK    5  A    between atoms: C_38  and  O_39
REMARK                            x       y       z     vdW  Elec       q    Type
REMARK                         _______ _______ _______ _____ _____    ______ ____
ROOT
ATOM      1  C   UNL     1       2.873   7.544  -1.782  0.00  0.00    +0.055 C 
ATOM      2  C   UNL     1       3.854   6.158  -1.917  0.00  0.00    +0.113 C 
ATOM      3  C   UNL     1       2.702   5.071  -1.285  0.00  0.00    +0.086 C 
ATOM      4  C   UNL     1       3.787   4.022  -1.834  0.00  0.00    +0.212 C 
ATOM      5  O   UNL     1       4.627   4.520  -0.737  0.00  0.00    -0.448 OA
ATOM      6  C   UNL     1       1.563   5.257  -2.508  0.00  0.00    +0.144 C 
ATOM      7  C   UNL     1       0.898   6.369  -1.518  0.00  0.00    +0.004 A 
ATOM      8  C   UNL     1      -0.080   5.810  -0.680  0.00  0.00    +0.038 A 
ATOM      9  C   UNL     1      -0.548   6.584   0.381  0.00  0.00    +0.176 A 
ATOM     10  O   UNL     1      -1.543   6.390   1.325  0.00  0.00    -0.435 OA
ATOM     11  C   UNL     1      -1.187   7.116   2.500  0.00  0.00    +0.429 C 
ATOM     12  O   UNL     1      -0.385   8.123   1.975  0.00  0.00    -0.435 OA
ATOM     13  C   UNL     1       0.051   7.794   0.689  0.00  0.00    +0.176 A 
ATOM     14  C   UNL     1       1.205   8.053  -0.033  0.00  0.00    +0.036 A 
ATOM     15  C   UNL     1       4.427   5.911  -0.474  0.00  0.00    +0.317 C 
ATOM     16  O   UNL     1       3.815   6.105   0.612  0.00  0.00    -0.250 OA
ATOM     17  C   UNL     1       1.858   7.004  -0.672  0.00  0.00    -0.016 A 
ENDROOT
BRANCH   1  23
ATOM     18  C   UNL     1       3.710  10.756  -0.595  0.00  0.00    +0.180 A 
ATOM     19  C   UNL     1       3.372  10.571   0.748  0.00  0.00    +0.263 A 
ATOM     20  O   UNL     1       2.220  11.192   1.252  0.00  0.00    -0.280 OA
ATOM     21  C   UNL     1       3.802   9.343   1.250  0.00  0.00    +0.180 A 
ATOM     22  C   UNL     1       3.996   8.255   0.415  0.00  0.00    +0.036 A 
ATOM     23  C   UNL     1       3.948   8.336  -0.900  0.00  0.00    -0.012 A 
ATOM     24  C   UNL     1       3.826   9.639  -1.428  0.00  0.00    +0.036 A 
BRANCH  18  26
ATOM     25  C   UNL     1       3.717  12.787  -1.368  0.00  0.00    +0.253 C 
ATOM     26  O   UNL     1       3.545  12.042  -1.063  0.00  0.00    -0.468 OA
ENDBRANCH  18  26
BRANCH  21  27
ATOM     27  O   UNL     1       3.376   8.959   2.526  0.00  0.00    -0.468 OA
ATOM     28  C   UNL     1       4.157   8.254   3.433  0.00  0.00    +0.253 C 
ENDBRANCH  21  27
ENDBRANCH   1  23
BRANCH   6  29
ATOM     29  O   UNL     1       2.324   6.259  -3.356  0.00  0.00    -0.326 OA
BRANCH  29  30
ATOM     30  C   UNL     1       2.033   5.746  -4.745  0.00  0.00    +0.270 C 
ATOM     31  C   UNL     1       1.801   7.347  -5.341  0.00  0.00    +0.240 C 
ATOM     32  O   UNL     1       0.324   7.278  -5.117  0.00  0.00    -0.215 OA
ATOM     33  C   UNL     1       1.615   6.830  -6.950  0.00  0.00    +0.217 C 
ATOM     34  O   UNL     1       1.611   8.239  -7.453  0.00  0.00    -0.218 OA
ATOM     35  C   UNL     1       3.296   6.722  -7.158  0.00  0.00    +0.180 C 
ATOM     36  C   UNL     1       3.250   5.146  -6.496  0.00  0.00    +0.177 C 
ATOM     37  C   UNL     1       4.850   4.930  -6.766  0.00  0.00    +0.177 C 
ATOM     38  O   UNL     1       4.772   4.688  -8.118  0.00  0.00    -0.328 OA
ATOM     39  C   UNL     1       4.677   6.072  -8.767  0.00  0.00    +0.235 C 
ATOM     40  C   UNL     1       4.405   5.387 -10.257  0.00  0.00    +0.067 C 
ATOM     41  O   UNL     1       3.166   6.149  -8.528  0.00  0.00    -0.328 OA
ATOM     42  O   UNL     1       3.503   5.760  -5.152  0.00  0.00    -0.326 OA
ENDBRANCH  29  30
ENDBRANCH   6  29
TORSDOF 5
ENDMDL
MODEL 6
REMARK VINA RESULT:      -4.9      3.784      9.990
REMARK  Name = 
REMARK  5 active torsions:
REMARK  status: ('A' for Active; 'I' for Inactive)
REMARK    1  A    between atoms: O_2  and  C_3
REMARK    2  A    between atoms: C_5  and  C_6
REMARK    3  A    between atoms: C_13  and  O_14
REMARK    4  A    between atoms: O_14  and  C_15
REMARK    5  A    between atoms: C_38  and  O_39
REMARK                            x       y       z     vdW  Elec       q    Type
REMARK                         _______ _______ _______ _____ _____    ______ ____
ROOT
ATOM      1  C   UNL     1       2.218   6.199  -6.099  0.00  0.00    +0.055 C 
ATOM      2  C   UNL     1       2.738   4.992  -7.182  0.00  0.00    +0.113 C 
ATOM      3  C   UNL     1       1.175   4.512  -7.667  0.00  0.00    +0.086 C 
ATOM      4  C   UNL     1       2.048   3.718  -8.756  0.00  0.00    +0.212 C 
ATOM      5  O   UNL     1       2.470   2.891  -7.618  0.00  0.00    -0.448 OA
ATOM      6  C   UNL     1       0.735   5.968  -8.383  0.00  0.00    +0.144 C 
ATOM      7  C   UNL     1       0.064   6.309  -6.937  0.00  0.00    +0.004 A 
ATOM      8  C   UNL     1      -1.283   5.921  -6.876  0.00  0.00    +0.038 A 
ATOM      9  C   UNL     1      -1.906   5.920  -5.629  0.00  0.00    +0.176 A 
ATOM     10  O   UNL     1      -3.210   5.687  -5.224  0.00  0.00    -0.435 OA
ATOM     11  C   UNL     1      -3.176   5.181  -3.891  0.00  0.00    +0.429 C 
ATOM     12  O   UNL     1      -1.984   5.716  -3.419  0.00  0.00    -0.435 OA
ATOM     13  C   UNL     1      -1.173   6.138  -4.475  0.00  0.00    +0.176 A 
ATOM     14  C   UNL     1       0.198   6.189  -4.677  0.00  0.00    +0.036 A 
ATOM     15  C   UNL     1       2.579   3.636  -6.402  0.00  0.00    +0.317 C 
ATOM     16  O   UNL     1       1.659   3.350  -5.588  0.00  0.00    -0.250 OA
ATOM     17  C   UNL     1       0.732   5.665  -5.850  0.00  0.00    -0.016 A 
ENDROOT
BRANCH   1  23
ATOM     18  C   UNL     1       4.892   6.800  -3.880  0.00  0.00    +0.180 A 
ATOM     19  C   UNL     1       4.145   7.050  -2.726  0.00  0.00    +0.263 A 
ATOM     20  O   UNL     1       4.059   8.364  -2.244  0.00  0.00    -0.280 OA
ATOM     21  C   UNL     1       3.091   6.154  -2.558  0.00  0.00    +0.180 A 
ATOM     22  C   UNL     1       2.517   5.510  -3.643  0.00  0.00    +0.036 A 
ATOM     23  C   UNL     1       3.014   5.568  -4.863  0.00  0.00    -0.012 A 
ATOM     24  C   UNL     1       4.262   6.215  -4.984  0.00  0.00    +0.036 A 
BRANCH  18  26
ATOM     25  C   UNL     1       6.894   7.631  -4.039  0.00  0.00    +0.253 C 
ATOM     26  O   UNL     1       6.088   7.480  -3.957  0.00  0.00    -0.468 OA
ENDBRANCH  18  26
BRANCH  21  27
ATOM     27  O   UNL     1       2.163   6.401  -1.541  0.00  0.00    -0.468 OA
ATOM     28  C   UNL     1       1.171   5.509  -1.153  0.00  0.00    +0.253 C 
ENDBRANCH  21  27
ENDBRANCH   1  23
BRANCH   6  29
ATOM     29  O   UNL     1       2.022   6.729  -8.126  0.00  0.00    -0.326 OA
BRANCH  29  30
ATOM     30  C   UNL     1       2.267   7.353  -9.478  0.00  0.00    +0.270 C 
ATOM     31  C   UNL     1       3.345   6.083  -9.924  0.00  0.00    +0.240 C 
ATOM     32  O   UNL     1       4.539   6.856  -9.464  0.00  0.00    -0.215 OA
ATOM     33  C   UNL     1       3.537   6.664 -11.509  0.00  0.00    +0.217 C 
ATOM     34  O   UNL     1       4.309   5.447 -11.914  0.00  0.00    -0.218 OA
ATOM     35  C   UNL     1       2.078   5.945 -11.999  0.00  0.00    +0.180 C 
ATOM     36  C   UNL     1       1.241   7.327 -11.441  0.00  0.00    +0.177 C 
ATOM     37  C   UNL     1      -0.188   6.745 -11.985  0.00  0.00    +0.177 C 
ATOM     38  O   UNL     1      -0.002   7.026 -13.317  0.00  0.00    -0.328 OA
ATOM     39  C   UNL     1       0.863   5.880 -13.852  0.00  0.00    +0.235 C 
ATOM     40  C   UNL     1       1.026   6.648 -15.318  0.00  0.00    +0.067 C 
ATOM     41  O   UNL     1       2.154   6.542 -13.362  0.00  0.00    -0.328 OA
ATOM     42  O   UNL     1       1.085   6.635 -10.120  0.00  0.00    -0.326 OA
ENDBRANCH  29  30
ENDBRANCH   6  29
TORSDOF 5
ENDMDL
MODEL 7
REMARK VINA RESULT:      -4.5      4.865      9.846
REMARK  Name = 
REMARK  5 active torsions:
REMARK  status: ('A' for Active; 'I' for Inactive)
REMARK    1  A    between atoms: O_2  and  C_3
REMARK    2  A    between atoms: C_5  and  C_6
REMARK    3  A    between atoms: C_13  and  O_14
REMARK    4  A    between atoms: O_14  and  C_15
REMARK    5  A    between atoms: C_38  and  O_39
REMARK                            x       y       z     vdW  Elec       q    Type
REMARK                         _______ _______ _______ _____ _____    ______ ____
ROOT
ATOM      1  C   UNL     1       3.874   5.559  -9.193  0.00  0.00    +0.055 C 
ATOM      2  C   UNL     1       3.326   6.734  -8.088  0.00  0.00    +0.113 C 
ATOM      3  C   UNL     1       1.695   6.685  -8.582  0.00  0.00    +0.086 C 
ATOM      4  C   UNL     1       1.545   7.568  -7.249  0.00  0.00    +0.212 C 
ATOM      5  O   UNL     1       2.246   8.605  -8.017  0.00  0.00    -0.448 OA
ATOM      6  C   UNL     1       1.399   5.093  -8.130  0.00  0.00    +0.144 C 
ATOM      7  C   UNL     1       1.766   4.740  -9.679  0.00  0.00    +0.004 A 
ATOM      8  C   UNL     1       0.628   4.728 -10.501  0.00  0.00    +0.038 A 
ATOM      9  C   UNL     1       0.821   4.691 -11.881  0.00  0.00    +0.176 A 
ATOM     10  O   UNL     1      -0.049   4.584 -12.954  0.00  0.00    -0.435 OA
ATOM     11  C   UNL     1       0.552   5.225 -14.077  0.00  0.00    +0.429 C 
ATOM     12  O   UNL     1       1.903   5.113 -13.774  0.00  0.00    -0.435 OA
ATOM     13  C   UNL     1       2.089   4.825 -12.419  0.00  0.00    +0.176 A 
ATOM     14  C   UNL     1       3.066   5.149 -11.490  0.00  0.00    +0.036 A 
ATOM     15  C   UNL     1       3.218   8.066  -8.916  0.00  0.00    +0.317 C 
ATOM     16  O   UNL     1       2.857   8.166 -10.120  0.00  0.00    -0.250 OA
ATOM     17  C   UNL     1       2.687   5.668 -10.257  0.00  0.00    -0.016 A 
ENDROOT
BRANCH   1  23
ATOM     18  C   UNL     1       7.241   5.674 -10.234  0.00  0.00    +0.180 A 
ATOM     19  C   UNL     1       7.025   5.720 -11.614  0.00  0.00    +0.263 A 
ATOM     20  O   UNL     1       7.310   4.584 -12.384  0.00  0.00    -0.280 OA
ATOM     21  C   UNL     1       5.997   6.591 -11.972  0.00  0.00    +0.180 A 
ATOM     22  C   UNL     1       4.975   6.897 -11.088  0.00  0.00    +0.036 A 
ATOM     23  C   UNL     1       4.981   6.529  -9.822  0.00  0.00    -0.012 A 
ATOM     24  C   UNL     1       6.168   5.917  -9.369  0.00  0.00    +0.036 A 
BRANCH  18  26
ATOM     25  C   UNL     1       8.990   4.713  -9.372  0.00  0.00    +0.253 C 
ATOM     26  O   UNL     1       8.403   5.040  -9.848  0.00  0.00    -0.468 OA
ENDBRANCH  18  26
BRANCH  21  27
ATOM     27  O   UNL     1       5.563   6.597 -13.302  0.00  0.00    -0.468 OA
ATOM     28  C   UNL     1       6.280   7.146 -14.357  0.00  0.00    +0.253 C 
ENDBRANCH  21  27
ENDBRANCH   1  23
BRANCH   6  29
ATOM     29  O   UNL     1       2.776   4.769  -7.581  0.00  0.00    -0.326 OA
BRANCH  29  30
ATOM     30  C   UNL     1       2.427   4.243  -6.210  0.00  0.00    +0.270 C 
ATOM     31  C   UNL     1       3.498   5.363  -5.454  0.00  0.00    +0.240 C 
ATOM     32  O   UNL     1       4.616   4.371  -5.437  0.00  0.00    -0.215 OA
ATOM     33  C   UNL     1       3.027   4.910  -3.885  0.00  0.00    +0.217 C 
ATOM     34  O   UNL     1       3.821   6.022  -3.273  0.00  0.00    -0.218 OA
ATOM     35  C   UNL     1       1.646   5.894  -3.965  0.00  0.00    +0.180 C 
ATOM     36  C   UNL     1       0.814   4.616  -4.738  0.00  0.00    +0.177 C 
ATOM     37  C   UNL     1      -0.584   5.466  -4.753  0.00  0.00    +0.177 C 
ATOM     38  O   UNL     1      -0.919   5.284  -3.432  0.00  0.00    -0.328 OA
ATOM     39  C   UNL     1      -0.097   6.324  -2.664  0.00  0.00    +0.235 C 
ATOM     40  C   UNL     1      -0.587   5.681  -1.211  0.00  0.00    +0.067 C 
ATOM     41  O   UNL     1       1.141   5.423  -2.645  0.00  0.00    -0.328 OA
ATOM     42  O   UNL     1       1.247   5.197  -6.050  0.00  0.00    -0.326 OA
ENDBRANCH  29  30
ENDBRANCH   6  29
TORSDOF 5
ENDMDL
MODEL 8
REMARK VINA RESULT:      -3.6      4.133      9.145
REMARK  Name = 
REMARK  5 active torsions:
REMARK  status: ('A' for Active; 'I' for Inactive)
REMARK    1  A    between atoms: O_2  and  C_3
REMARK    2  A    between atoms: C_5  and  C_6
REMARK    3  A    between atoms: C_13  and  O_14
REMARK    4  A    between atoms: O_14  and  C_15
REMARK    5  A    between atoms: C_38  and  O_39
REMARK                            x       y       z     vdW  Elec       q    Type
REMARK                         _______ _______ _______ _____ _____    ______ ____
ROOT
ATOM      1  C   UNL     1       0.681   5.492  -6.244  0.00  0.00    +0.055 C 
ATOM      2  C   UNL     1       1.173   6.639  -7.403  0.00  0.00    +0.113 C 
ATOM      3  C   UNL     1       2.795   6.723  -6.884  0.00  0.00    +0.086 C 
ATOM      4  C   UNL     1       2.913   7.541  -8.260  0.00  0.00    +0.212 C 
ATOM      5  O   UNL     1       2.132   8.570  -7.561  0.00  0.00    -0.448 OA
ATOM      6  C   UNL     1       3.200   5.131  -7.243  0.00  0.00    +0.144 C 
ATOM      7  C   UNL     1       2.828   4.839  -5.683  0.00  0.00    +0.004 A 
ATOM      8  C   UNL     1       3.950   4.945  -4.845  0.00  0.00    +0.038 A 
ATOM      9  C   UNL     1       3.735   4.969  -3.468  0.00  0.00    +0.176 A 
ATOM     10  O   UNL     1       4.590   4.977  -2.378  0.00  0.00    -0.435 OA
ATOM     11  C   UNL     1       3.930   5.637  -1.301  0.00  0.00    +0.429 C 
ATOM     12  O   UNL     1       2.593   5.422  -1.617  0.00  0.00    -0.435 OA
ATOM     13  C   UNL     1       2.451   5.050  -2.956  0.00  0.00    +0.176 A 
ATOM     14  C   UNL     1       1.472   5.259  -3.916  0.00  0.00    +0.036 A 
ATOM     15  C   UNL     1       1.181   8.018  -6.648  0.00  0.00    +0.317 C 
ATOM     16  O   UNL     1       1.513   8.205  -5.446  0.00  0.00    -0.250 OA
ATOM     17  C   UNL     1       1.840   5.734  -5.170  0.00  0.00    -0.016 A 
ENDROOT
BRANCH   1  23
ATOM     18  C   UNL     1      -2.672   5.423  -5.155  0.00  0.00    +0.180 A 
ATOM     19  C   UNL     1      -2.445   5.613  -3.789  0.00  0.00    +0.263 A 
ATOM     20  O   UNL     1      -2.624   4.534  -2.913  0.00  0.00    -0.280 OA
ATOM     21  C   UNL     1      -1.491   6.596  -3.531  0.00  0.00    +0.180 A 
ATOM     22  C   UNL     1      -0.508   6.903  -4.458  0.00  0.00    +0.036 A 
ATOM     23  C   UNL     1      -0.496   6.420  -5.685  0.00  0.00    -0.012 A 
ATOM     24  C   UNL     1      -1.633   5.673  -6.058  0.00  0.00    +0.036 A 
BRANCH  18  26
ATOM     25  C   UNL     1      -4.334   4.232  -5.891  0.00  0.00    +0.253 C 
ATOM     26  O   UNL     1      -3.780   4.662  -5.459  0.00  0.00    -0.468 OA
ENDBRANCH  18  26
BRANCH  21  27
ATOM     27  O   UNL     1      -1.044   6.761  -2.215  0.00  0.00    -0.468 OA
ATOM     28  C   UNL     1      -1.725   7.479  -1.241  0.00  0.00    +0.253 C 
ENDBRANCH  21  27
ENDBRANCH   1  23
BRANCH   6  29
ATOM     29  O   UNL     1       1.857   4.690  -7.794  0.00  0.00    -0.326 OA
BRANCH  29  30
ATOM     30  C   UNL     1       2.250   4.204  -9.168  0.00  0.00    +0.270 C 
ATOM     31  C   UNL     1       1.200   5.343  -9.925  0.00  0.00    +0.240 C 
ATOM     32  O   UNL     1       0.086   4.349 -10.005  0.00  0.00    -0.215 OA
ATOM     33  C   UNL     1       1.721   4.935 -11.491  0.00  0.00    +0.217 C 
ATOM     34  O   UNL     1       0.944   6.062 -12.095  0.00  0.00    -0.218 OA
ATOM     35  C   UNL     1       3.097   5.919 -11.339  0.00  0.00    +0.180 C 
ATOM     36  C   UNL     1       3.907   4.621 -10.577  0.00  0.00    +0.177 C 
ATOM     37  C   UNL     1       5.302   5.473 -10.494  0.00  0.00    +0.177 C 
ATOM     38  O   UNL     1       5.679   5.329 -11.809  0.00  0.00    -0.328 OA
ATOM     39  C   UNL     1       4.879   6.389 -12.572  0.00  0.00    +0.235 C 
ATOM     40  C   UNL     1       5.416   5.789 -14.027  0.00  0.00    +0.067 C 
ATOM     41  O   UNL     1       3.644   5.486 -12.656  0.00  0.00    -0.328 OA
ATOM     42  O   UNL     1       3.432   5.163  -9.263  0.00  0.00    -0.326 OA
ENDBRANCH  29  30
ENDBRANCH   6  29
TORSDOF 5
ENDMDL
MODEL 9
REMARK VINA RESULT:      -3.5      6.861     12.145
REMARK  Name = 
REMARK  5 active torsions:
REMARK  status: ('A' for Active; 'I' for Inactive)
REMARK    1  A    between atoms: O_2  and  C_3
REMARK    2  A    between atoms: C_5  and  C_6
REMARK    3  A    between atoms: C_13  and  O_14
REMARK    4  A    between atoms: O_14  and  C_15
REMARK    5  A    between atoms: C_38  and  O_39
REMARK                            x       y       z     vdW  Elec       q    Type
REMARK                         _______ _______ _______ _____ _____    ______ ____
ROOT
ATOM      1  C   UNL     1       1.801   7.048 -13.085  0.00  0.00    +0.055 C 
ATOM      2  C   UNL     1       0.718   5.769 -12.785  0.00  0.00    +0.113 C 
ATOM      3  C   UNL     1       1.912   4.635 -12.340  0.00  0.00    +0.086 C 
ATOM      4  C   UNL     1       0.597   3.826 -11.898  0.00  0.00    +0.212 C 
ATOM      5  O   UNL     1       0.343   3.714 -13.340  0.00  0.00    -0.448 OA
ATOM      6  C   UNL     1       2.452   5.445 -10.970  0.00  0.00    +0.144 C 
ATOM      7  C   UNL     1       3.578   6.076 -11.966  0.00  0.00    +0.004 A 
ATOM      8  C   UNL     1       4.753   5.309 -11.988  0.00  0.00    +0.038 A 
ATOM      9  C   UNL     1       5.695   5.587 -12.977  0.00  0.00    +0.176 A 
ATOM     10  O   UNL     1       6.967   5.102 -13.234  0.00  0.00    -0.435 OA
ATOM     11  C   UNL     1       7.207   5.208 -14.635  0.00  0.00    +0.429 C 
ATOM     12  O   UNL     1       6.366   6.258 -14.985  0.00  0.00    -0.435 OA
ATOM     13  C   UNL     1       5.405   6.479 -13.996  0.00  0.00    +0.176 A 
ATOM     14  C   UNL     1       4.087   6.910 -14.011  0.00  0.00    +0.036 A 
ATOM     15  C   UNL     1       0.774   4.865 -14.070  0.00  0.00    +0.317 C 
ATOM     16  O   UNL     1       1.798   4.628 -14.768  0.00  0.00    -0.250 OA
ATOM     17  C   UNL     1       3.125   6.183 -13.317  0.00  0.00    -0.016 A 
ENDROOT
BRANCH   1  23
ATOM     18  C   UNL     1       0.999   9.548 -15.439  0.00  0.00    +0.180 A 
ATOM     19  C   UNL     1       2.088   9.376 -16.297  0.00  0.00    +0.263 A 
ATOM     20  O   UNL     1       3.103  10.342 -16.309  0.00  0.00    -0.280 OA
ATOM     21  C   UNL     1       2.371   8.034 -16.549  0.00  0.00    +0.180 A 
ATOM     22  C   UNL     1       2.024   7.045 -15.643  0.00  0.00    +0.036 A 
ATOM     23  C   UNL     1       1.277   7.269 -14.580  0.00  0.00    -0.012 A 
ATOM     24  C   UNL     1       0.721   8.562 -14.486  0.00  0.00    +0.036 A 
BRANCH  18  26
ATOM     25  C   UNL     1       0.160  11.548 -15.579  0.00  0.00    +0.253 C 
ATOM     26  O   UNL     1       0.515  10.837 -15.365  0.00  0.00    -0.468 OA
ENDBRANCH  18  26
BRANCH  21  27
ATOM     27  O   UNL     1       3.541   7.721 -17.249  0.00  0.00    -0.468 OA
ATOM     28  C   UNL     1       3.741   7.983 -18.598  0.00  0.00    +0.253 C 
ENDBRANCH  21  27
ENDBRANCH   1  23
BRANCH   6  29
ATOM     29  O   UNL     1       1.514   6.635 -11.042  0.00  0.00    -0.326 OA
BRANCH  29  30
ATOM     30  C   UNL     1       1.432   7.030  -9.587  0.00  0.00    +0.270 C 
ATOM     31  C   UNL     1       0.301   5.771  -9.259  0.00  0.00    +0.240 C 
ATOM     32  O   UNL     1      -0.864   6.684  -9.467  0.00  0.00    -0.215 OA
ATOM     33  C   UNL     1       0.288   6.081  -7.588  0.00  0.00    +0.217 C 
ATOM     34  O   UNL     1      -0.539   4.863  -7.319  0.00  0.00    -0.218 OA
ATOM     35  C   UNL     1       1.722   5.199  -7.366  0.00  0.00    +0.180 C 
ATOM     36  C   UNL     1       2.614   6.603  -7.764  0.00  0.00    +0.177 C 
ATOM     37  C   UNL     1       4.034   5.848  -7.463  0.00  0.00    +0.177 C 
ATOM     38  O   UNL     1       3.982   5.906  -6.091  0.00  0.00    -0.328 OA
ATOM     39  C   UNL     1       3.080   4.741  -5.674  0.00  0.00    +0.235 C 
ATOM     40  C   UNL     1       3.100   5.252  -4.093  0.00  0.00    +0.067 C 
ATOM     41  O   UNL     1       1.807   5.556  -5.922  0.00  0.00    -0.328 OA
ATOM     42  O   UNL     1       2.605   6.141  -9.190  0.00  0.00    -0.326 OA
ENDBRANCH  29  30
ENDBRANCH   6  29
TORSDOF 5
ENDMDL
