MODEL 1
REMARK VINA RESULT:      -7.8      0.000      0.000
REMARK  Name = 
REMARK  0 active torsions:
REMARK  status: ('A' for Active; 'I' for Inactive)
REMARK                            x       y       z     vdW  Elec       q    Type
REMARK                         _______ _______ _______ _____ _____    ______ ____
ROOT
ATOM      1  C   UNL     1       2.091   6.251 -10.116  0.00  0.00    +0.090 C 
ATOM      2  N   UNL     1       1.250   6.352  -8.892  0.00  0.00    -0.272 NA
ATOM      3  C   UNL     1       1.538   4.922  -8.298  0.00  0.00    +0.062 C 
ATOM      4  C   UNL     1       2.495   5.402  -6.954  0.00  0.00    +0.023 C 
ATOM      5  C   UNL     1       1.443   6.156  -6.087  0.00  0.00    +0.068 C 
ATOM      6  C   UNL     1       2.250   6.808  -4.836  0.00  0.00    +0.226 C 
ATOM      7  O   UNL     1       0.981   6.882  -3.943  0.00  0.00    -0.469 OA
ATOM      8  C   UNL     1      -0.107   6.755  -4.780  0.00  0.00    +0.173 A 
ATOM      9  C   UNL     1      -1.458   7.133  -4.736  0.00  0.00    +0.229 A 
ATOM     10  C   UNL     1      -2.324   6.610  -5.704  0.00  0.00    +0.045 A 
ATOM     11  C   UNL     1      -1.891   5.644  -6.618  0.00  0.00    -0.001 A 
ATOM     12  C   UNL     1      -0.521   5.446  -6.750  0.00  0.00    -0.022 A 
ATOM     13  O   UNL     1      -1.676   8.459  -4.289  0.00  0.00    -0.283 OA
ATOM     14  C   UNL     1       2.723   5.398  -4.173  0.00  0.00    +0.191 C 
ATOM     15  O   UNL     1       3.589   5.743  -3.353  0.00  0.00    -0.292 OA
ATOM     16  C   UNL     1       3.159   4.315  -5.013  0.00  0.00    +0.068 C 
ATOM     17  C   UNL     1       0.266   5.691  -5.621  0.00  0.00    +0.014 A 
ATOM     18  C   UNL     1       1.299   7.467  -6.838  0.00  0.00    +0.025 C 
ATOM     19  C   UNL     1       2.312   3.960  -6.203  0.00  0.00    +0.010 C 
ATOM     20  C   UNL     1       0.087   4.713  -7.656  0.00  0.00    +0.042 C 
ATOM     21  C   UNL     1       1.778   7.364  -8.196  0.00  0.00    +0.073 C 
ENDROOT
TORSDOF 0
ENDMDL
MODEL 2
REMARK VINA RESULT:      -7.6      3.692      6.192
REMARK  Name = 
REMARK  0 active torsions:
REMARK  status: ('A' for Active; 'I' for Inactive)
REMARK                            x       y       z     vdW  Elec       q    Type
REMARK                         _______ _______ _______ _____ _____    ______ ____
ROOT
ATOM      1  C   UNL     1       1.191   6.742  -5.700  0.00  0.00    +0.090 C 
ATOM      2  N   UNL     1       2.207   6.546  -6.770  0.00  0.00    -0.272 NA
ATOM      3  C   UNL     1       1.708   5.151  -7.305  0.00  0.00    +0.062 C 
ATOM      4  C   UNL     1       1.087   5.674  -8.820  0.00  0.00    +0.023 C 
ATOM      5  C   UNL     1       2.393   6.108  -9.548  0.00  0.00    +0.068 C 
ATOM      6  C   UNL     1       1.940   6.779 -10.958  0.00  0.00    +0.226 C 
ATOM      7  O   UNL     1       3.313   6.504 -11.631  0.00  0.00    -0.469 OA
ATOM      8  C   UNL     1       4.212   6.246 -10.618  0.00  0.00    +0.173 A 
ATOM      9  C   UNL     1       5.604   6.337 -10.462  0.00  0.00    +0.229 A 
ATOM     10  C   UNL     1       6.184   5.751  -9.330  0.00  0.00    +0.045 A 
ATOM     11  C   UNL     1       5.422   4.990  -8.436  0.00  0.00    -0.001 A 
ATOM     12  C   UNL     1       4.038   5.087  -8.521  0.00  0.00    -0.022 A 
ATOM     13  O   UNL     1       6.167   7.538 -10.956  0.00  0.00    -0.283 OA
ATOM     14  C   UNL     1       1.279   5.434 -11.593  0.00  0.00    +0.191 C 
ATOM     15  O   UNL     1       0.638   5.861 -12.567  0.00  0.00    -0.292 OA
ATOM     16  C   UNL     1       0.500   4.552 -10.765  0.00  0.00    +0.068 C 
ATOM     17  C   UNL     1       3.499   5.370  -9.780  0.00  0.00    +0.014 A 
ATOM     18  C   UNL     1       2.704   7.433  -8.875  0.00  0.00    +0.025 C 
ATOM     19  C   UNL     1       1.064   4.157  -9.429  0.00  0.00    +0.010 C 
ATOM     20  C   UNL     1       3.159   4.589  -7.681  0.00  0.00    +0.042 C 
ATOM     21  C   UNL     1       2.018   7.567  -7.612  0.00  0.00    +0.073 C 
ENDROOT
TORSDOF 0
ENDMDL
MODEL 3
REMARK VINA RESULT:      -7.6      1.588      4.193
REMARK  Name = 
REMARK  0 active torsions:
REMARK  status: ('A' for Active; 'I' for Inactive)
REMARK                            x       y       z     vdW  Elec       q    Type
REMARK                         _______ _______ _______ _____ _____    ______ ____
ROOT
ATOM      1  C   UNL     1       2.133   4.450  -8.844  0.00  0.00    +0.090 C 
ATOM      2  N   UNL     1       2.549   4.951  -7.506  0.00  0.00    -0.272 NA
ATOM      3  C   UNL     1       1.668   6.256  -7.468  0.00  0.00    +0.062 C 
ATOM      4  C   UNL     1       0.542   5.760  -6.269  0.00  0.00    +0.023 C 
ATOM      5  C   UNL     1       1.456   5.676  -5.011  0.00  0.00    +0.068 C 
ATOM      6  C   UNL     1       0.546   5.061  -3.813  0.00  0.00    +0.226 C 
ATOM      7  O   UNL     1       1.439   5.676  -2.700  0.00  0.00    -0.469 OA
ATOM      8  C   UNL     1       2.637   6.019  -3.291  0.00  0.00    +0.173 A 
ATOM      9  C   UNL     1       3.957   6.203  -2.852  0.00  0.00    +0.229 A 
ATOM     10  C   UNL     1       4.874   6.787  -3.735  0.00  0.00    +0.045 A 
ATOM     11  C   UNL     1       4.467   7.287  -4.976  0.00  0.00    -0.001 A 
ATOM     12  C   UNL     1       3.212   6.914  -5.444  0.00  0.00    -0.022 A 
ATOM     13  O   UNL     1       4.424   5.196  -1.973  0.00  0.00    -0.283 OA
ATOM     14  C   UNL     1      -0.515   6.294  -3.743  0.00  0.00    +0.191 C 
ATOM     15  O   UNL     1      -1.442   5.837  -3.053  0.00  0.00    -0.292 OA
ATOM     16  C   UNL     1      -0.983   6.914  -4.954  0.00  0.00    +0.068 C 
ATOM     17  C   UNL     1       2.232   6.645  -4.483  0.00  0.00    +0.014 A 
ATOM     18  C   UNL     1       2.218   4.388  -5.262  0.00  0.00    +0.025 C 
ATOM     19  C   UNL     1       0.035   7.291  -5.993  0.00  0.00    +0.010 C 
ATOM     20  C   UNL     1       2.716   7.139  -6.640  0.00  0.00    +0.042 C 
ATOM     21  C   UNL     1       2.169   3.996  -6.650  0.00  0.00    +0.073 C 
ENDROOT
TORSDOF 0
ENDMDL
MODEL 4
REMARK VINA RESULT:      -7.4      2.409      3.974
REMARK  Name = 
REMARK  0 active torsions:
REMARK  status: ('A' for Active; 'I' for Inactive)
REMARK                            x       y       z     vdW  Elec       q    Type
REMARK                         _______ _______ _______ _____ _____    ______ ____
ROOT
ATOM      1  C   UNL     1       4.303   4.633  -4.427  0.00  0.00    +0.090 C 
ATOM      2  N   UNL     1       2.912   5.024  -4.783  0.00  0.00    -0.272 NA
ATOM      3  C   UNL     1       3.236   6.385  -5.507  0.00  0.00    +0.062 C 
ATOM      4  C   UNL     1       2.873   5.902  -7.115  0.00  0.00    +0.023 C 
ATOM      5  C   UNL     1       1.335   5.679  -7.025  0.00  0.00    +0.068 C 
ATOM      6  C   UNL     1       0.868   5.062  -8.455  0.00  0.00    +0.226 C 
ATOM      7  O   UNL     1      -0.599   5.546  -8.283  0.00  0.00    -0.469 OA
ATOM      8  C   UNL     1      -0.772   5.835  -6.946  0.00  0.00    +0.173 A 
ATOM      9  C   UNL     1      -1.863   5.899  -6.065  0.00  0.00    +0.229 A 
ATOM     10  C   UNL     1      -1.662   6.466  -4.801  0.00  0.00    +0.045 A 
ATOM     11  C   UNL     1      -0.444   7.065  -4.461  0.00  0.00    -0.001 A 
ATOM     12  C   UNL     1       0.652   6.811  -5.277  0.00  0.00    -0.022 A 
ATOM     13  O   UNL     1      -2.763   4.811  -6.175  0.00  0.00    -0.283 OA
ATOM     14  C   UNL     1       1.268   6.362  -9.350  0.00  0.00    +0.191 C 
ATOM     15  O   UNL     1       1.223   5.933 -10.515  0.00  0.00    -0.292 OA
ATOM     16  C   UNL     1       2.481   7.084  -9.074  0.00  0.00    +0.068 C 
ATOM     17  C   UNL     1       0.391   6.557  -6.627  0.00  0.00    +0.014 A 
ATOM     18  C   UNL     1       1.252   4.356  -6.286  0.00  0.00    +0.025 C 
ATOM     19  C   UNL     1       2.778   7.446  -7.646  0.00  0.00    +0.010 C 
ATOM     20  C   UNL     1       1.903   7.140  -5.044  0.00  0.00    +0.042 C 
ATOM     21  C   UNL     1       2.479   4.051  -5.591  0.00  0.00    +0.073 C 
ENDROOT
TORSDOF 0
ENDMDL
MODEL 5
REMARK VINA RESULT:      -7.1      2.351      4.377
REMARK  Name = 
REMARK  0 active torsions:
REMARK  status: ('A' for Active; 'I' for Inactive)
REMARK                            x       y       z     vdW  Elec       q    Type
REMARK                         _______ _______ _______ _____ _____    ______ ____
ROOT
ATOM      1  C   UNL     1      -1.587   5.598  -5.589  0.00  0.00    +0.090 C 
ATOM      2  N   UNL     1      -0.236   5.742  -6.196  0.00  0.00    -0.272 NA
ATOM      3  C   UNL     1       0.325   6.862  -5.242  0.00  0.00    +0.062 C 
ATOM      4  C   UNL     1       1.469   5.908  -4.386  0.00  0.00    +0.023 C 
ATOM      5  C   UNL     1       2.494   5.581  -5.512  0.00  0.00    +0.068 C 
ATOM      6  C   UNL     1       3.569   4.540  -4.877  0.00  0.00    +0.226 C 
ATOM      7  O   UNL     1       4.672   4.916  -5.905  0.00  0.00    -0.469 OA
ATOM      8  C   UNL     1       4.044   5.559  -6.951  0.00  0.00    +0.173 A 
ATOM      9  C   UNL     1       4.319   5.772  -8.310  0.00  0.00    +0.229 A 
ATOM     10  C   UNL     1       3.530   6.693  -9.010  0.00  0.00    +0.045 A 
ATOM     11  C   UNL     1       2.572   7.474  -8.353  0.00  0.00    -0.001 A 
ATOM     12  C   UNL     1       2.204   7.098  -7.066  0.00  0.00    -0.022 A 
ATOM     13  O   UNL     1       4.772   4.620  -8.999  0.00  0.00    -0.283 OA
ATOM     14  C   UNL     1       4.165   5.560  -3.757  0.00  0.00    +0.191 C 
ATOM     15  O   UNL     1       4.812   4.814  -3.003  0.00  0.00    -0.292 OA
ATOM     16  C   UNL     1       3.282   6.438  -3.037  0.00  0.00    +0.068 C 
ATOM     17  C   UNL     1       3.171   6.446  -6.295  0.00  0.00    +0.014 A 
ATOM     18  C   UNL     1       1.755   4.523  -6.311  0.00  0.00    +0.025 C 
ATOM     19  C   UNL     1       2.268   7.220  -3.824  0.00  0.00    +0.010 C 
ATOM     20  C   UNL     1       1.218   7.593  -6.351  0.00  0.00    +0.042 C 
ATOM     21  C   UNL     1       0.336   4.543  -6.047  0.00  0.00    +0.073 C 
ENDROOT
TORSDOF 0
ENDMDL
MODEL 6
REMARK VINA RESULT:      -6.8      3.289      5.804
REMARK  Name = 
REMARK  0 active torsions:
REMARK  status: ('A' for Active; 'I' for Inactive)
REMARK                            x       y       z     vdW  Elec       q    Type
REMARK                         _______ _______ _______ _____ _____    ______ ____
ROOT
ATOM      1  C   UNL     1       4.829   7.579   0.223  0.00  0.00    +0.090 C 
ATOM      2  N   UNL     1       4.509   7.093  -1.147  0.00  0.00    -0.272 NA
ATOM      3  C   UNL     1       3.793   5.748  -0.750  0.00  0.00    +0.062 C 
ATOM      4  C   UNL     1       2.188   6.186  -1.180  0.00  0.00    +0.023 C 
ATOM      5  C   UNL     1       2.312   6.308  -2.727  0.00  0.00    +0.068 C 
ATOM      6  C   UNL     1       0.886   6.875  -3.265  0.00  0.00    +0.226 C 
ATOM      7  O   UNL     1       1.096   6.299  -4.693  0.00  0.00    -0.469 OA
ATOM      8  C   UNL     1       2.440   6.015  -4.817  0.00  0.00    +0.173 A 
ATOM      9  C   UNL     1       3.347   5.891  -5.881  0.00  0.00    +0.229 A 
ATOM     10  C   UNL     1       4.612   5.354  -5.615  0.00  0.00    +0.045 A 
ATOM     11  C   UNL     1       4.931   4.840  -4.353  0.00  0.00    -0.001 A 
ATOM     12  C   UNL     1       4.087   5.155  -3.294  0.00  0.00    -0.022 A 
ATOM     13  O   UNL     1       3.246   6.916  -6.853  0.00  0.00    -0.283 OA
ATOM     14  C   UNL     1      -0.004   5.593  -2.801  0.00  0.00    +0.191 C 
ATOM     15  O   UNL     1      -1.172   6.004  -2.899  0.00  0.00    -0.292 OA
ATOM     16  C   UNL     1       0.252   4.957  -1.536  0.00  0.00    +0.068 C 
ATOM     17  C   UNL     1       2.740   5.375  -3.602  0.00  0.00    +0.014 A 
ATOM     18  C   UNL     1       3.037   7.632  -2.881  0.00  0.00    +0.025 C 
ATOM     19  C   UNL     1       1.677   4.632  -1.184  0.00  0.00    +0.010 C 
ATOM     20  C   UNL     1       4.294   4.912  -2.020  0.00  0.00    +0.042 C 
ATOM     21  C   UNL     1       3.701   8.026  -1.661  0.00  0.00    +0.073 C 
ENDROOT
TORSDOF 0
ENDMDL
MODEL 7
REMARK VINA RESULT:      -6.8      3.061      5.073
REMARK  Name = 
REMARK  0 active torsions:
REMARK  status: ('A' for Active; 'I' for Inactive)
REMARK                            x       y       z     vdW  Elec       q    Type
REMARK                         _______ _______ _______ _____ _____    ______ ____
ROOT
ATOM      1  C   UNL     1       6.076   5.356  -9.372  0.00  0.00    +0.090 C 
ATOM      2  N   UNL     1       4.693   5.569  -8.865  0.00  0.00    -0.272 NA
ATOM      3  C   UNL     1       4.210   6.606  -9.947  0.00  0.00    +0.062 C 
ATOM      4  C   UNL     1       3.104   5.593 -10.785  0.00  0.00    +0.023 C 
ATOM      5  C   UNL     1       2.008   5.380  -9.700  0.00  0.00    +0.068 C 
ATOM      6  C   UNL     1       0.955   4.300 -10.307  0.00  0.00    +0.226 C 
ATOM      7  O   UNL     1      -0.202   4.778  -9.387  0.00  0.00    -0.469 OA
ATOM      8  C   UNL     1       0.373   5.504  -8.365  0.00  0.00    +0.173 A 
ATOM      9  C   UNL     1       0.019   5.841  -7.049  0.00  0.00    +0.229 A 
ATOM     10  C   UNL     1       0.780   6.811  -6.386  0.00  0.00    +0.045 A 
ATOM     11  C   UNL     1       1.789   7.519  -7.048  0.00  0.00    -0.001 A 
ATOM     12  C   UNL     1       2.229   7.026  -8.271  0.00  0.00    -0.022 A 
ATOM     13  O   UNL     1      -0.495   4.761  -6.291  0.00  0.00    -0.283 OA
ATOM     14  C   UNL     1       0.446   5.223 -11.548  0.00  0.00    +0.191 C 
ATOM     15  O   UNL     1      -0.166   4.420 -12.271  0.00  0.00    -0.292 OA
ATOM     16  C   UNL     1       1.386   6.022 -12.286  0.00  0.00    +0.068 C 
ATOM     17  C   UNL     1       1.299   6.319  -9.040  0.00  0.00    +0.014 A 
ATOM     18  C   UNL     1       2.678   4.388  -8.767  0.00  0.00    +0.025 C 
ATOM     19  C   UNL     1       2.364   6.859 -11.510  0.00  0.00    +0.010 C 
ATOM     20  C   UNL     1       3.264   7.444  -8.964  0.00  0.00    +0.042 C 
ATOM     21  C   UNL     1       4.111   4.368  -8.943  0.00  0.00    +0.073 C 
ENDROOT
TORSDOF 0
ENDMDL
MODEL 8
REMARK VINA RESULT:      -6.8      3.661      5.845
REMARK  Name = 
REMARK  0 active torsions:
REMARK  status: ('A' for Active; 'I' for Inactive)
REMARK                            x       y       z     vdW  Elec       q    Type
REMARK                         _______ _______ _______ _____ _____    ______ ____
ROOT
ATOM      1  C   UNL     1       5.073   4.681  -4.494  0.00  0.00    +0.090 C 
ATOM      2  N   UNL     1       4.536   5.495  -3.370  0.00  0.00    -0.272 NA
ATOM      3  C   UNL     1       3.366   6.210  -4.146  0.00  0.00    +0.062 C 
ATOM      4  C   UNL     1       2.045   5.402  -3.401  0.00  0.00    +0.023 C 
ATOM      5  C   UNL     1       2.147   5.937  -1.942  0.00  0.00    +0.068 C 
ATOM      6  C   UNL     1       1.038   5.128  -1.071  0.00  0.00    +0.226 C 
ATOM      7  O   UNL     1       0.950   6.240   0.012  0.00  0.00    -0.469 OA
ATOM      8  C   UNL     1       2.069   7.032  -0.135  0.00  0.00    +0.173 A 
ATOM      9  C   UNL     1       2.812   7.884   0.696  0.00  0.00    +0.229 A 
ATOM     10  C   UNL     1       3.775   8.711   0.106  0.00  0.00    +0.045 A 
ATOM     11  C   UNL     1       3.916   8.782  -1.285  0.00  0.00    -0.001 A 
ATOM     12  C   UNL     1       3.305   7.794  -2.048  0.00  0.00    -0.022 A 
ATOM     13  O   UNL     1       3.083   7.353   1.980  0.00  0.00    -0.283 OA
ATOM     14  C   UNL     1      -0.265   5.698  -1.864  0.00  0.00    +0.191 C 
ATOM     15  O   UNL     1      -1.181   4.950  -1.487  0.00  0.00    -0.292 OA
ATOM     16  C   UNL     1      -0.230   5.848  -3.295  0.00  0.00    +0.068 C 
ATOM     17  C   UNL     1       2.141   7.220  -1.526  0.00  0.00    +0.014 A 
ATOM     18  C   UNL     1       3.326   5.151  -1.400  0.00  0.00    +0.025 C 
ATOM     19  C   UNL     1       0.966   6.522  -3.905  0.00  0.00    +0.010 C 
ATOM     20  C   UNL     1       3.450   7.590  -3.338  0.00  0.00    +0.042 C 
ATOM     21  C   UNL     1       4.138   4.601  -2.460  0.00  0.00    +0.073 C 
ENDROOT
TORSDOF 0
ENDMDL
MODEL 9
REMARK VINA RESULT:      -6.5      2.474      4.375
REMARK  Name = 
REMARK  0 active torsions:
REMARK  status: ('A' for Active; 'I' for Inactive)
REMARK                            x       y       z     vdW  Elec       q    Type
REMARK                         _______ _______ _______ _____ _____    ______ ____
ROOT
ATOM      1  C   UNL     1      -1.338   6.192  -6.059  0.00  0.00    +0.090 C 
ATOM      2  N   UNL     1       0.091   6.207  -5.646  0.00  0.00    -0.272 NA
ATOM      3  C   UNL     1       0.464   4.734  -6.064  0.00  0.00    +0.062 C 
ATOM      4  C   UNL     1       1.470   5.106  -7.406  0.00  0.00    +0.023 C 
ATOM      5  C   UNL     1       2.673   5.799  -6.701  0.00  0.00    +0.068 C 
ATOM      6  C   UNL     1       3.649   6.350  -7.878  0.00  0.00    +0.226 C 
ATOM      7  O   UNL     1       4.899   6.365  -6.955  0.00  0.00    -0.469 OA
ATOM      8  C   UNL     1       4.439   6.308  -5.656  0.00  0.00    +0.173 A 
ATOM      9  C   UNL     1       4.931   6.690  -4.399  0.00  0.00    +0.229 A 
ATOM     10  C   UNL     1       4.251   6.246  -3.258  0.00  0.00    +0.045 A 
ATOM     11  C   UNL     1       3.182   5.348  -3.355  0.00  0.00    -0.001 A 
ATOM     12  C   UNL     1       2.613   5.153  -4.608  0.00  0.00    -0.022 A 
ATOM     13  O   UNL     1       5.515   7.979  -4.370  0.00  0.00    -0.283 OA
ATOM     14  C   UNL     1       4.031   4.892  -8.493  0.00  0.00    +0.191 C 
ATOM     15  O   UNL     1       4.559   5.169  -9.582  0.00  0.00    -0.292 OA
ATOM     16  C   UNL     1       3.023   3.872  -8.612  0.00  0.00    +0.068 C 
ATOM     17  C   UNL     1       3.452   5.308  -5.716  0.00  0.00    +0.014 A 
ATOM     18  C   UNL     1       2.098   7.163  -6.368  0.00  0.00    +0.025 C 
ATOM     19  C   UNL     1       2.138   3.613  -7.426  0.00  0.00    +0.010 C 
ATOM     20  C   UNL     1       1.513   4.487  -4.881  0.00  0.00    +0.042 C 
ATOM     21  C   UNL     1       0.654   7.160  -6.395  0.00  0.00    +0.073 C 
ENDROOT
TORSDOF 0
ENDMDL
