MODEL 1
REMARK VINA RESULT:      -6.6      0.000      0.000
REMARK  Name = 
REMARK  1 active torsions:
REMARK  status: ('A' for Active; 'I' for Inactive)
REMARK    1  A    between atoms: C_3  and  C_4
REMARK                            x       y       z     vdW  Elec       q    Type
REMARK                         _______ _______ _______ _____ _____    ______ ____
ROOT
ATOM      1  C   UNL     1       3.948   5.518  -7.378  0.00  0.00    +0.020 C 
ATOM      2  C   UNL     1       3.246   6.126  -8.738  0.00  0.00    +0.089 C 
ATOM      3  N   UNL     1       2.029   5.130  -8.611  0.00  0.00    -0.268 NA
ATOM      4  C   UNL     1       2.553   3.831  -8.386  0.00  0.00    +0.090 C 
ATOM      5  C   UNL     1       1.324   5.289  -9.867  0.00  0.00    +0.105 C 
ATOM      6  C   UNL     1       2.280   6.006 -10.770  0.00  0.00    +0.160 C 
ATOM      7  O   UNL     1       3.409   5.367 -11.039  0.00  0.00    -0.349 OA
ATOM      8  C   UNL     1       4.167   5.017  -9.746  0.00  0.00    +0.152 C 
ENDROOT
BRANCH   8   9
ATOM      9  C   UNL     1       5.329   6.153  -9.983  0.00  0.00    +0.006 A 
ATOM     10  C   UNL     1       5.095   7.178 -10.798  0.00  0.00    -0.002 A 
ATOM     11  C   UNL     1       6.195   7.902 -11.252  0.00  0.00    -0.000 A 
ATOM     12  C   UNL     1       7.440   7.291 -11.177  0.00  0.00    -0.000 A 
ATOM     13  C   UNL     1       7.645   6.468 -10.075  0.00  0.00    -0.000 A 
ATOM     14  C   UNL     1       6.566   5.779  -9.530  0.00  0.00    -0.002 A 
ENDBRANCH   8   9
TORSDOF 1
ENDMDL
MODEL 2
REMARK VINA RESULT:      -6.4      1.186      2.452
REMARK  Name = 
REMARK  1 active torsions:
REMARK  status: ('A' for Active; 'I' for Inactive)
REMARK    1  A    between atoms: C_3  and  C_4
REMARK                            x       y       z     vdW  Elec       q    Type
REMARK                         _______ _______ _______ _____ _____    ______ ____
ROOT
ATOM      1  C   UNL     1       2.551   5.872 -11.480  0.00  0.00    +0.020 C 
ATOM      2  C   UNL     1       3.098   5.149 -10.106  0.00  0.00    +0.089 C 
ATOM      3  N   UNL     1       1.670   5.233  -9.438  0.00  0.00    -0.268 NA
ATOM      4  C   UNL     1       1.185   6.553  -9.616  0.00  0.00    +0.090 C 
ATOM      5  C   UNL     1       1.914   4.856  -8.060  0.00  0.00    +0.105 C 
ATOM      6  C   UNL     1       3.398   4.946  -7.882  0.00  0.00    +0.160 C 
ATOM      7  O   UNL     1       3.929   6.148  -8.053  0.00  0.00    -0.349 OA
ATOM      8  C   UNL     1       3.596   6.705  -9.449  0.00  0.00    +0.152 C 
ENDROOT
BRANCH   8   9
ATOM      9  C   UNL     1       5.119   6.490 -10.024  0.00  0.00    +0.006 A 
ATOM     10  C   UNL     1       5.959   5.681  -9.386  0.00  0.00    -0.002 A 
ATOM     11  C   UNL     1       7.316   5.803  -9.677  0.00  0.00    -0.000 A 
ATOM     12  C   UNL     1       7.741   6.986 -10.269  0.00  0.00    -0.000 A 
ATOM     13  C   UNL     1       6.853   7.565 -11.170  0.00  0.00    -0.000 A 
ATOM     14  C   UNL     1       5.484   7.409 -10.972  0.00  0.00    -0.002 A 
ENDBRANCH   8   9
TORSDOF 1
ENDMDL
MODEL 3
REMARK VINA RESULT:      -6.2      3.947      6.772
REMARK  Name = 
REMARK  1 active torsions:
REMARK  status: ('A' for Active; 'I' for Inactive)
REMARK    1  A    between atoms: C_3  and  C_4
REMARK                            x       y       z     vdW  Elec       q    Type
REMARK                         _______ _______ _______ _____ _____    ______ ____
ROOT
ATOM      1  C   UNL     1       0.911   5.445  -8.948  0.00  0.00    +0.020 C 
ATOM      2  C   UNL     1       1.675   6.179  -7.688  0.00  0.00    +0.089 C 
ATOM      3  N   UNL     1       2.990   5.343  -7.937  0.00  0.00    -0.268 NA
ATOM      4  C   UNL     1       2.618   3.982  -8.080  0.00  0.00    +0.090 C 
ATOM      5  C   UNL     1       3.805   5.630  -6.773  0.00  0.00    +0.105 C 
ATOM      6  C   UNL     1       2.870   6.246  -5.778  0.00  0.00    +0.160 C 
ATOM      7  O   UNL     1       1.871   5.477  -5.371  0.00  0.00    -0.349 OA
ATOM      8  C   UNL     1       1.025   4.993  -6.562  0.00  0.00    +0.152 C 
ENDROOT
BRANCH   8   9
ATOM      9  C   UNL     1      -0.240   5.979  -6.212  0.00  0.00    +0.006 A 
ATOM     10  C   UNL     1      -0.088   6.965  -5.333  0.00  0.00    -0.002 A 
ATOM     11  C   UNL     1      -1.241   7.533  -4.797  0.00  0.00    -0.000 A 
ATOM     12  C   UNL     1      -2.417   6.797  -4.881  0.00  0.00    -0.000 A 
ATOM     13  C   UNL     1      -2.572   6.035  -6.034  0.00  0.00    -0.000 A 
ATOM     14  C   UNL     1      -1.446   5.506  -6.657  0.00  0.00    -0.002 A 
ENDBRANCH   8   9
TORSDOF 1
ENDMDL
MODEL 4
REMARK VINA RESULT:      -6.1      3.607      6.330
REMARK  Name = 
REMARK  1 active torsions:
REMARK  status: ('A' for Active; 'I' for Inactive)
REMARK    1  A    between atoms: C_3  and  C_4
REMARK                            x       y       z     vdW  Elec       q    Type
REMARK                         _______ _______ _______ _____ _____    ______ ____
ROOT
ATOM      1  C   UNL     1       2.609   4.687  -5.571  0.00  0.00    +0.020 C 
ATOM      2  C   UNL     1       1.743   4.504  -6.959  0.00  0.00    +0.089 C 
ATOM      3  N   UNL     1       3.052   4.574  -7.839  0.00  0.00    -0.268 NA
ATOM      4  C   UNL     1       3.807   5.692  -7.404  0.00  0.00    +0.090 C 
ATOM      5  C   UNL     1       2.548   4.673  -9.195  0.00  0.00    +0.105 C 
ATOM      6  C   UNL     1       1.101   5.030  -9.054  0.00  0.00    +0.160 C 
ATOM      7  O   UNL     1       0.846   6.187  -8.463  0.00  0.00    -0.349 OA
ATOM      8  C   UNL     1       1.474   6.240  -7.058  0.00  0.00    +0.152 C 
ENDROOT
BRANCH   8   9
ATOM      9  C   UNL     1       0.034   6.088  -6.284  0.00  0.00    +0.006 A 
ATOM     10  C   UNL     1      -0.963   5.427  -6.864  0.00  0.00    -0.002 A 
ATOM     11  C   UNL     1      -2.246   5.626  -6.360  0.00  0.00    -0.000 A 
ATOM     12  C   UNL     1      -2.465   6.766  -5.597  0.00  0.00    -0.000 A 
ATOM     13  C   UNL     1      -1.406   7.166  -4.788  0.00  0.00    -0.000 A 
ATOM     14  C   UNL     1      -0.102   6.922  -5.205  0.00  0.00    -0.002 A 
ENDBRANCH   8   9
TORSDOF 1
ENDMDL
MODEL 5
REMARK VINA RESULT:      -6.0      5.389      7.637
REMARK  Name = 
REMARK  1 active torsions:
REMARK  status: ('A' for Active; 'I' for Inactive)
REMARK    1  A    between atoms: C_3  and  C_4
REMARK                            x       y       z     vdW  Elec       q    Type
REMARK                         _______ _______ _______ _____ _____    ______ ____
ROOT
ATOM      1  C   UNL     1       2.882   6.679  -5.685  0.00  0.00    +0.020 C 
ATOM      2  C   UNL     1       1.960   6.783  -4.324  0.00  0.00    +0.089 C 
ATOM      3  N   UNL     1       3.146   6.259  -3.425  0.00  0.00    -0.268 NA
ATOM      4  C   UNL     1       3.686   5.104  -4.047  0.00  0.00    +0.090 C 
ATOM      5  C   UNL     1       2.521   6.019  -2.139  0.00  0.00    +0.105 C 
ATOM      6  C   UNL     1       1.048   6.025  -2.409  0.00  0.00    +0.160 C 
ATOM      7  O   UNL     1       0.608   5.086  -3.233  0.00  0.00    -0.349 OA
ATOM      8  C   UNL     1       1.327   5.163  -4.592  0.00  0.00    +0.152 C 
ENDROOT
BRANCH   8   9
ATOM      9  C   UNL     1       0.021   5.774  -5.378  0.00  0.00    +0.006 A 
ATOM     10  C   UNL     1      -0.841   6.548  -4.726  0.00  0.00    -0.002 A 
ATOM     11  C   UNL     1      -2.094   6.742  -5.302  0.00  0.00    -0.000 A 
ATOM     12  C   UNL     1      -2.508   5.825  -6.261  0.00  0.00    -0.000 A 
ATOM     13  C   UNL     1      -1.509   5.324  -7.089  0.00  0.00    -0.000 A 
ATOM     14  C   UNL     1      -0.218   5.182  -6.590  0.00  0.00    -0.002 A 
ENDBRANCH   8   9
TORSDOF 1
ENDMDL
MODEL 6
REMARK VINA RESULT:      -5.7      2.659      5.371
REMARK  Name = 
REMARK  1 active torsions:
REMARK  status: ('A' for Active; 'I' for Inactive)
REMARK    1  A    between atoms: C_3  and  C_4
REMARK                            x       y       z     vdW  Elec       q    Type
REMARK                         _______ _______ _______ _____ _____    ______ ____
ROOT
ATOM      1  C   UNL     1       3.508   4.740  -8.750  0.00  0.00    +0.020 C 
ATOM      2  C   UNL     1       2.144   5.063  -9.614  0.00  0.00    +0.089 C 
ATOM      3  N   UNL     1       2.988   5.626 -10.823  0.00  0.00    -0.268 NA
ATOM      4  C   UNL     1       3.945   6.532 -10.300  0.00  0.00    +0.090 C 
ATOM      5  C   UNL     1       1.992   6.227 -11.687  0.00  0.00    +0.105 C 
ATOM      6  C   UNL     1       0.758   6.344 -10.845  0.00  0.00    +0.160 C 
ATOM      7  O   UNL     1       0.860   7.118  -9.776  0.00  0.00    -0.349 OA
ATOM      8  C   UNL     1       2.003   6.646  -8.858  0.00  0.00    +0.152 C 
ENDROOT
BRANCH   8   9
ATOM      9  C   UNL     1       0.989   6.040  -7.717  0.00  0.00    +0.006 A 
ATOM     10  C   UNL     1      -0.164   5.487  -8.081  0.00  0.00    -0.002 A 
ATOM     11  C   UNL     1      -1.137   5.323  -7.099  0.00  0.00    -0.000 A 
ATOM     12  C   UNL     1      -1.021   6.089  -5.946  0.00  0.00    -0.000 A 
ATOM     13  C   UNL     1       0.277   6.328  -5.507  0.00  0.00    -0.000 A 
ATOM     14  C   UNL     1       1.304   6.425  -6.441  0.00  0.00    -0.002 A 
ENDBRANCH   8   9
TORSDOF 1
ENDMDL
MODEL 7
REMARK VINA RESULT:      -5.6      5.915      8.537
REMARK  Name = 
REMARK  1 active torsions:
REMARK  status: ('A' for Active; 'I' for Inactive)
REMARK    1  A    between atoms: C_3  and  C_4
REMARK                            x       y       z     vdW  Elec       q    Type
REMARK                         _______ _______ _______ _____ _____    ______ ____
ROOT
ATOM      1  C   UNL     1      -0.730   5.359  -6.891  0.00  0.00    +0.020 C 
ATOM      2  C   UNL     1       0.155   6.328  -5.895  0.00  0.00    +0.089 C 
ATOM      3  N   UNL     1       1.506   5.679  -6.389  0.00  0.00    -0.268 NA
ATOM      4  C   UNL     1       1.350   4.270  -6.352  0.00  0.00    +0.090 C 
ATOM      5  C   UNL     1       2.495   6.205  -5.470  0.00  0.00    +0.105 C 
ATOM      6  C   UNL     1       1.711   6.772  -4.327  0.00  0.00    +0.160 C 
ATOM      7  O   UNL     1       0.973   5.907  -3.647  0.00  0.00    -0.349 OA
ATOM      8  C   UNL     1      -0.018   5.179  -4.573  0.00  0.00    +0.152 C 
ENDROOT
BRANCH   8   9
ATOM      9  C   UNL     1      -1.326   5.993  -4.002  0.00  0.00    +0.006 A 
ATOM     10  C   UNL     1      -1.158   7.130  -3.335  0.00  0.00    -0.002 A 
ATOM     11  C   UNL     1      -2.225   7.590  -2.567  0.00  0.00    -0.000 A 
ATOM     12  C   UNL     1      -3.207   6.670  -2.218  0.00  0.00    -0.000 A 
ATOM     13  C   UNL     1      -3.493   5.700  -3.173  0.00  0.00    -0.000 A 
ATOM     14  C   UNL     1      -2.482   5.258  -4.020  0.00  0.00    -0.002 A 
ENDBRANCH   8   9
TORSDOF 1
ENDMDL
MODEL 8
REMARK VINA RESULT:      -5.6      1.584      4.272
REMARK  Name = 
REMARK  1 active torsions:
REMARK  status: ('A' for Active; 'I' for Inactive)
REMARK    1  A    between atoms: C_3  and  C_4
REMARK                            x       y       z     vdW  Elec       q    Type
REMARK                         _______ _______ _______ _____ _____    ______ ____
ROOT
ATOM      1  C   UNL     1       2.775   4.136  -8.408  0.00  0.00    +0.020 C 
ATOM      2  C   UNL     1       3.760   4.747  -9.579  0.00  0.00    +0.089 C 
ATOM      3  N   UNL     1       4.962   4.878  -8.564  0.00  0.00    -0.268 NA
ATOM      4  C   UNL     1       4.474   5.511  -7.393  0.00  0.00    +0.090 C 
ATOM      5  C   UNL     1       5.950   5.642  -9.300  0.00  0.00    +0.105 C 
ATOM      6  C   UNL     1       5.210   6.226 -10.465  0.00  0.00    +0.160 C 
ATOM      7  O   UNL     1       4.225   7.058 -10.164  0.00  0.00    -0.349 OA
ATOM      8  C   UNL     1       3.187   6.379  -9.252  0.00  0.00    +0.152 C 
ENDROOT
BRANCH   8   9
ATOM      9  C   UNL     1       2.059   6.249 -10.438  0.00  0.00    +0.006 A 
ATOM     10  C   UNL     1       2.436   6.246 -11.713  0.00  0.00    -0.002 A 
ATOM     11  C   UNL     1       1.460   6.500 -12.673  0.00  0.00    -0.000 A 
ATOM     12  C   UNL     1       0.295   7.130 -12.253  0.00  0.00    -0.000 A 
ATOM     13  C   UNL     1      -0.152   6.787 -10.981  0.00  0.00    -0.000 A 
ATOM     14  C   UNL     1       0.776   6.448 -10.001  0.00  0.00    -0.002 A 
ENDBRANCH   8   9
TORSDOF 1
ENDMDL
MODEL 9
REMARK VINA RESULT:      -5.4      6.963      8.665
REMARK  Name = 
REMARK  1 active torsions:
REMARK  status: ('A' for Active; 'I' for Inactive)
REMARK    1  A    between atoms: C_3  and  C_4
REMARK                            x       y       z     vdW  Elec       q    Type
REMARK                         _______ _______ _______ _____ _____    ______ ____
ROOT
ATOM      1  C   UNL     1       2.044   6.361  -3.078  0.00  0.00    +0.020 C 
ATOM      2  C   UNL     1       0.529   6.647  -2.500  0.00  0.00    +0.089 C 
ATOM      3  N   UNL     1       0.948   6.190  -1.048  0.00  0.00    -0.268 NA
ATOM      4  C   UNL     1       1.638   4.957  -1.163  0.00  0.00    +0.090 C 
ATOM      5  C   UNL     1      -0.312   6.117  -0.335  0.00  0.00    +0.105 C 
ATOM      6  C   UNL     1      -1.368   6.139  -1.397  0.00  0.00    +0.160 C 
ATOM      7  O   UNL     1      -1.349   5.127  -2.252  0.00  0.00    -0.349 OA
ATOM      8  C   UNL     1       0.015   5.028  -2.959  0.00  0.00    +0.152 C 
ENDROOT
BRANCH   8   9
ATOM      9  C   UNL     1      -0.558   5.587  -4.392  0.00  0.00    +0.006 A 
ATOM     10  C   UNL     1      -1.749   6.177  -4.444  0.00  0.00    -0.002 A 
ATOM     11  C   UNL     1      -2.350   6.304  -5.694  0.00  0.00    -0.000 A 
ATOM     12  C   UNL     1      -1.895   5.474  -6.712  0.00  0.00    -0.000 A 
ATOM     13  C   UNL     1      -0.533   5.191  -6.698  0.00  0.00    -0.000 A 
ATOM     14  C   UNL     1       0.137   5.128  -5.480  0.00  0.00    -0.002 A 
ENDBRANCH   8   9
TORSDOF 1
ENDMDL
