MODEL 1
REMARK VINA RESULT:      -7.4      0.000      0.000
REMARK  Name = 
REMARK  8 active torsions:
REMARK  status: ('A' for Active; 'I' for Inactive)
REMARK    1  A    between atoms: O_2  and  C_3
REMARK    2  A    between atoms: C_3  and  C_5
REMARK    3  A    between atoms: C_11  and  C_12
REMARK    4  A    between atoms: C_12  and  O_14
REMARK    5  A    between atoms: O_14  and  C_15
REMARK    6  A    between atoms: C_15  and  C_16
REMARK    7  A    between atoms: C_19  and  C_20
REMARK    8  A    between atoms: C_25  and  N_26
REMARK                            x       y       z     vdW  Elec       q    Type
REMARK                         _______ _______ _______ _____ _____    ______ ____
ROOT
ATOM      1  C   UNL     1       1.660   5.957  -5.702  0.00  0.00    +0.073 C 
ATOM      2  C   UNL     1       1.873   5.865  -4.088  0.00  0.00    +0.087 C 
ATOM      3  C   UNL     1       2.724   7.261  -3.905  0.00  0.00    +0.073 C 
ATOM      4  C   UNL     1       3.835   7.071  -4.633  0.00  0.00    +0.051 C 
ATOM      5  C   UNL     1       5.175   7.520  -4.135  0.00  0.00    +0.049 C 
ATOM      6  N   UNL     1       3.547   7.224  -6.005  0.00  0.00    -0.221 NA
ATOM      7  C   UNL     1       2.197   6.900  -6.369  0.00  0.00    +0.051 C 
ATOM      8  C   UNL     1       1.736   7.023  -7.789  0.00  0.00    +0.049 C 
ENDROOT
BRANCH   2   9
ATOM      9  C   UNL     1       0.450   6.616  -3.784  0.00  0.00    +0.055 A 
ATOM     10  C   UNL     1      -0.379   5.895  -2.954  0.00  0.00    +0.287 A 
ATOM     11  C   UNL     1      -1.740   6.149  -3.053  0.00  0.00    +0.075 A 
ATOM     12  C   UNL     1      -2.223   7.141  -3.900  0.00  0.00    +0.006 A 
ATOM     13  C   UNL     1      -1.307   7.937  -4.573  0.00  0.00    +0.000 A 
ATOM     14  C   UNL     1      -0.071   7.344  -4.801  0.00  0.00    +0.002 A 
BRANCH  10  15
ATOM     15  N   UNL     1       0.222   5.434  -1.737  0.00  0.00    +0.081 N 
ATOM     16  O   UNL     1       0.354   6.219  -0.628  0.00  0.00    -0.576 OA
ATOM     17  O   UNL     1       0.386   4.207  -1.601  0.00  0.00    +0.041 OA
ENDBRANCH  10  15
ENDBRANCH   2   9
BRANCH   1  18
ATOM     18  C   UNL     1       1.072   4.721  -6.222  0.00  0.00    +0.339 C 
ATOM     19  O   UNL     1       1.893   3.777  -6.436  0.00  0.00    -0.245 OA
BRANCH  18  21
ATOM     20  C   UNL     1      -1.245   5.016  -6.905  0.00  0.00    +0.256 C 
ATOM     21  O   UNL     1       0.055   4.845  -7.158  0.00  0.00    -0.442 OA
ENDBRANCH  18  21
ENDBRANCH   1  18
BRANCH   3  22
ATOM     22  C   UNL     1       3.007   7.377  -2.464  0.00  0.00    +0.339 C 
ATOM     23  O   UNL     1       3.477   6.326  -1.931  0.00  0.00    -0.245 OA
BRANCH  22  24
ATOM     24  O   UNL     1       3.321   8.555  -1.818  0.00  0.00    -0.446 OA
BRANCH  24  25
ATOM     25  C   UNL     1       3.773   8.651  -0.494  0.00  0.00    +0.209 C 
BRANCH  25  26
ATOM     26  C   UNL     1       3.322   9.847   0.264  0.00  0.00    +0.044 C 
ATOM     27  C   UNL     1       3.523  11.057  -0.645  0.00  0.00    +0.004 C 
ATOM     28  C   UNL     1       1.899   9.826   0.711  0.00  0.00    +0.004 C 
ENDBRANCH  25  26
ENDBRANCH  24  25
ENDBRANCH  22  24
ENDBRANCH   3  22
TORSDOF 8
ENDMDL
MODEL 2
REMARK VINA RESULT:      -7.0      5.721     10.302
REMARK  Name = 
REMARK  8 active torsions:
REMARK  status: ('A' for Active; 'I' for Inactive)
REMARK    1  A    between atoms: O_2  and  C_3
REMARK    2  A    between atoms: C_3  and  C_5
REMARK    3  A    between atoms: C_11  and  C_12
REMARK    4  A    between atoms: C_12  and  O_14
REMARK    5  A    between atoms: O_14  and  C_15
REMARK    6  A    between atoms: C_15  and  C_16
REMARK    7  A    between atoms: C_19  and  C_20
REMARK    8  A    between atoms: C_25  and  N_26
REMARK                            x       y       z     vdW  Elec       q    Type
REMARK                         _______ _______ _______ _____ _____    ______ ____
ROOT
ATOM      1  C   UNL     1       2.981   5.801  -9.669  0.00  0.00    +0.073 C 
ATOM      2  C   UNL     1       2.716   5.552 -11.259  0.00  0.00    +0.087 C 
ATOM      3  C   UNL     1       1.762   6.866 -11.524  0.00  0.00    +0.073 C 
ATOM      4  C   UNL     1       0.695   6.667 -10.736  0.00  0.00    +0.051 C 
ATOM      5  C   UNL     1      -0.691   6.979 -11.213  0.00  0.00    +0.049 C 
ATOM      6  N   UNL     1       1.022   6.960  -9.396  0.00  0.00    -0.221 NA
ATOM      7  C   UNL     1       2.403   6.761  -9.063  0.00  0.00    +0.051 C 
ATOM      8  C   UNL     1       2.906   7.040  -7.680  0.00  0.00    +0.049 C 
ENDROOT
BRANCH   2   9
ATOM      9  C   UNL     1       4.070   6.367 -11.687  0.00  0.00    +0.055 A 
ATOM     10  C   UNL     1       4.901   5.646 -12.515  0.00  0.00    +0.287 A 
ATOM     11  C   UNL     1       6.245   5.988 -12.507  0.00  0.00    +0.075 A 
ATOM     12  C   UNL     1       6.706   7.061 -11.750  0.00  0.00    +0.006 A 
ATOM     13  C   UNL     1       5.776   7.841 -11.079  0.00  0.00    +0.000 A 
ATOM     14  C   UNL     1       4.595   7.190 -10.747  0.00  0.00    +0.002 A 
BRANCH  10  15
ATOM     15  N   UNL     1       4.269   5.071 -13.666  0.00  0.00    +0.081 N 
ATOM     16  O   UNL     1       4.012   5.779 -14.805  0.00  0.00    -0.576 OA
ATOM     17  O   UNL     1       4.193   3.830 -13.726  0.00  0.00    +0.041 OA
ENDBRANCH  10  15
ENDBRANCH   2   9
BRANCH   1  18
ATOM     18  C   UNL     1       3.674   4.658  -9.071  0.00  0.00    +0.339 C 
ATOM     19  O   UNL     1       2.924   3.704  -8.698  0.00  0.00    -0.245 OA
BRANCH  18  21
ATOM     20  C   UNL     1       6.031   5.011  -8.583  0.00  0.00    +0.256 C 
ATOM     21  O   UNL     1       4.745   4.932  -8.233  0.00  0.00    -0.442 OA
ENDBRANCH  18  21
ENDBRANCH   1  18
BRANCH   3  22
ATOM     22  C   UNL     1       1.419   6.835 -12.956  0.00  0.00    +0.339 C 
ATOM     23  O   UNL     1       1.031   5.705 -13.383  0.00  0.00    -0.245 OA
BRANCH  22  24
ATOM     24  O   UNL     1       0.973   7.921 -13.681  0.00  0.00    -0.446 OA
BRANCH  24  25
ATOM     25  C   UNL     1       0.380   7.854 -14.949  0.00  0.00    +0.209 C 
BRANCH  25  26
ATOM     26  C   UNL     1       0.927   8.779 -15.975  0.00  0.00    +0.044 C 
ATOM     27  C   UNL     1       0.989  10.166 -15.342  0.00  0.00    +0.004 C 
ATOM     28  C   UNL     1       2.284   8.436 -16.492  0.00  0.00    +0.004 C 
ENDBRANCH  25  26
ENDBRANCH  24  25
ENDBRANCH  22  24
ENDBRANCH   3  22
TORSDOF 8
ENDMDL
MODEL 3
REMARK VINA RESULT:      -6.9      2.710      5.000
REMARK  Name = 
REMARK  8 active torsions:
REMARK  status: ('A' for Active; 'I' for Inactive)
REMARK    1  A    between atoms: O_2  and  C_3
REMARK    2  A    between atoms: C_3  and  C_5
REMARK    3  A    between atoms: C_11  and  C_12
REMARK    4  A    between atoms: C_12  and  O_14
REMARK    5  A    between atoms: O_14  and  C_15
REMARK    6  A    between atoms: C_15  and  C_16
REMARK    7  A    between atoms: C_19  and  C_20
REMARK    8  A    between atoms: C_25  and  N_26
REMARK                            x       y       z     vdW  Elec       q    Type
REMARK                         _______ _______ _______ _____ _____    ______ ____
ROOT
ATOM      1  C   UNL     1       1.681   6.263  -6.936  0.00  0.00    +0.073 C 
ATOM      2  C   UNL     1       1.253   6.632  -5.405  0.00  0.00    +0.087 C 
ATOM      3  C   UNL     1       0.069   5.502  -5.238  0.00  0.00    +0.073 C 
ATOM      4  C   UNL     1      -0.837   5.828  -6.171  0.00  0.00    +0.051 C 
ATOM      5  C   UNL     1      -2.306   5.766  -5.883  0.00  0.00    +0.049 C 
ATOM      6  N   UNL     1      -0.389   5.420  -7.445  0.00  0.00    -0.221 NA
ATOM      7  C   UNL     1       1.038   5.379  -7.588  0.00  0.00    +0.051 C 
ATOM      8  C   UNL     1       1.666   4.954  -8.880  0.00  0.00    +0.049 C 
ENDROOT
BRANCH   2   9
ATOM      9  C   UNL     1       2.386   5.634  -4.771  0.00  0.00    +0.055 A 
ATOM     10  C   UNL     1       3.367   6.299  -4.071  0.00  0.00    +0.287 A 
ATOM     11  C   UNL     1       4.596   5.666  -3.958  0.00  0.00    +0.075 A 
ATOM     12  C   UNL     1       4.791   4.386  -4.468  0.00  0.00    +0.006 A 
ATOM     13  C   UNL     1       3.701   3.718  -5.007  0.00  0.00    +0.000 A 
ATOM     14  C   UNL     1       2.699   4.540  -5.508  0.00  0.00    +0.002 A 
BRANCH  10  15
ATOM     15  N   UNL     1       2.894   7.224  -3.082  0.00  0.00    +0.081 N 
ATOM     16  O   UNL     1       2.111   6.850  -2.028  0.00  0.00    -0.576 OA
ATOM     17  O   UNL     1       3.429   8.347  -3.037  0.00  0.00    +0.041 OA
ENDBRANCH  10  15
ENDBRANCH   2   9
BRANCH   1  18
ATOM     18  C   UNL     1       2.626   7.250  -7.464  0.00  0.00    +0.339 C 
ATOM     19  O   UNL     1       2.107   8.333  -7.875  0.00  0.00    -0.245 OA
BRANCH  18  21
ATOM     20  C   UNL     1       4.723   6.060  -7.789  0.00  0.00    +0.256 C 
ATOM     21  O   UNL     1       3.683   6.773  -8.226  0.00  0.00    -0.442 OA
ENDBRANCH  18  21
ENDBRANCH   1  18
BRANCH   3  22
ATOM     22  C   UNL     1      -0.450   5.660  -3.869  0.00  0.00    +0.339 C 
ATOM     23  O   UNL     1      -0.253   4.663  -3.110  0.00  0.00    -0.245 OA
BRANCH  22  24
ATOM     24  O   UNL     1      -0.606   6.870  -3.222  0.00  0.00    -0.446 OA
BRANCH  24  25
ATOM     25  C   UNL     1      -1.812   7.577  -3.119  0.00  0.00    +0.209 C 
BRANCH  25  26
ATOM     26  C   UNL     1      -2.711   7.175  -2.008  0.00  0.00    +0.044 C 
ATOM     27  C   UNL     1      -3.682   6.139  -2.568  0.00  0.00    +0.004 C 
ATOM     28  C   UNL     1      -2.036   6.589  -0.814  0.00  0.00    +0.004 C 
ENDBRANCH  25  26
ENDBRANCH  24  25
ENDBRANCH  22  24
ENDBRANCH   3  22
TORSDOF 8
ENDMDL
MODEL 4
REMARK VINA RESULT:      -6.7      2.020      6.525
REMARK  Name = 
REMARK  8 active torsions:
REMARK  status: ('A' for Active; 'I' for Inactive)
REMARK    1  A    between atoms: O_2  and  C_3
REMARK    2  A    between atoms: C_3  and  C_5
REMARK    3  A    between atoms: C_11  and  C_12
REMARK    4  A    between atoms: C_12  and  O_14
REMARK    5  A    between atoms: O_14  and  C_15
REMARK    6  A    between atoms: C_15  and  C_16
REMARK    7  A    between atoms: C_19  and  C_20
REMARK    8  A    between atoms: C_25  and  N_26
REMARK                            x       y       z     vdW  Elec       q    Type
REMARK                         _______ _______ _______ _____ _____    ______ ____
ROOT
ATOM      1  C   UNL     1       1.159   5.676  -2.378  0.00  0.00    +0.073 C 
ATOM      2  C   UNL     1       1.323   5.451  -3.986  0.00  0.00    +0.087 C 
ATOM      3  C   UNL     1       0.372   6.702  -4.474  0.00  0.00    +0.073 C 
ATOM      4  C   UNL     1      -0.841   6.408  -3.984  0.00  0.00    +0.051 C 
ATOM      5  C   UNL     1      -2.081   6.635  -4.795  0.00  0.00    +0.049 C 
ATOM      6  N   UNL     1      -0.886   6.688  -2.602  0.00  0.00    -0.221 NA
ATOM      7  C   UNL     1       0.377   6.576  -1.932  0.00  0.00    +0.051 C 
ATOM      8  C   UNL     1       0.492   6.854  -0.464  0.00  0.00    +0.049 C 
ENDROOT
BRANCH   2   9
ATOM      9  C   UNL     1       2.677   6.370  -4.049  0.00  0.00    +0.055 A 
ATOM     10  C   UNL     1       3.771   5.694  -4.544  0.00  0.00    +0.287 A 
ATOM     11  C   UNL     1       5.021   6.160  -4.162  0.00  0.00    +0.075 A 
ATOM     12  C   UNL     1       5.150   7.303  -3.379  0.00  0.00    +0.006 A 
ATOM     13  C   UNL     1       4.005   8.021  -3.067  0.00  0.00    +0.000 A 
ATOM     14  C   UNL     1       2.832   7.277  -3.055  0.00  0.00    +0.002 A 
BRANCH  10  15
ATOM     15  N   UNL     1       3.559   5.014  -5.788  0.00  0.00    +0.081 N 
ATOM     16  O   UNL     1       2.888   3.829  -5.883  0.00  0.00    -0.576 OA
ATOM     17  O   UNL     1       3.760   5.652  -6.837  0.00  0.00    +0.041 OA
ENDBRANCH  10  15
ENDBRANCH   2   9
BRANCH   1  18
ATOM     18  C   UNL     1       1.761   4.569  -1.633  0.00  0.00    +0.339 C 
ATOM     19  O   UNL     1       0.941   3.727  -1.155  0.00  0.00    -0.245 OA
BRANCH  18  21
ATOM     20  C   UNL     1       4.112   4.483  -1.011  0.00  0.00    +0.256 C 
ATOM     21  O   UNL     1       2.846   4.865  -0.821  0.00  0.00    -0.442 OA
ENDBRANCH  18  21
ENDBRANCH   1  18
BRANCH   3  22
ATOM     22  C   UNL     1       0.405   6.684  -5.946  0.00  0.00    +0.339 C 
ATOM     23  O   UNL     1       1.052   7.640  -6.472  0.00  0.00    -0.245 OA
BRANCH  22  24
ATOM     24  O   UNL     1       0.305   5.546  -6.721  0.00  0.00    -0.446 OA
BRANCH  24  25
ATOM     25  C   UNL     1      -0.194   5.506  -8.030  0.00  0.00    +0.209 C 
BRANCH  25  26
ATOM     26  C   UNL     1       0.815   5.333  -9.107  0.00  0.00    +0.044 C 
ATOM     27  C   UNL     1       0.105   4.675 -10.287  0.00  0.00    +0.004 C 
ATOM     28  C   UNL     1       1.463   6.588  -9.588  0.00  0.00    +0.004 C 
ENDBRANCH  25  26
ENDBRANCH  24  25
ENDBRANCH  22  24
ENDBRANCH   3  22
TORSDOF 8
ENDMDL
MODEL 5
REMARK VINA RESULT:      -6.4      2.175      5.587
REMARK  Name = 
REMARK  8 active torsions:
REMARK  status: ('A' for Active; 'I' for Inactive)
REMARK    1  A    between atoms: O_2  and  C_3
REMARK    2  A    between atoms: C_3  and  C_5
REMARK    3  A    between atoms: C_11  and  C_12
REMARK    4  A    between atoms: C_12  and  O_14
REMARK    5  A    between atoms: O_14  and  C_15
REMARK    6  A    between atoms: C_15  and  C_16
REMARK    7  A    between atoms: C_19  and  C_20
REMARK    8  A    between atoms: C_25  and  N_26
REMARK                            x       y       z     vdW  Elec       q    Type
REMARK                         _______ _______ _______ _____ _____    ______ ____
ROOT
ATOM      1  C   UNL     1       0.169   6.093  -3.556  0.00  0.00    +0.073 C 
ATOM      2  C   UNL     1       1.392   5.039  -3.790  0.00  0.00    +0.087 C 
ATOM      3  C   UNL     1       1.828   5.549  -5.292  0.00  0.00    +0.073 C 
ATOM      4  C   UNL     1       0.742   5.330  -6.047  0.00  0.00    +0.051 C 
ATOM      5  C   UNL     1       0.860   4.781  -7.437  0.00  0.00    +0.049 C 
ATOM      6  N   UNL     1      -0.227   6.325  -5.803  0.00  0.00    -0.221 NA
ATOM      7  C   UNL     1      -0.178   6.891  -4.485  0.00  0.00    +0.051 C 
ATOM      8  C   UNL     1      -1.137   7.968  -4.079  0.00  0.00    +0.049 C 
ENDROOT
BRANCH   2   9
ATOM      9  C   UNL     1       2.479   6.028  -3.067  0.00  0.00    +0.055 A 
ATOM     10  C   UNL     1       2.502   5.901  -1.697  0.00  0.00    +0.287 A 
ATOM     11  C   UNL     1       2.955   6.995  -0.973  0.00  0.00    +0.075 A 
ATOM     12  C   UNL     1       3.431   8.132  -1.619  0.00  0.00    +0.006 A 
ATOM     13  C   UNL     1       3.533   8.111  -3.002  0.00  0.00    +0.000 A 
ATOM     14  C   UNL     1       2.657   7.242  -3.641  0.00  0.00    +0.002 A 
BRANCH  10  15
ATOM     15  N   UNL     1       2.632   4.559  -1.208  0.00  0.00    +0.081 N 
ATOM     16  O   UNL     1       3.827   3.901  -1.149  0.00  0.00    -0.576 OA
ATOM     17  O   UNL     1       1.674   4.080  -0.574  0.00  0.00    +0.041 OA
ENDBRANCH  10  15
ENDBRANCH   2   9
BRANCH   1  18
ATOM     18  C   UNL     1      -0.574   5.766  -2.338  0.00  0.00    +0.339 C 
ATOM     19  O   UNL     1      -1.586   5.018  -2.503  0.00  0.00    -0.245 OA
BRANCH  18  21
ATOM     20  C   UNL     1      -0.774   6.631  -0.072  0.00  0.00    +0.256 C 
ATOM     21  O   UNL     1      -0.731   6.776  -1.399  0.00  0.00    -0.442 OA
ENDBRANCH  18  21
ENDBRANCH   1  18
BRANCH   3  22
ATOM     22  C   UNL     1       2.970   4.708  -5.690  0.00  0.00    +0.339 C 
ATOM     23  O   UNL     1       2.656   3.551  -6.104  0.00  0.00    -0.245 OA
BRANCH  22  24
ATOM     24  O   UNL     1       4.178   5.191  -6.152  0.00  0.00    -0.446 OA
BRANCH  24  25
ATOM     25  C   UNL     1       4.373   5.817  -7.391  0.00  0.00    +0.209 C 
BRANCH  25  26
ATOM     26  C   UNL     1       5.041   4.999  -8.437  0.00  0.00    +0.044 C 
ATOM     27  C   UNL     1       3.967   4.590  -9.441  0.00  0.00    +0.004 C 
ATOM     28  C   UNL     1       6.143   5.679  -9.178  0.00  0.00    +0.004 C 
ENDBRANCH  25  26
ENDBRANCH  24  25
ENDBRANCH  22  24
ENDBRANCH   3  22
TORSDOF 8
ENDMDL
MODEL 6
REMARK VINA RESULT:      -6.3      6.498     10.916
REMARK  Name = 
REMARK  8 active torsions:
REMARK  status: ('A' for Active; 'I' for Inactive)
REMARK    1  A    between atoms: O_2  and  C_3
REMARK    2  A    between atoms: C_3  and  C_5
REMARK    3  A    between atoms: C_11  and  C_12
REMARK    4  A    between atoms: C_12  and  O_14
REMARK    5  A    between atoms: O_14  and  C_15
REMARK    6  A    between atoms: C_15  and  C_16
REMARK    7  A    between atoms: C_19  and  C_20
REMARK    8  A    between atoms: C_25  and  N_26
REMARK                            x       y       z     vdW  Elec       q    Type
REMARK                         _______ _______ _______ _____ _____    ______ ____
ROOT
ATOM      1  C   UNL     1       3.637   5.570 -10.335  0.00  0.00    +0.073 C 
ATOM      2  C   UNL     1       4.238   5.161 -11.795  0.00  0.00    +0.087 C 
ATOM      3  C   UNL     1       3.182   6.028 -12.710  0.00  0.00    +0.073 C 
ATOM      4  C   UNL     1       1.983   5.500 -12.426  0.00  0.00    +0.051 C 
ATOM      5  C   UNL     1       0.962   5.268 -13.498  0.00  0.00    +0.049 C 
ATOM      6  N   UNL     1       1.537   5.959 -11.168  0.00  0.00    -0.221 NA
ATOM      7  C   UNL     1       2.589   6.287 -10.249  0.00  0.00    +0.051 C 
ATOM      8  C   UNL     1       2.274   6.799  -8.877  0.00  0.00    +0.049 C 
ENDROOT
BRANCH   2   9
ATOM      9  C   UNL     1       5.325   6.385 -11.772  0.00  0.00    +0.055 A 
ATOM     10  C   UNL     1       6.632   5.952 -11.754  0.00  0.00    +0.287 A 
ATOM     11  C   UNL     1       7.573   6.820 -11.216  0.00  0.00    +0.075 A 
ATOM     12  C   UNL     1       7.209   8.093 -10.789  0.00  0.00    +0.006 A 
ATOM     13  C   UNL     1       5.904   8.512 -11.001  0.00  0.00    +0.000 A 
ATOM     14  C   UNL     1       4.966   7.491 -11.076  0.00  0.00    +0.002 A 
BRANCH  10  15
ATOM     15  N   UNL     1       6.973   4.990 -12.760  0.00  0.00    +0.081 N 
ATOM     16  O   UNL     1       6.609   5.123 -14.070  0.00  0.00    -0.576 OA
ATOM     17  O   UNL     1       7.848   4.149 -12.484  0.00  0.00    +0.041 OA
ENDBRANCH  10  15
ENDBRANCH   2   9
BRANCH   1  18
ATOM     18  C   UNL     1       4.270   4.784  -9.273  0.00  0.00    +0.339 C 
ATOM     19  O   UNL     1       3.573   3.826  -8.819  0.00  0.00    -0.245 OA
BRANCH  18  21
ATOM     20  C   UNL     1       4.802   5.502  -7.010  0.00  0.00    +0.256 C 
ATOM     21  O   UNL     1       5.013   5.476  -8.328  0.00  0.00    -0.442 OA
ENDBRANCH  18  21
ENDBRANCH   1  18
BRANCH   3  22
ATOM     22  C   UNL     1       3.579   5.802 -14.111  0.00  0.00    +0.339 C 
ATOM     23  O   UNL     1       3.562   4.588 -14.476  0.00  0.00    -0.245 OA
BRANCH  22  24
ATOM     24  O   UNL     1       3.433   6.725 -15.127  0.00  0.00    -0.446 OA
BRANCH  24  25
ATOM     25  C   UNL     1       4.477   7.224 -15.917  0.00  0.00    +0.209 C 
BRANCH  25  26
ATOM     26  C   UNL     1       4.079   8.104 -17.047  0.00  0.00    +0.044 C 
ATOM     27  C   UNL     1       2.646   8.556 -16.779  0.00  0.00    +0.004 C 
ATOM     28  C   UNL     1       4.925   9.315 -17.248  0.00  0.00    +0.004 C 
ENDBRANCH  25  26
ENDBRANCH  24  25
ENDBRANCH  22  24
ENDBRANCH   3  22
TORSDOF 8
ENDMDL
MODEL 7
REMARK VINA RESULT:      -6.2      2.815      7.125
REMARK  Name = 
REMARK  8 active torsions:
REMARK  status: ('A' for Active; 'I' for Inactive)
REMARK    1  A    between atoms: O_2  and  C_3
REMARK    2  A    between atoms: C_3  and  C_5
REMARK    3  A    between atoms: C_11  and  C_12
REMARK    4  A    between atoms: C_12  and  O_14
REMARK    5  A    between atoms: O_14  and  C_15
REMARK    6  A    between atoms: C_15  and  C_16
REMARK    7  A    between atoms: C_19  and  C_20
REMARK    8  A    between atoms: C_25  and  N_26
REMARK                            x       y       z     vdW  Elec       q    Type
REMARK                         _______ _______ _______ _____ _____    ______ ____
ROOT
ATOM      1  C   UNL     1       0.494   7.697   1.155  0.00  0.00    +0.073 C 
ATOM      2  C   UNL     1       0.688   6.477   0.089  0.00  0.00    +0.087 C 
ATOM      3  C   UNL     1      -0.171   7.138  -1.148  0.00  0.00    +0.073 C 
ATOM      4  C   UNL     1      -1.413   7.267  -0.660  0.00  0.00    +0.051 C 
ATOM      5  C   UNL     1      -2.615   6.948  -1.497  0.00  0.00    +0.049 C 
ATOM      6  N   UNL     1      -1.479   8.378   0.207  0.00  0.00    -0.221 NA
ATOM      7  C   UNL     1      -0.244   8.693   0.865  0.00  0.00    +0.051 C 
ATOM      8  C   UNL     1      -0.153   9.854   1.808  0.00  0.00    +0.049 C 
ENDROOT
BRANCH   2   9
ATOM      9  C   UNL     1       2.097   7.096  -0.472  0.00  0.00    +0.055 A 
ATOM     10  C   UNL     1       3.130   6.186  -0.468  0.00  0.00    +0.287 A 
ATOM     11  C   UNL     1       4.418   6.700  -0.406  0.00  0.00    +0.075 A 
ATOM     12  C   UNL     1       4.641   8.073  -0.424  0.00  0.00    +0.006 A 
ATOM     13  C   UNL     1       3.554   8.915  -0.603  0.00  0.00    +0.000 A 
ATOM     14  C   UNL     1       2.336   8.397  -0.182  0.00  0.00    +0.002 A 
BRANCH  10  15
ATOM     15  N   UNL     1       2.842   4.929  -1.094  0.00  0.00    +0.081 N 
ATOM     16  O   UNL     1       2.946   4.727  -2.440  0.00  0.00    -0.576 OA
ATOM     17  O   UNL     1       2.751   3.925  -0.363  0.00  0.00    +0.041 OA
ENDBRANCH  10  15
ENDBRANCH   2   9
BRANCH   1  18
ATOM     18  C   UNL     1       1.006   7.322   2.475  0.00  0.00    +0.339 C 
ATOM     19  O   UNL     1       0.165   6.767   3.246  0.00  0.00    -0.245 OA
BRANCH  18  21
ATOM     20  C   UNL     1       3.188   8.015   3.300  0.00  0.00    +0.256 C 
ATOM     21  O   UNL     1       1.883   8.204   3.090  0.00  0.00    -0.442 OA
ENDBRANCH  18  21
ENDBRANCH   1  18
BRANCH   3  22
ATOM     22  C   UNL     1      -0.099   6.167  -2.254  0.00  0.00    +0.339 C 
ATOM     23  O   UNL     1      -0.461   4.991  -1.950  0.00  0.00    -0.245 OA
BRANCH  22  24
ATOM     24  O   UNL     1      -0.212   6.490  -3.591  0.00  0.00    -0.446 OA
BRANCH  24  25
ATOM     25  C   UNL     1      -0.772   5.663  -4.574  0.00  0.00    +0.209 C 
BRANCH  25  26
ATOM     26  C   UNL     1      -2.129   6.038  -5.048  0.00  0.00    +0.044 C 
ATOM     27  C   UNL     1      -2.218   7.561  -4.997  0.00  0.00    +0.004 C 
ATOM     28  C   UNL     1      -2.474   5.593  -6.429  0.00  0.00    +0.004 C 
ENDBRANCH  25  26
ENDBRANCH  24  25
ENDBRANCH  22  24
ENDBRANCH   3  22
TORSDOF 8
ENDMDL
MODEL 8
REMARK VINA RESULT:      -6.1      2.493      4.887
REMARK  Name = 
REMARK  8 active torsions:
REMARK  status: ('A' for Active; 'I' for Inactive)
REMARK    1  A    between atoms: O_2  and  C_3
REMARK    2  A    between atoms: C_3  and  C_5
REMARK    3  A    between atoms: C_11  and  C_12
REMARK    4  A    between atoms: C_12  and  O_14
REMARK    5  A    between atoms: O_14  and  C_15
REMARK    6  A    between atoms: C_15  and  C_16
REMARK    7  A    between atoms: C_19  and  C_20
REMARK    8  A    between atoms: C_25  and  N_26
REMARK                            x       y       z     vdW  Elec       q    Type
REMARK                         _______ _______ _______ _____ _____    ______ ____
ROOT
ATOM      1  C   UNL     1       2.389   6.220  -4.123  0.00  0.00    +0.073 C 
ATOM      2  C   UNL     1       1.545   6.847  -2.876  0.00  0.00    +0.087 C 
ATOM      3  C   UNL     1       0.317   5.753  -2.880  0.00  0.00    +0.073 C 
ATOM      4  C   UNL     1      -0.259   5.902  -4.082  0.00  0.00    +0.051 C 
ATOM      5  C   UNL     1      -1.749   5.878  -4.238  0.00  0.00    +0.049 C 
ATOM      6  N   UNL     1       0.527   5.281  -5.075  0.00  0.00    -0.221 NA
ATOM      7  C   UNL     1       1.930   5.229  -4.777  0.00  0.00    +0.051 C 
ATOM      8  C   UNL     1       2.892   4.589  -5.731  0.00  0.00    +0.049 C 
ENDROOT
BRANCH   2   9
ATOM      9  C   UNL     1       2.396   5.987  -1.773  0.00  0.00    +0.055 A 
ATOM     10  C   UNL     1       3.440   6.693  -1.219  0.00  0.00    +0.287 A 
ATOM     11  C   UNL     1       4.499   5.954  -0.712  0.00  0.00    +0.075 A 
ATOM     12  C   UNL     1       4.459   4.563  -0.702  0.00  0.00    +0.006 A 
ATOM     13  C   UNL     1       3.297   3.933  -1.122  0.00  0.00    +0.000 A 
ATOM     14  C   UNL     1       2.528   4.661  -2.021  0.00  0.00    +0.002 A 
BRANCH  10  15
ATOM     15  N   UNL     1       3.098   7.986  -0.701  0.00  0.00    +0.081 N 
ATOM     16  O   UNL     1       3.516   9.152  -1.276  0.00  0.00    -0.576 OA
ATOM     17  O   UNL     1       2.179   8.049   0.136  0.00  0.00    +0.041 OA
ENDBRANCH  10  15
ENDBRANCH   2   9
BRANCH   1  18
ATOM     18  C   UNL     1       3.490   7.107  -4.506  0.00  0.00    +0.339 C 
ATOM     19  O   UNL     1       3.467   7.513  -5.708  0.00  0.00    -0.245 OA
BRANCH  18  21
ATOM     20  C   UNL     1       5.881   7.476  -4.248  0.00  0.00    +0.256 C 
ATOM     21  O   UNL     1       4.749   6.811  -4.005  0.00  0.00    -0.442 OA
ENDBRANCH  18  21
ENDBRANCH   1  18
BRANCH   3  22
ATOM     22  C   UNL     1      -0.577   6.144  -1.775  0.00  0.00    +0.339 C 
ATOM     23  O   UNL     1      -0.893   5.199  -0.991  0.00  0.00    -0.245 OA
BRANCH  22  24
ATOM     24  O   UNL     1      -0.640   7.410  -1.227  0.00  0.00    -0.446 OA
BRANCH  24  25
ATOM     25  C   UNL     1      -1.619   7.847  -0.324  0.00  0.00    +0.209 C 
BRANCH  25  26
ATOM     26  C   UNL     1      -1.129   8.278   1.010  0.00  0.00    +0.044 C 
ATOM     27  C   UNL     1      -2.239   9.108   1.649  0.00  0.00    +0.004 C 
ATOM     28  C   UNL     1      -0.765   7.177   1.949  0.00  0.00    +0.004 C 
ENDBRANCH  25  26
ENDBRANCH  24  25
ENDBRANCH  22  24
ENDBRANCH   3  22
TORSDOF 8
ENDMDL
MODEL 9
REMARK VINA RESULT:      -5.9      5.228      9.031
REMARK  Name = 
REMARK  8 active torsions:
REMARK  status: ('A' for Active; 'I' for Inactive)
REMARK    1  A    between atoms: O_2  and  C_3
REMARK    2  A    between atoms: C_3  and  C_5
REMARK    3  A    between atoms: C_11  and  C_12
REMARK    4  A    between atoms: C_12  and  O_14
REMARK    5  A    between atoms: O_14  and  C_15
REMARK    6  A    between atoms: C_15  and  C_16
REMARK    7  A    between atoms: C_19  and  C_20
REMARK    8  A    between atoms: C_25  and  N_26
REMARK                            x       y       z     vdW  Elec       q    Type
REMARK                         _______ _______ _______ _____ _____    ______ ____
ROOT
ATOM      1  C   UNL     1       2.948   6.306  -8.690  0.00  0.00    +0.073 C 
ATOM      2  C   UNL     1       3.271   6.527 -10.274  0.00  0.00    +0.087 C 
ATOM      3  C   UNL     1       4.471   5.411 -10.404  0.00  0.00    +0.073 C 
ATOM      4  C   UNL     1       5.425   5.846  -9.568  0.00  0.00    +0.051 C 
ATOM      5  C   UNL     1       6.874   5.785  -9.942  0.00  0.00    +0.049 C 
ATOM      6  N   UNL     1       5.067   5.559  -8.234  0.00  0.00    -0.221 NA
ATOM      7  C   UNL     1       3.653   5.505  -7.996  0.00  0.00    +0.051 C 
ATOM      8  C   UNL     1       3.117   5.198  -6.631  0.00  0.00    +0.049 C 
ENDROOT
BRANCH   2   9
ATOM      9  C   UNL     1       2.128   5.449 -10.732  0.00  0.00    +0.055 A 
ATOM     10  C   UNL     1       1.099   6.018 -11.450  0.00  0.00    +0.287 A 
ATOM     11  C   UNL     1      -0.122   5.358 -11.427  0.00  0.00    +0.075 A 
ATOM     12  C   UNL     1      -0.264   4.141 -10.768  0.00  0.00    +0.006 A 
ATOM     13  C   UNL     1       0.865   3.553 -10.217  0.00  0.00    +0.000 A 
ATOM     14  C   UNL     1       1.874   4.440  -9.864  0.00  0.00    +0.002 A 
BRANCH  10  15
ATOM     15  N   UNL     1       1.503   6.832 -12.558  0.00  0.00    +0.081 N 
ATOM     16  O   UNL     1       2.196   6.343 -13.628  0.00  0.00    -0.576 OA
ATOM     17  O   UNL     1       0.978   7.955 -12.673  0.00  0.00    +0.041 OA
ENDBRANCH  10  15
ENDBRANCH   2   9
BRANCH   1  18
ATOM     18  C   UNL     1       2.012   7.321  -8.202  0.00  0.00    +0.339 C 
ATOM     19  O   UNL     1       2.525   8.453  -7.944  0.00  0.00    -0.245 OA
BRANCH  18  21
ATOM     20  C   UNL     1      -0.038   6.149  -7.616  0.00  0.00    +0.256 C 
ATOM     21  O   UNL     1       1.023   6.905  -7.323  0.00  0.00    -0.442 OA
ENDBRANCH  18  21
ENDBRANCH   1  18
BRANCH   3  22
ATOM     22  C   UNL     1       4.901   5.441 -11.813  0.00  0.00    +0.339 C 
ATOM     23  O   UNL     1       4.473   4.477 -12.517  0.00  0.00    -0.245 OA
BRANCH  22  24
ATOM     24  O   UNL     1       5.215   6.588 -12.514  0.00  0.00    -0.446 OA
BRANCH  24  25
ATOM     25  C   UNL     1       5.515   6.638 -13.882  0.00  0.00    +0.209 C 
BRANCH  25  26
ATOM     26  C   UNL     1       6.782   5.981 -14.296  0.00  0.00    +0.044 C 
ATOM     27  C   UNL     1       7.194   6.601 -15.628  0.00  0.00    +0.004 C 
ATOM     28  C   UNL     1       7.919   6.119 -13.341  0.00  0.00    +0.004 C 
ENDBRANCH  25  26
ENDBRANCH  24  25
ENDBRANCH  22  24
ENDBRANCH   3  22
TORSDOF 8
ENDMDL
