MODEL 1
REMARK VINA RESULT:      -6.2      0.000      0.000
REMARK  Name = 
REMARK  1 active torsions:
REMARK  status: ('A' for Active; 'I' for Inactive)
REMARK    1  A    between atoms: C_6  and  N_7
REMARK                            x       y       z     vdW  Elec       q    Type
REMARK                         _______ _______ _______ _____ _____    ______ ____
ROOT
ATOM      1  N   UNL     1      -2.754   6.019  -3.674  0.00  0.00    -0.128 NA
ATOM      2  C   UNL     1      -1.515   5.923  -4.382  0.00  0.00    +0.091 A 
ATOM      3  C   UNL     1      -0.336   5.659  -3.695  0.00  0.00    +0.032 A 
ATOM      4  C   UNL     1       0.758   5.193  -4.414  0.00  0.00    +0.094 A 
ATOM      5 CL   UNL     1       2.387   5.334  -3.758  0.00  0.00    -0.079 Cl
ATOM      6  C   UNL     1       0.643   4.984  -5.783  0.00  0.00    +0.179 A 
ATOM      7  C   UNL     1      -0.498   5.371  -6.465  0.00  0.00    +0.094 A 
ATOM      8 CL   UNL     1      -0.446   5.350  -8.220  0.00  0.00    -0.079 Cl
ATOM      9  C   UNL     1      -1.622   5.735  -5.754  0.00  0.00    +0.032 A 
ENDROOT
BRANCH   6  10
ATOM     10  N   UNL     1       1.496   3.969  -6.325  0.00  0.00    -0.069 NA
ATOM     11  C   UNL     1       2.375   4.387  -7.188  0.00  0.00    +0.439 C 
ATOM     12  N   UNL     1       3.026   5.659  -7.239  0.00  0.00    -0.060 NA
ATOM     13  C   UNL     1       3.939   5.709  -8.375  0.00  0.00    +0.251 C 
ATOM     14  C   UNL     1       3.912   4.312  -8.930  0.00  0.00    +0.251 C 
ATOM     15  N   UNL     1       2.647   3.776  -8.436  0.00  0.00    -0.060 NA
ENDBRANCH   6  10
TORSDOF 1
ENDMDL
MODEL 2
REMARK VINA RESULT:      -5.9      1.669      3.080
REMARK  Name = 
REMARK  1 active torsions:
REMARK  status: ('A' for Active; 'I' for Inactive)
REMARK    1  A    between atoms: C_6  and  N_7
REMARK                            x       y       z     vdW  Elec       q    Type
REMARK                         _______ _______ _______ _____ _____    ______ ____
ROOT
ATOM      1  N   UNL     1      -2.440   5.232  -1.533  0.00  0.00    -0.128 NA
ATOM      2  C   UNL     1      -1.691   5.268  -2.753  0.00  0.00    +0.091 A 
ATOM      3  C   UNL     1      -2.333   5.520  -3.959  0.00  0.00    +0.032 A 
ATOM      4  C   UNL     1      -1.565   5.929  -5.042  0.00  0.00    +0.094 A 
ATOM      5 CL   UNL     1      -2.175   5.764  -6.686  0.00  0.00    -0.079 Cl
ATOM      6  C   UNL     1      -0.193   6.094  -4.890  0.00  0.00    +0.179 A 
ATOM      7  C   UNL     1       0.440   5.718  -3.719  0.00  0.00    +0.094 A 
ATOM      8 CL   UNL     1       2.195   5.677  -3.717  0.00  0.00    -0.079 Cl
ATOM      9  C   UNL     1      -0.317   5.410  -2.607  0.00  0.00    +0.032 A 
ENDROOT
BRANCH   6  10
ATOM     10  N   UNL     1       0.410   7.065  -5.754  0.00  0.00    -0.069 NA
ATOM     11  C   UNL     1       1.262   6.588  -6.613  0.00  0.00    +0.439 C 
ATOM     12  N   UNL     1       1.258   5.303  -7.240  0.00  0.00    -0.060 NA
ATOM     13  C   UNL     1       2.401   5.179  -8.137  0.00  0.00    +0.251 C 
ATOM     14  C   UNL     1       3.026   6.547  -8.128  0.00  0.00    +0.251 C 
ATOM     15  N   UNL     1       2.542   7.131  -6.880  0.00  0.00    -0.060 NA
ENDBRANCH   6  10
TORSDOF 1
ENDMDL
MODEL 3
REMARK VINA RESULT:      -5.8      4.786      7.773
REMARK  Name = 
REMARK  1 active torsions:
REMARK  status: ('A' for Active; 'I' for Inactive)
REMARK    1  A    between atoms: C_6  and  N_7
REMARK                            x       y       z     vdW  Elec       q    Type
REMARK                         _______ _______ _______ _____ _____    ______ ____
ROOT
ATOM      1  N   UNL     1       8.916   5.456 -12.202  0.00  0.00    -0.128 NA
ATOM      2  C   UNL     1       7.578   5.344 -11.706  0.00  0.00    +0.091 A 
ATOM      3  C   UNL     1       7.318   5.526 -10.353  0.00  0.00    +0.032 A 
ATOM      4  C   UNL     1       6.011   5.796  -9.963  0.00  0.00    +0.094 A 
ATOM      5 CL   UNL     1       5.499   5.523  -8.299  0.00  0.00    -0.079 Cl
ATOM      6  C   UNL     1       5.013   5.896 -10.924  0.00  0.00    +0.179 A 
ATOM      7  C   UNL     1       5.271   5.588 -12.248  0.00  0.00    +0.094 A 
ATOM      8 CL   UNL     1       3.900   5.449 -13.336  0.00  0.00    -0.079 Cl
ATOM      9  C   UNL     1       6.576   5.421 -12.664  0.00  0.00    +0.032 A 
ENDROOT
BRANCH   6  10
ATOM     10  N   UNL     1       3.916   6.753 -10.585  0.00  0.00    -0.069 NA
ATOM     11  C   UNL     1       2.782   6.148 -10.387  0.00  0.00    +0.439 C 
ATOM     12  N   UNL     1       2.562   4.833  -9.867  0.00  0.00    -0.060 NA
ATOM     13  C   UNL     1       1.132   4.550  -9.812  0.00  0.00    +0.251 C 
ATOM     14  C   UNL     1       0.484   5.851 -10.195  0.00  0.00    +0.251 C 
ATOM     15  N   UNL     1       1.537   6.551 -10.926  0.00  0.00    -0.060 NA
ENDBRANCH   6  10
TORSDOF 1
ENDMDL
MODEL 4
REMARK VINA RESULT:      -5.7      2.089      5.397
REMARK  Name = 
REMARK  1 active torsions:
REMARK  status: ('A' for Active; 'I' for Inactive)
REMARK    1  A    between atoms: C_6  and  N_7
REMARK                            x       y       z     vdW  Elec       q    Type
REMARK                         _______ _______ _______ _____ _____    ______ ____
ROOT
ATOM      1  N   UNL     1       1.687   5.471  -9.256  0.00  0.00    -0.128 NA
ATOM      2  C   UNL     1       1.156   5.564  -7.930  0.00  0.00    +0.091 A 
ATOM      3  C   UNL     1       1.913   6.136  -6.914  0.00  0.00    +0.032 A 
ATOM      4  C   UNL     1       1.259   6.564  -5.765  0.00  0.00    +0.094 A 
ATOM      5 CL   UNL     1       2.149   6.798  -4.263  0.00  0.00    -0.079 Cl
ATOM      6  C   UNL     1      -0.121   6.431  -5.669  0.00  0.00    +0.179 A 
ATOM      7  C   UNL     1      -0.836   5.748  -6.637  0.00  0.00    +0.094 A 
ATOM      8 CL   UNL     1      -2.515   5.367  -6.294  0.00  0.00    -0.079 Cl
ATOM      9  C   UNL     1      -0.220   5.411  -7.824  0.00  0.00    +0.032 A 
ENDROOT
BRANCH   6  10
ATOM     10  N   UNL     1      -0.776   7.397  -4.839  0.00  0.00    -0.069 NA
ATOM     11  C   UNL     1      -1.346   6.917  -3.773  0.00  0.00    +0.439 C 
ATOM     12  N   UNL     1      -0.949   5.783  -2.996  0.00  0.00    -0.060 NA
ATOM     13  C   UNL     1      -1.872   5.592  -1.883  0.00  0.00    +0.251 C 
ATOM     14  C   UNL     1      -2.781   6.789  -1.948  0.00  0.00    +0.251 C 
ATOM     15  N   UNL     1      -2.653   7.234  -3.333  0.00  0.00    -0.060 NA
ENDBRANCH   6  10
TORSDOF 1
ENDMDL
MODEL 5
REMARK VINA RESULT:      -5.6      3.065      5.975
REMARK  Name = 
REMARK  1 active torsions:
REMARK  status: ('A' for Active; 'I' for Inactive)
REMARK    1  A    between atoms: C_6  and  N_7
REMARK                            x       y       z     vdW  Elec       q    Type
REMARK                         _______ _______ _______ _____ _____    ______ ____
ROOT
ATOM      1  N   UNL     1       5.613   7.336  -4.126  0.00  0.00    -0.128 NA
ATOM      2  C   UNL     1       4.187   7.238  -4.062  0.00  0.00    +0.091 A 
ATOM      3  C   UNL     1       3.448   7.046  -5.224  0.00  0.00    +0.032 A 
ATOM      4  C   UNL     1       2.146   6.574  -5.107  0.00  0.00    +0.094 A 
ATOM      5 CL   UNL     1       0.992   6.797  -6.419  0.00  0.00    -0.079 Cl
ATOM      6  C   UNL     1       1.628   6.288  -3.850  0.00  0.00    +0.179 A 
ATOM      7  C   UNL     1       2.335   6.604  -2.703  0.00  0.00    +0.094 A 
ATOM      8 CL   UNL     1       1.493   6.490  -1.167  0.00  0.00    -0.079 Cl
ATOM      9  C   UNL     1       3.661   6.974  -2.804  0.00  0.00    +0.032 A 
ENDROOT
BRANCH   6  10
ATOM     10  N   UNL     1       0.621   5.271  -3.816  0.00  0.00    -0.069 NA
ATOM     11  C   UNL     1      -0.569   5.679  -3.486  0.00  0.00    +0.439 C 
ATOM     12  N   UNL     1      -1.164   6.956  -3.734  0.00  0.00    -0.060 NA
ATOM     13  C   UNL     1      -2.516   6.992  -3.190  0.00  0.00    +0.251 C 
ATOM     14  C   UNL     1      -2.763   5.585  -2.721  0.00  0.00    +0.251 C 
ATOM     15  N   UNL     1      -1.417   5.048  -2.544  0.00  0.00    -0.060 NA
ENDBRANCH   6  10
TORSDOF 1
ENDMDL
MODEL 6
REMARK VINA RESULT:      -5.5      3.344      4.142
REMARK  Name = 
REMARK  1 active torsions:
REMARK  status: ('A' for Active; 'I' for Inactive)
REMARK    1  A    between atoms: C_6  and  N_7
REMARK                            x       y       z     vdW  Elec       q    Type
REMARK                         _______ _______ _______ _____ _____    ______ ____
ROOT
ATOM      1  N   UNL     1       3.501   6.086   0.087  0.00  0.00    -0.128 NA
ATOM      2  C   UNL     1       3.391   6.349  -1.315  0.00  0.00    +0.091 A 
ATOM      3  C   UNL     1       4.469   6.882  -2.012  0.00  0.00    +0.032 A 
ATOM      4  C   UNL     1       4.482   6.767  -3.397  0.00  0.00    +0.094 A 
ATOM      5 CL   UNL     1       5.488   7.833  -4.374  0.00  0.00    -0.079 Cl
ATOM      6  C   UNL     1       3.441   6.111  -4.043  0.00  0.00    +0.179 A 
ATOM      7  C   UNL     1       2.321   5.699  -3.343  0.00  0.00    +0.094 A 
ATOM      8 CL   UNL     1       0.933   5.155  -4.270  0.00  0.00    -0.079 Cl
ATOM      9  C   UNL     1       2.340   5.713  -1.963  0.00  0.00    +0.032 A 
ENDROOT
BRANCH   6  10
ATOM     10  N   UNL     1       3.784   5.485  -5.284  0.00  0.00    -0.069 NA
ATOM     11  C   UNL     1       3.252   6.023  -6.342  0.00  0.00    +0.439 C 
ATOM     12  N   UNL     1       2.911   7.395  -6.558  0.00  0.00    -0.060 NA
ATOM     13  C   UNL     1       2.332   7.564  -7.885  0.00  0.00    +0.251 C 
ATOM     14  C   UNL     1       2.484   6.213  -8.528  0.00  0.00    +0.251 C 
ATOM     15  N   UNL     1       2.618   5.311  -7.389  0.00  0.00    -0.060 NA
ENDBRANCH   6  10
TORSDOF 1
ENDMDL
MODEL 7
REMARK VINA RESULT:      -5.4      2.269      3.569
REMARK  Name = 
REMARK  1 active torsions:
REMARK  status: ('A' for Active; 'I' for Inactive)
REMARK    1  A    between atoms: C_6  and  N_7
REMARK                            x       y       z     vdW  Elec       q    Type
REMARK                         _______ _______ _______ _____ _____    ______ ____
ROOT
ATOM      1  N   UNL     1      -3.845   5.566  -2.945  0.00  0.00    -0.128 NA
ATOM      2  C   UNL     1      -2.509   5.462  -3.448  0.00  0.00    +0.091 A 
ATOM      3  C   UNL     1      -2.265   5.588  -4.811  0.00  0.00    +0.032 A 
ATOM      4  C   UNL     1      -0.968   5.870  -5.225  0.00  0.00    +0.094 A 
ATOM      5 CL   UNL     1      -0.464   5.533  -6.879  0.00  0.00    -0.079 Cl
ATOM      6  C   UNL     1       0.035   6.037  -4.279  0.00  0.00    +0.179 A 
ATOM      7  C   UNL     1      -0.204   5.784  -2.940  0.00  0.00    +0.094 A 
ATOM      8 CL   UNL     1       1.179   5.727  -1.860  0.00  0.00    -0.079 Cl
ATOM      9  C   UNL     1      -1.501   5.606  -2.504  0.00  0.00    +0.032 A 
ENDROOT
BRANCH   6  10
ATOM     10  N   UNL     1       1.109   6.903  -4.667  0.00  0.00    -0.069 NA
ATOM     11  C   UNL     1       2.283   6.345  -4.710  0.00  0.00    +0.439 C 
ATOM     12  N   UNL     1       2.603   4.987  -5.026  0.00  0.00    -0.060 NA
ATOM     13  C   UNL     1       4.045   4.783  -4.954  0.00  0.00    +0.251 C 
ATOM     14  C   UNL     1       4.600   6.160  -4.718  0.00  0.00    +0.251 C 
ATOM     15  N   UNL     1       3.466   6.890  -4.158  0.00  0.00    -0.060 NA
ENDBRANCH   6  10
TORSDOF 1
ENDMDL
MODEL 8
REMARK VINA RESULT:      -5.4      4.498      6.460
REMARK  Name = 
REMARK  1 active torsions:
REMARK  status: ('A' for Active; 'I' for Inactive)
REMARK    1  A    between atoms: C_6  and  N_7
REMARK                            x       y       z     vdW  Elec       q    Type
REMARK                         _______ _______ _______ _____ _____    ______ ____
ROOT
ATOM      1  N   UNL     1       3.994   7.311   0.882  0.00  0.00    -0.128 NA
ATOM      2  C   UNL     1       2.928   7.089  -0.047  0.00  0.00    +0.091 A 
ATOM      3  C   UNL     1       3.163   6.388  -1.224  0.00  0.00    +0.032 A 
ATOM      4  C   UNL     1       2.074   5.856  -1.904  0.00  0.00    +0.094 A 
ATOM      5 CL   UNL     1       2.202   5.432  -3.609  0.00  0.00    -0.079 Cl
ATOM      6  C   UNL     1       0.794   6.017  -1.386  0.00  0.00    +0.179 A 
ATOM      7  C   UNL     1       0.572   6.823  -0.283  0.00  0.00    +0.094 A 
ATOM      8 CL   UNL     1      -1.091   7.212   0.122  0.00  0.00    -0.079 Cl
ATOM      9  C   UNL     1       1.647   7.269   0.458  0.00  0.00    +0.032 A 
ENDROOT
BRANCH   6  10
ATOM     10  N   UNL     1      -0.141   4.985  -1.723  0.00  0.00    -0.069 NA
ATOM     11  C   UNL     1      -1.145   5.365  -2.456  0.00  0.00    +0.439 C 
ATOM     12  N   UNL     1      -1.176   6.402  -3.441  0.00  0.00    -0.060 NA
ATOM     13  C   UNL     1      -2.509   6.497  -4.026  0.00  0.00    +0.251 C 
ATOM     14  C   UNL     1      -3.256   5.336  -3.431  0.00  0.00    +0.251 C 
ATOM     15  N   UNL     1      -2.501   5.034  -2.218  0.00  0.00    -0.060 NA
ENDBRANCH   6  10
TORSDOF 1
ENDMDL
MODEL 9
REMARK VINA RESULT:      -5.4      3.557      5.073
REMARK  Name = 
REMARK  1 active torsions:
REMARK  status: ('A' for Active; 'I' for Inactive)
REMARK    1  A    between atoms: C_6  and  N_7
REMARK                            x       y       z     vdW  Elec       q    Type
REMARK                         _______ _______ _______ _____ _____    ______ ____
ROOT
ATOM      1  N   UNL     1       2.228   8.166  -7.797  0.00  0.00    -0.128 NA
ATOM      2  C   UNL     1       2.238   7.099  -6.844  0.00  0.00    +0.091 A 
ATOM      3  C   UNL     1       3.444   6.591  -6.377  0.00  0.00    +0.032 A 
ATOM      4  C   UNL     1       3.437   5.852  -5.200  0.00  0.00    +0.094 A 
ATOM      5 CL   UNL     1       4.765   4.757  -4.822  0.00  0.00    -0.079 Cl
ATOM      6  C   UNL     1       2.243   5.658  -4.515  0.00  0.00    +0.179 A 
ATOM      7  C   UNL     1       1.039   6.065  -5.063  0.00  0.00    +0.094 A 
ATOM      8 CL   UNL     1      -0.437   5.520  -4.284  0.00  0.00    -0.079 Cl
ATOM      9  C   UNL     1       1.041   6.886  -6.172  0.00  0.00    +0.032 A 
ENDROOT
BRANCH   6  10
ATOM     10  N   UNL     1       2.367   5.482  -3.099  0.00  0.00    -0.069 NA
ATOM     11  C   UNL     1       3.014   6.424  -2.478  0.00  0.00    +0.439 C 
ATOM     12  N   UNL     1       3.087   7.813  -2.812  0.00  0.00    -0.060 NA
ATOM     13  C   UNL     1       3.926   8.516  -1.849  0.00  0.00    +0.251 C 
ATOM     14  C   UNL     1       4.240   7.478  -0.807  0.00  0.00    +0.251 C 
ATOM     15  N   UNL     1       4.029   6.217  -1.513  0.00  0.00    -0.060 NA
ENDBRANCH   6  10
TORSDOF 1
ENDMDL
