MODEL 1
REMARK VINA RESULT:      -7.9      0.000      0.000
REMARK  Name = 
REMARK  6 active torsions:
REMARK  status: ('A' for Active; 'I' for Inactive)
REMARK    1  A    between atoms: C_6  and  C_7
REMARK    2  A    between atoms: C_7  and  C_8
REMARK    3  A    between atoms: C_8  and  O_9
REMARK    4  A    between atoms: O_9  and  C_10
REMARK    5  A    between atoms: C_10  and  C_12
REMARK    6  A    between atoms: C_10  and  C_18
REMARK                            x       y       z     vdW  Elec       q    Type
REMARK                         _______ _______ _______ _____ _____    ______ ____
ROOT
ATOM      1  C   UNL     1       3.292   5.607  -7.815  0.00  0.00    +0.130 C 
ATOM      2  C   UNL     1       2.853   4.148  -7.811  0.00  0.00    +0.039 C 
ENDROOT
BRANCH   1   3
ATOM      3  C   UNL     1       4.313   5.793  -8.865  0.00  0.00    +0.006 A 
ATOM      4  C   UNL     1       5.603   5.337  -8.629  0.00  0.00    -0.001 A 
ATOM      5  C   UNL     1       6.666   5.754  -9.421  0.00  0.00    +0.011 A 
ATOM      6  C   UNL     1       6.406   6.552 -10.527  0.00  0.00    +0.058 A 
ATOM      7 CL   UNL     1       7.528   6.581 -11.884  0.00  0.00    -0.082 Cl
ATOM      8  C   UNL     1       5.131   7.073 -10.698  0.00  0.00    +0.011 A 
ATOM      9  C   UNL     1       4.145   6.808  -9.783  0.00  0.00    -0.001 A 
ENDBRANCH   1   3
BRANCH   1  10
ATOM     10  C   UNL     1       3.818   5.900  -6.457  0.00  0.00    +0.006 A 
ATOM     11  C   UNL     1       3.799   7.173  -5.903  0.00  0.00    -0.002 A 
ATOM     12  C   UNL     1       4.359   7.314  -4.643  0.00  0.00    -0.000 A 
ATOM     13  C   UNL     1       5.032   6.265  -4.032  0.00  0.00    -0.000 A 
ATOM     14  C   UNL     1       4.646   4.986  -4.403  0.00  0.00    -0.000 A 
ATOM     15  C   UNL     1       3.970   4.814  -5.604  0.00  0.00    -0.002 A 
ENDBRANCH   1  10
BRANCH   1  16
ATOM     16  O   UNL     1       2.186   6.434  -8.030  0.00  0.00    -0.350 OA
BRANCH  16  17
ATOM     17  C   UNL     1       1.040   5.670  -7.793  0.00  0.00    +0.144 C 
BRANCH  17  18
ATOM     18  C   UNL     1       0.192   6.275  -6.704  0.00  0.00    +0.048 C 
BRANCH  18  21
ATOM     19  C   UNL     1      -2.392   5.835  -6.387  0.00  0.00    +0.090 C 
ATOM     20  N   UNL     1      -1.545   5.683  -5.212  0.00  0.00    -0.273 NA
ATOM     21  C   UNL     1      -0.292   4.924  -5.851  0.00  0.00    +0.060 C 
ATOM     22  C   UNL     1       0.683   5.303  -4.552  0.00  0.00    +0.017 C 
ATOM     23  C   UNL     1       0.421   6.755  -4.415  0.00  0.00    +0.019 C 
ATOM     24  C   UNL     1      -0.977   6.939  -4.887  0.00  0.00    +0.072 C 
ENDBRANCH  18  21
ENDBRANCH  17  18
ENDBRANCH  16  17
ENDBRANCH   1  16
TORSDOF 6
ENDMDL
MODEL 2
REMARK VINA RESULT:      -7.5      3.722      7.205
REMARK  Name = 
REMARK  6 active torsions:
REMARK  status: ('A' for Active; 'I' for Inactive)
REMARK    1  A    between atoms: C_6  and  C_7
REMARK    2  A    between atoms: C_7  and  C_8
REMARK    3  A    between atoms: C_8  and  O_9
REMARK    4  A    between atoms: O_9  and  C_10
REMARK    5  A    between atoms: C_10  and  C_12
REMARK    6  A    between atoms: C_10  and  C_18
REMARK                            x       y       z     vdW  Elec       q    Type
REMARK                         _______ _______ _______ _____ _____    ______ ____
ROOT
ATOM      1  C   UNL     1       1.465   5.545  -7.796  0.00  0.00    +0.130 C 
ATOM      2  C   UNL     1       1.983   4.121  -7.637  0.00  0.00    +0.039 C 
ENDROOT
BRANCH   1   3
ATOM      3  C   UNL     1       0.428   5.789  -6.774  0.00  0.00    +0.006 A 
ATOM      4  C   UNL     1      -0.855   5.309  -6.997  0.00  0.00    -0.001 A 
ATOM      5  C   UNL     1      -1.931   5.767  -6.248  0.00  0.00    +0.011 A 
ATOM      6  C   UNL     1      -1.692   6.637  -5.192  0.00  0.00    +0.058 A 
ATOM      7 CL   UNL     1      -2.834   6.744  -3.855  0.00  0.00    -0.082 Cl
ATOM      8  C   UNL     1      -0.424   7.178  -5.038  0.00  0.00    +0.011 A 
ATOM      9  C   UNL     1       0.576   6.863  -5.921  0.00  0.00    -0.001 A 
ENDBRANCH   1   3
BRANCH   1  10
ATOM     10  C   UNL     1       0.933   5.654  -9.179  0.00  0.00    +0.006 A 
ATOM     11  C   UNL     1       0.835   6.866  -9.851  0.00  0.00    -0.002 A 
ATOM     12  C   UNL     1       0.282   6.831 -11.121  0.00  0.00    -0.000 A 
ATOM     13  C   UNL     1      -0.276   5.669 -11.633  0.00  0.00    -0.000 A 
ATOM     14  C   UNL     1       0.229   4.474 -11.141  0.00  0.00    -0.000 A 
ATOM     15  C   UNL     1       0.900   4.484  -9.925  0.00  0.00    -0.002 A 
ENDBRANCH   1  10
BRANCH   1  16
ATOM     16  O   UNL     1       2.522   6.449  -7.674  0.00  0.00    -0.350 OA
BRANCH  16  17
ATOM     17  C   UNL     1       3.708   5.737  -7.871  0.00  0.00    +0.144 C 
BRANCH  17  18
ATOM     18  C   UNL     1       4.538   6.344  -8.973  0.00  0.00    +0.048 C 
BRANCH  18  21
ATOM     19  C   UNL     1       7.092   5.757  -9.288  0.00  0.00    +0.090 C 
ATOM     20  N   UNL     1       6.250   5.708 -10.475  0.00  0.00    -0.273 NA
ATOM     21  C   UNL     1       4.946   5.003  -9.879  0.00  0.00    +0.060 C 
ATOM     22  C   UNL     1       4.010   5.496 -11.169  0.00  0.00    +0.017 C 
ATOM     23  C   UNL     1       4.363   6.933 -11.241  0.00  0.00    +0.019 C 
ATOM     24  C   UNL     1       5.765   7.009 -10.750  0.00  0.00    +0.072 C 
ENDBRANCH  18  21
ENDBRANCH  17  18
ENDBRANCH  16  17
ENDBRANCH   1  16
TORSDOF 6
ENDMDL
MODEL 3
REMARK VINA RESULT:      -7.3      1.828      3.918
REMARK  Name = 
REMARK  6 active torsions:
REMARK  status: ('A' for Active; 'I' for Inactive)
REMARK    1  A    between atoms: C_6  and  C_7
REMARK    2  A    between atoms: C_7  and  C_8
REMARK    3  A    between atoms: C_8  and  O_9
REMARK    4  A    between atoms: O_9  and  C_10
REMARK    5  A    between atoms: C_10  and  C_12
REMARK    6  A    between atoms: C_10  and  C_18
REMARK                            x       y       z     vdW  Elec       q    Type
REMARK                         _______ _______ _______ _____ _____    ______ ____
ROOT
ATOM      1  C   UNL     1       3.081   6.126  -8.696  0.00  0.00    +0.130 C 
ATOM      2  C   UNL     1       2.851   7.544  -8.187  0.00  0.00    +0.039 C 
ENDROOT
BRANCH   1   3
ATOM      3  C   UNL     1       4.349   6.094  -9.453  0.00  0.00    +0.006 A 
ATOM      4  C   UNL     1       5.442   5.443  -8.895  0.00  0.00    -0.001 A 
ATOM      5  C   UNL     1       6.724   5.644  -9.392  0.00  0.00    +0.011 A 
ATOM      6  C   UNL     1       6.889   6.423 -10.530  0.00  0.00    +0.058 A 
ATOM      7 CL   UNL     1       8.303   6.206 -11.557  0.00  0.00    -0.082 Cl
ATOM      8  C   UNL     1       5.805   7.138 -11.020  0.00  0.00    +0.011 A 
ATOM      9  C   UNL     1       4.592   7.081 -10.385  0.00  0.00    -0.001 A 
ENDBRANCH   1   3
BRANCH   1  10
ATOM     10  C   UNL     1       1.909   5.780  -9.541  0.00  0.00    +0.006 A 
ATOM     11  C   UNL     1       1.502   4.470  -9.758  0.00  0.00    -0.002 A 
ATOM     12  C   UNL     1       0.417   4.285 -10.601  0.00  0.00    -0.000 A 
ATOM     13  C   UNL     1      -0.138   5.345 -11.303  0.00  0.00    -0.000 A 
ATOM     14  C   UNL     1       0.002   6.602 -10.734  0.00  0.00    -0.000 A 
ATOM     15  C   UNL     1       1.001   6.800  -9.790  0.00  0.00    -0.002 A 
ENDBRANCH   1  10
BRANCH   1  16
ATOM     16  O   UNL     1       3.109   5.235  -7.621  0.00  0.00    -0.350 OA
BRANCH  16  17
ATOM     17  C   UNL     1       3.115   5.995  -6.448  0.00  0.00    +0.144 C 
BRANCH  17  18
ATOM     18  C   UNL     1       2.093   5.490  -5.461  0.00  0.00    +0.048 C 
BRANCH  18  21
ATOM     19  C   UNL     1       2.027   5.641  -2.827  0.00  0.00    +0.090 C 
ATOM     20  N   UNL     1       0.861   6.130  -3.547  0.00  0.00    -0.273 NA
ATOM     21  C   UNL     1       1.566   6.907  -4.753  0.00  0.00    +0.060 C 
ATOM     22  C   UNL     1       0.161   6.922  -5.652  0.00  0.00    +0.017 C 
ATOM     23  C   UNL     1      -0.255   5.503  -5.550  0.00  0.00    +0.019 C 
ATOM     24  C   UNL     1       0.252   5.048  -4.228  0.00  0.00    +0.072 C 
ENDBRANCH  18  21
ENDBRANCH  17  18
ENDBRANCH  16  17
ENDBRANCH   1  16
TORSDOF 6
ENDMDL
MODEL 4
REMARK VINA RESULT:      -7.2      1.307      2.398
REMARK  Name = 
REMARK  6 active torsions:
REMARK  status: ('A' for Active; 'I' for Inactive)
REMARK    1  A    between atoms: C_6  and  C_7
REMARK    2  A    between atoms: C_7  and  C_8
REMARK    3  A    between atoms: C_8  and  O_9
REMARK    4  A    between atoms: O_9  and  C_10
REMARK    5  A    between atoms: C_10  and  C_12
REMARK    6  A    between atoms: C_10  and  C_18
REMARK                            x       y       z     vdW  Elec       q    Type
REMARK                         _______ _______ _______ _____ _____    ______ ____
ROOT
ATOM      1  C   UNL     1       2.666   5.620  -6.450  0.00  0.00    +0.130 C 
ATOM      2  C   UNL     1       2.430   4.120  -6.570  0.00  0.00    +0.039 C 
ENDROOT
BRANCH   1   3
ATOM      3  C   UNL     1       3.478   6.066  -7.600  0.00  0.00    +0.006 A 
ATOM      4  C   UNL     1       2.897   6.906  -8.541  0.00  0.00    -0.001 A 
ATOM      5  C   UNL     1       3.484   7.101  -9.785  0.00  0.00    +0.011 A 
ATOM      6  C   UNL     1       4.724   6.530 -10.040  0.00  0.00    +0.058 A 
ATOM      7 CL   UNL     1       5.786   7.223 -11.262  0.00  0.00    -0.082 Cl
ATOM      8  C   UNL     1       5.248   5.623  -9.130  0.00  0.00    +0.011 A 
ATOM      9  C   UNL     1       4.547   5.291  -7.999  0.00  0.00    -0.001 A 
ENDBRANCH   1   3
BRANCH   1  10
ATOM     10  C   UNL     1       3.355   5.842  -5.152  0.00  0.00    +0.006 A 
ATOM     11  C   UNL     1       3.851   4.801  -4.379  0.00  0.00    -0.002 A 
ATOM     12  C   UNL     1       4.434   5.145  -3.170  0.00  0.00    -0.000 A 
ATOM     13  C   UNL     1       4.393   6.448  -2.694  0.00  0.00    -0.000 A 
ATOM     14  C   UNL     1       4.301   7.450  -3.650  0.00  0.00    -0.000 A 
ATOM     15  C   UNL     1       3.836   7.123  -4.917  0.00  0.00    -0.002 A 
ENDBRANCH   1  10
BRANCH   1  16
ATOM     16  O   UNL     1       1.442   6.290  -6.403  0.00  0.00    -0.350 OA
BRANCH  16  17
ATOM     17  C   UNL     1       0.434   5.323  -6.438  0.00  0.00    +0.144 C 
BRANCH  17  18
ATOM     18  C   UNL     1      -0.679   5.655  -5.476  0.00  0.00    +0.048 C 
BRANCH  18  21
ATOM     19  C   UNL     1       0.352   5.266  -3.078  0.00  0.00    +0.090 C 
ATOM     20  N   UNL     1      -0.538   6.406  -3.238  0.00  0.00    -0.273 NA
ATOM     21  C   UNL     1      -0.048   6.964  -4.653  0.00  0.00    +0.060 C 
ATOM     22  C   UNL     1      -1.440   7.859  -4.857  0.00  0.00    +0.017 C 
ATOM     23  C   UNL     1      -2.476   6.847  -4.542  0.00  0.00    +0.019 C 
ATOM     24  C   UNL     1      -1.836   5.937  -3.555  0.00  0.00    +0.072 C 
ENDBRANCH  18  21
ENDBRANCH  17  18
ENDBRANCH  16  17
ENDBRANCH   1  16
TORSDOF 6
ENDMDL
MODEL 5
REMARK VINA RESULT:      -7.2      3.308      6.013
REMARK  Name = 
REMARK  6 active torsions:
REMARK  status: ('A' for Active; 'I' for Inactive)
REMARK    1  A    between atoms: C_6  and  C_7
REMARK    2  A    between atoms: C_7  and  C_8
REMARK    3  A    between atoms: C_8  and  O_9
REMARK    4  A    between atoms: O_9  and  C_10
REMARK    5  A    between atoms: C_10  and  C_12
REMARK    6  A    between atoms: C_10  and  C_18
REMARK                            x       y       z     vdW  Elec       q    Type
REMARK                         _______ _______ _______ _____ _____    ______ ____
ROOT
ATOM      1  C   UNL     1       1.602   6.101  -5.947  0.00  0.00    +0.130 C 
ATOM      2  C   UNL     1       1.834   4.641  -6.316  0.00  0.00    +0.039 C 
ENDROOT
BRANCH   1   3
ATOM      3  C   UNL     1       2.359   6.405  -4.716  0.00  0.00    +0.006 A 
ATOM      4  C   UNL     1       3.446   7.265  -4.798  0.00  0.00    -0.001 A 
ATOM      5  C   UNL     1       4.376   7.342  -3.768  0.00  0.00    +0.011 A 
ATOM      6  C   UNL     1       4.147   6.625  -2.601  0.00  0.00    +0.058 A 
ATOM      7 CL   UNL     1       4.875   7.143  -1.084  0.00  0.00    -0.082 Cl
ATOM      8  C   UNL     1       3.110   5.703  -2.569  0.00  0.00    +0.011 A 
ATOM      9  C   UNL     1       2.329   5.499  -3.677  0.00  0.00    -0.001 A 
ENDBRANCH   1   3
BRANCH   1  10
ATOM     10  C   UNL     1       0.137   6.268  -5.766  0.00  0.00    +0.006 A 
ATOM     11  C   UNL     1      -0.415   7.332  -5.065  0.00  0.00    -0.002 A 
ATOM     12  C   UNL     1      -1.795   7.346  -4.937  0.00  0.00    -0.000 A 
ATOM     13  C   UNL     1      -2.569   6.275  -5.361  0.00  0.00    -0.000 A 
ATOM     14  C   UNL     1      -2.047   5.508  -6.392  0.00  0.00    -0.000 A 
ATOM     15  C   UNL     1      -0.681   5.559  -6.636  0.00  0.00    -0.002 A 
ENDBRANCH   1  10
BRANCH   1  16
ATOM     16  O   UNL     1       1.997   6.925  -7.003  0.00  0.00    -0.350 OA
BRANCH  16  17
ATOM     17  C   UNL     1       2.488   6.099  -8.018  0.00  0.00    +0.144 C 
BRANCH  17  18
ATOM     18  C   UNL     1       1.900   6.465  -9.357  0.00  0.00    +0.048 C 
BRANCH  18  21
ATOM     19  C   UNL     1       3.268   6.190 -11.597  0.00  0.00    +0.090 C 
ATOM     20  N   UNL     1       1.909   5.669 -11.584  0.00  0.00    -0.273 NA
ATOM     21  C   UNL     1       1.870   4.990 -10.138  0.00  0.00    +0.060 C 
ATOM     22  C   UNL     1       0.204   4.936 -10.135  0.00  0.00    +0.017 C 
ATOM     23  C   UNL     1      -0.125   6.322 -10.542  0.00  0.00    +0.019 C 
ATOM     24  C   UNL     1       1.004   6.744 -11.413  0.00  0.00    +0.072 C 
ENDBRANCH  18  21
ENDBRANCH  17  18
ENDBRANCH  16  17
ENDBRANCH   1  16
TORSDOF 6
ENDMDL
MODEL 6
REMARK VINA RESULT:      -7.2      1.338      1.980
REMARK  Name = 
REMARK  6 active torsions:
REMARK  status: ('A' for Active; 'I' for Inactive)
REMARK    1  A    between atoms: C_6  and  C_7
REMARK    2  A    between atoms: C_7  and  C_8
REMARK    3  A    between atoms: C_8  and  O_9
REMARK    4  A    between atoms: O_9  and  C_10
REMARK    5  A    between atoms: C_10  and  C_12
REMARK    6  A    between atoms: C_10  and  C_18
REMARK                            x       y       z     vdW  Elec       q    Type
REMARK                         _______ _______ _______ _____ _____    ______ ____
ROOT
ATOM      1  C   UNL     1       2.468   5.391  -6.673  0.00  0.00    +0.130 C 
ATOM      2  C   UNL     1       2.186   3.915  -6.423  0.00  0.00    +0.039 C 
ENDROOT
BRANCH   1   3
ATOM      3  C   UNL     1       3.048   5.541  -8.023  0.00  0.00    +0.006 A 
ATOM      4  C   UNL     1       4.310   5.016  -8.269  0.00  0.00    -0.001 A 
ATOM      5  C   UNL     1       5.033   5.391  -9.394  0.00  0.00    +0.011 A 
ATOM      6  C   UNL     1       4.433   6.219 -10.333  0.00  0.00    +0.058 A 
ATOM      7 CL   UNL     1       4.988   6.212 -12.005  0.00  0.00    -0.082 Cl
ATOM      8  C   UNL     1       3.213   6.807 -10.032  0.00  0.00    +0.011 A 
ATOM      9  C   UNL     1       2.614   6.578  -8.821  0.00  0.00    -0.001 A 
ENDBRANCH   1   3
BRANCH   1  10
ATOM     10  C   UNL     1       3.401   5.835  -5.604  0.00  0.00    +0.006 A 
ATOM     11  C   UNL     1       3.643   7.174  -5.330  0.00  0.00    -0.002 A 
ATOM     12  C   UNL     1       4.567   7.450  -4.334  0.00  0.00    -0.000 A 
ATOM     13  C   UNL     1       5.315   6.440  -3.746  0.00  0.00    -0.000 A 
ATOM     14  C   UNL     1       4.742   5.177  -3.732  0.00  0.00    -0.000 A 
ATOM     15  C   UNL     1       3.724   4.896  -4.634  0.00  0.00    -0.002 A 
ENDBRANCH   1  10
BRANCH   1  16
ATOM     16  O   UNL     1       1.289   6.127  -6.542  0.00  0.00    -0.350 OA
BRANCH  16  17
ATOM     17  C   UNL     1       0.229   5.218  -6.499  0.00  0.00    +0.144 C 
BRANCH  17  18
ATOM     18  C   UNL     1      -0.767   5.583  -5.428  0.00  0.00    +0.048 C 
BRANCH  18  21
ATOM     19  C   UNL     1       0.375   5.266  -3.070  0.00  0.00    +0.090 C 
ATOM     20  N   UNL     1      -0.471   6.438  -3.243  0.00  0.00    -0.273 NA
ATOM     21  C   UNL     1      -0.034   6.901  -4.709  0.00  0.00    +0.060 C 
ATOM     22  C   UNL     1      -1.394   7.849  -4.887  0.00  0.00    +0.017 C 
ATOM     23  C   UNL     1      -2.456   6.904  -4.466  0.00  0.00    +0.019 C 
ATOM     24  C   UNL     1      -1.804   6.016  -3.467  0.00  0.00    +0.072 C 
ENDBRANCH  18  21
ENDBRANCH  17  18
ENDBRANCH  16  17
ENDBRANCH   1  16
TORSDOF 6
ENDMDL
MODEL 7
REMARK VINA RESULT:      -7.2      2.098      4.433
REMARK  Name = 
REMARK  6 active torsions:
REMARK  status: ('A' for Active; 'I' for Inactive)
REMARK    1  A    between atoms: C_6  and  C_7
REMARK    2  A    between atoms: C_7  and  C_8
REMARK    3  A    between atoms: C_8  and  O_9
REMARK    4  A    between atoms: O_9  and  C_10
REMARK    5  A    between atoms: C_10  and  C_12
REMARK    6  A    between atoms: C_10  and  C_18
REMARK                            x       y       z     vdW  Elec       q    Type
REMARK                         _______ _______ _______ _____ _____    ______ ____
ROOT
ATOM      1  C   UNL     1       2.551   6.349  -8.405  0.00  0.00    +0.130 C 
ATOM      2  C   UNL     1       2.139   7.757  -7.998  0.00  0.00    +0.039 C 
ENDROOT
BRANCH   1   3
ATOM      3  C   UNL     1       3.932   6.390  -8.927  0.00  0.00    +0.006 A 
ATOM      4  C   UNL     1       4.156   6.949 -10.178  0.00  0.00    -0.001 A 
ATOM      5  C   UNL     1       5.352   6.737 -10.852  0.00  0.00    +0.011 A 
ATOM      6  C   UNL     1       6.371   6.046 -10.211  0.00  0.00    +0.058 A 
ATOM      7 CL   UNL     1       8.048   6.289 -10.694  0.00  0.00    -0.082 Cl
ATOM      8  C   UNL     1       6.104   5.418  -9.004  0.00  0.00    +0.011 A 
ATOM      9  C   UNL     1       4.848   5.473  -8.456  0.00  0.00    -0.001 A 
ENDBRANCH   1   3
BRANCH   1  10
ATOM     10  C   UNL     1       1.574   5.896  -9.429  0.00  0.00    +0.006 A 
ATOM     11  C   UNL     1       1.318   4.555  -9.680  0.00  0.00    -0.002 A 
ATOM     12  C   UNL     1       0.413   4.271 -10.691  0.00  0.00    -0.000 A 
ATOM     13  C   UNL     1      -0.099   5.274 -11.503  0.00  0.00    -0.000 A 
ATOM     14  C   UNL     1      -0.161   6.543 -10.948  0.00  0.00    -0.000 A 
ATOM     15  C   UNL     1       0.642   6.834  -9.853  0.00  0.00    -0.002 A 
ENDBRANCH   1  10
BRANCH   1  16
ATOM     16  O   UNL     1       2.448   5.489  -7.309  0.00  0.00    -0.350 OA
BRANCH  16  17
ATOM     17  C   UNL     1       1.708   6.151  -6.326  0.00  0.00    +0.144 C 
BRANCH  17  18
ATOM     18  C   UNL     1       2.604   6.731  -5.261  0.00  0.00    +0.048 C 
BRANCH  18  21
ATOM     19  C   UNL     1       1.765   6.253  -2.805  0.00  0.00    +0.090 C 
ATOM     20  N   UNL     1       3.189   6.091  -3.061  0.00  0.00    -0.273 NA
ATOM     21  C   UNL     1       3.149   5.359  -4.481  0.00  0.00    +0.060 C 
ATOM     22  C   UNL     1       4.746   5.727  -4.790  0.00  0.00    +0.017 C 
ATOM     23  C   UNL     1       4.771   7.173  -4.467  0.00  0.00    +0.019 C 
ATOM     24  C   UNL     1       3.741   7.347  -3.408  0.00  0.00    +0.072 C 
ENDBRANCH  18  21
ENDBRANCH  17  18
ENDBRANCH  16  17
ENDBRANCH   1  16
TORSDOF 6
ENDMDL
MODEL 8
REMARK VINA RESULT:      -7.2      2.695      4.601
REMARK  Name = 
REMARK  6 active torsions:
REMARK  status: ('A' for Active; 'I' for Inactive)
REMARK    1  A    between atoms: C_6  and  C_7
REMARK    2  A    between atoms: C_7  and  C_8
REMARK    3  A    between atoms: C_8  and  O_9
REMARK    4  A    between atoms: O_9  and  C_10
REMARK    5  A    between atoms: C_10  and  C_12
REMARK    6  A    between atoms: C_10  and  C_18
REMARK                            x       y       z     vdW  Elec       q    Type
REMARK                         _______ _______ _______ _____ _____    ______ ____
ROOT
ATOM      1  C   UNL     1       3.626   6.115  -9.986  0.00  0.00    +0.130 C 
ATOM      2  C   UNL     1       3.527   4.689  -9.461  0.00  0.00    +0.039 C 
ENDROOT
BRANCH   1   3
ATOM      3  C   UNL     1       2.875   6.207 -11.255  0.00  0.00    +0.006 A 
ATOM      4  C   UNL     1       1.494   6.350 -11.203  0.00  0.00    -0.001 A 
ATOM      5  C   UNL     1       0.710   6.126 -12.328  0.00  0.00    +0.011 A 
ATOM      6  C   UNL     1       1.334   5.861 -13.540  0.00  0.00    +0.058 A 
ATOM      7 CL   UNL     1       0.505   6.200 -15.057  0.00  0.00    -0.082 Cl
ATOM      8  C   UNL     1       2.702   5.631 -13.558  0.00  0.00    +0.011 A 
ATOM      9  C   UNL     1       3.425   5.658 -12.394  0.00  0.00    -0.001 A 
ENDBRANCH   1   3
BRANCH   1  10
ATOM     10  C   UNL     1       5.072   6.406 -10.163  0.00  0.00    +0.006 A 
ATOM     11  C   UNL     1       5.534   7.545 -10.809  0.00  0.00    -0.002 A 
ATOM     12  C   UNL     1       6.908   7.674 -10.940  0.00  0.00    -0.000 A 
ATOM     13  C   UNL     1       7.766   6.647 -10.574  0.00  0.00    -0.000 A 
ATOM     14  C   UNL     1       7.312   5.789  -9.583  0.00  0.00    -0.000 A 
ATOM     15  C   UNL     1       5.949   5.720  -9.333  0.00  0.00    -0.002 A 
ENDBRANCH   1  10
BRANCH   1  16
ATOM     16  O   UNL     1       3.125   7.006  -9.034  0.00  0.00    -0.350 OA
BRANCH  16  17
ATOM     17  C   UNL     1       2.501   6.249  -8.040  0.00  0.00    +0.144 C 
BRANCH  17  18
ATOM     18  C   UNL     1       2.864   6.744  -6.663  0.00  0.00    +0.048 C 
BRANCH  18  21
ATOM     19  C   UNL     1       1.213   6.639  -4.605  0.00  0.00    +0.090 C 
ATOM     20  N   UNL     1       2.564   6.139  -4.396  0.00  0.00    -0.273 NA
ATOM     21  C   UNL     1       2.796   5.341  -5.761  0.00  0.00    +0.060 C 
ATOM     22  C   UNL     1       4.449   5.313  -5.541  0.00  0.00    +0.017 C 
ATOM     23  C   UNL     1       4.715   6.734  -5.216  0.00  0.00    +0.019 C 
ATOM     24  C   UNL     1       3.479   7.210  -4.539  0.00  0.00    +0.072 C 
ENDBRANCH  18  21
ENDBRANCH  17  18
ENDBRANCH  16  17
ENDBRANCH   1  16
TORSDOF 6
ENDMDL
MODEL 9
REMARK VINA RESULT:      -7.0      3.578      7.060
REMARK  Name = 
REMARK  6 active torsions:
REMARK  status: ('A' for Active; 'I' for Inactive)
REMARK    1  A    between atoms: C_6  and  C_7
REMARK    2  A    between atoms: C_7  and  C_8
REMARK    3  A    between atoms: C_8  and  O_9
REMARK    4  A    between atoms: O_9  and  C_10
REMARK    5  A    between atoms: C_10  and  C_12
REMARK    6  A    between atoms: C_10  and  C_18
REMARK                            x       y       z     vdW  Elec       q    Type
REMARK                         _______ _______ _______ _____ _____    ______ ____
ROOT
ATOM      1  C   UNL     1       2.845   5.392  -8.684  0.00  0.00    +0.130 C 
ATOM      2  C   UNL     1       3.342   3.955  -8.765  0.00  0.00    +0.039 C 
ENDROOT
BRANCH   1   3
ATOM      3  C   UNL     1       2.402   5.664  -7.302  0.00  0.00    +0.006 A 
ATOM      4  C   UNL     1       2.962   6.737  -6.620  0.00  0.00    -0.001 A 
ATOM      5  C   UNL     1       2.833   6.855  -5.242  0.00  0.00    +0.011 A 
ATOM      6  C   UNL     1       2.039   5.941  -4.562  0.00  0.00    +0.058 A 
ATOM      7 CL   UNL     1       1.321   6.372  -3.012  0.00  0.00    -0.082 Cl
ATOM      8  C   UNL     1       1.563   4.828  -5.237  0.00  0.00    +0.011 A 
ATOM      9  C   UNL     1       1.878   4.629  -6.556  0.00  0.00    -0.001 A 
ENDBRANCH   1   3
BRANCH   1  10
ATOM     10  C   UNL     1       1.739   5.518  -9.668  0.00  0.00    +0.006 A 
ATOM     11  C   UNL     1       1.058   4.420 -10.175  0.00  0.00    -0.002 A 
ATOM     12  C   UNL     1       0.074   4.676 -11.117  0.00  0.00    -0.000 A 
ATOM     13  C   UNL     1      -0.118   5.951 -11.630  0.00  0.00    -0.000 A 
ATOM     14  C   UNL     1       0.250   7.007 -10.810  0.00  0.00    -0.000 A 
ATOM     15  C   UNL     1       1.142   6.768  -9.773  0.00  0.00    -0.002 A 
ENDBRANCH   1  10
BRANCH   1  16
ATOM     16  O   UNL     1       3.862   6.268  -9.073  0.00  0.00    -0.350 OA
BRANCH  16  17
ATOM     17  C   UNL     1       5.064   5.557  -9.035  0.00  0.00    +0.144 C 
BRANCH  17  18
ATOM     18  C   UNL     1       5.857   5.751 -10.303  0.00  0.00    +0.048 C 
BRANCH  18  21
ATOM     19  C   UNL     1       4.342   5.298 -12.416  0.00  0.00    +0.090 C 
ATOM     20  N   UNL     1       5.246   6.437 -12.482  0.00  0.00    -0.273 NA
ATOM     21  C   UNL     1       5.066   7.039 -11.012  0.00  0.00    +0.060 C 
ATOM     22  C   UNL     1       6.470   7.931 -11.135  0.00  0.00    +0.017 C 
ATOM     23  C   UNL     1       7.416   6.904 -11.631  0.00  0.00    +0.019 C 
ATOM     24  C   UNL     1       6.581   5.969 -12.432  0.00  0.00    +0.072 C 
ENDBRANCH  18  21
ENDBRANCH  17  18
ENDBRANCH  16  17
ENDBRANCH   1  16
TORSDOF 6
ENDMDL
