MODEL 1
REMARK VINA RESULT:      -5.1      0.000      0.000
REMARK  Name = 
REMARK  1 active torsions:
REMARK  status: ('A' for Active; 'I' for Inactive)
REMARK    1  A    between atoms: C_3  and  C_5
REMARK                            x       y       z     vdW  Elec       q    Type
REMARK                         _______ _______ _______ _____ _____    ______ ____
ROOT
ATOM      1  C   UNL     1      -1.817   6.201  -5.126  0.00  0.00    +0.060 A 
ATOM      2  C   UNL     1      -2.010   5.363  -6.213  0.00  0.00    +0.025 A 
ATOM      3  C   UNL     1      -1.052   5.396  -7.219  0.00  0.00    +0.099 A 
ATOM      4  N   UNL     1       0.216   5.649  -6.811  0.00  0.00    -0.242 NA
ATOM      5  C   UNL     1       0.442   6.582  -5.854  0.00  0.00    +0.099 A 
ATOM      6  C   UNL     1      -0.682   6.990  -5.143  0.00  0.00    +0.025 A 
ENDROOT
BRANCH   1   9
ATOM      7  N   UNL     1      -2.438   5.021  -1.711  0.00  0.00    +0.007 NA
ATOM      8  N   UNL     1      -2.695   4.962  -3.095  0.00  0.00    -0.089 NA
ATOM      9  C   UNL     1      -2.658   6.130  -3.923  0.00  0.00    +0.282 C 
ATOM     10  O   UNL     1      -2.801   7.219  -3.300  0.00  0.00    -0.267 OA
ENDBRANCH   1   9
TORSDOF 1
ENDMDL
MODEL 2
REMARK VINA RESULT:      -5.1      8.256     10.467
REMARK  Name = 
REMARK  1 active torsions:
REMARK  status: ('A' for Active; 'I' for Inactive)
REMARK    1  A    between atoms: C_3  and  C_5
REMARK                            x       y       z     vdW  Elec       q    Type
REMARK                         _______ _______ _______ _____ _____    ______ ____
ROOT
ATOM      1  C   UNL     1       6.177   5.763 -10.387  0.00  0.00    +0.060 A 
ATOM      2  C   UNL     1       6.426   5.474  -9.054  0.00  0.00    +0.025 A 
ATOM      3  C   UNL     1       5.326   5.241  -8.238  0.00  0.00    +0.099 A 
ATOM      4  N   UNL     1       4.264   4.655  -8.842  0.00  0.00    -0.242 NA
ATOM      5  C   UNL     1       3.905   5.036 -10.092  0.00  0.00    +0.099 A 
ATOM      6  C   UNL     1       4.852   5.787 -10.780  0.00  0.00    +0.025 A 
ENDROOT
BRANCH   1   9
ATOM      7  N   UNL     1       7.557   4.991 -13.695  0.00  0.00    +0.007 NA
ATOM      8  N   UNL     1       7.522   4.784 -12.301  0.00  0.00    -0.089 NA
ATOM      9  C   UNL     1       7.253   5.851 -11.384  0.00  0.00    +0.282 C 
ATOM     10  O   UNL     1       7.466   7.007 -11.846  0.00  0.00    -0.267 OA
ENDBRANCH   1   9
TORSDOF 1
ENDMDL
MODEL 3
REMARK VINA RESULT:      -4.9      8.341      9.909
REMARK  Name = 
REMARK  1 active torsions:
REMARK  status: ('A' for Active; 'I' for Inactive)
REMARK    1  A    between atoms: C_3  and  C_5
REMARK                            x       y       z     vdW  Elec       q    Type
REMARK                         _______ _______ _______ _____ _____    ______ ____
ROOT
ATOM      1  C   UNL     1       6.125   5.732 -11.097  0.00  0.00    +0.060 A 
ATOM      2  C   UNL     1       5.569   5.407 -12.324  0.00  0.00    +0.025 A 
ATOM      3  C   UNL     1       6.426   5.361 -13.418  0.00  0.00    +0.099 A 
ATOM      4  N   UNL     1       7.693   4.960 -13.152  0.00  0.00    -0.242 NA
ATOM      5  C   UNL     1       8.315   5.395 -12.029  0.00  0.00    +0.099 A 
ATOM      6  C   UNL     1       7.485   5.977 -11.076  0.00  0.00    +0.025 A 
ENDROOT
BRANCH   1   9
ATOM      7  N   UNL     1       3.676   4.052  -8.947  0.00  0.00    +0.007 NA
ATOM      8  N   UNL     1       4.033   5.112  -9.805  0.00  0.00    -0.089 NA
ATOM      9  C   UNL     1       5.364   5.639  -9.843  0.00  0.00    +0.282 C 
ATOM     10  O   UNL     1       6.052   5.402  -8.811  0.00  0.00    -0.267 OA
ENDBRANCH   1   9
TORSDOF 1
ENDMDL
MODEL 4
REMARK VINA RESULT:      -4.8      2.156      4.284
REMARK  Name = 
REMARK  1 active torsions:
REMARK  status: ('A' for Active; 'I' for Inactive)
REMARK    1  A    between atoms: C_3  and  C_5
REMARK                            x       y       z     vdW  Elec       q    Type
REMARK                         _______ _______ _______ _____ _____    ______ ____
ROOT
ATOM      1  C   UNL     1      -0.974   5.609  -4.280  0.00  0.00    +0.060 A 
ATOM      2  C   UNL     1      -0.471   5.504  -2.993  0.00  0.00    +0.025 A 
ATOM      3  C   UNL     1      -1.386   5.549  -1.948  0.00  0.00    +0.099 A 
ATOM      4  N   UNL     1      -2.606   5.021  -2.216  0.00  0.00    -0.242 NA
ATOM      5  C   UNL     1      -3.188   5.244  -3.419  0.00  0.00    +0.099 A 
ATOM      6  C   UNL     1      -2.344   5.746  -4.404  0.00  0.00    +0.025 A 
ENDROOT
BRANCH   1   9
ATOM      7  N   UNL     1       1.577   3.716  -6.111  0.00  0.00    +0.007 NA
ATOM      8  N   UNL     1       1.186   4.851  -5.373  0.00  0.00    -0.089 NA
ATOM      9  C   UNL     1      -0.135   5.398  -5.469  0.00  0.00    +0.282 C 
ATOM     10  O   UNL     1      -0.758   5.081  -6.520  0.00  0.00    -0.267 OA
ENDBRANCH   1   9
TORSDOF 1
ENDMDL
MODEL 5
REMARK VINA RESULT:      -4.6      1.261      1.816
REMARK  Name = 
REMARK  1 active torsions:
REMARK  status: ('A' for Active; 'I' for Inactive)
REMARK    1  A    between atoms: C_3  and  C_5
REMARK                            x       y       z     vdW  Elec       q    Type
REMARK                         _______ _______ _______ _____ _____    ______ ____
ROOT
ATOM      1  C   UNL     1      -0.840   5.370  -5.413  0.00  0.00    +0.060 A 
ATOM      2  C   UNL     1       0.484   5.016  -5.210  0.00  0.00    +0.025 A 
ATOM      3  C   UNL     1       1.223   4.653  -6.329  0.00  0.00    +0.099 A 
ATOM      4  N   UNL     1       0.889   5.284  -7.481  0.00  0.00    -0.242 NA
ATOM      5  C   UNL     1      -0.416   5.502  -7.775  0.00  0.00    +0.099 A 
ATOM      6  C   UNL     1      -1.301   5.333  -6.716  0.00  0.00    +0.025 A 
ENDROOT
BRANCH   1   9
ATOM      7  N   UNL     1      -2.715   5.034  -2.280  0.00  0.00    +0.007 NA
ATOM      8  N   UNL     1      -2.683   5.174  -3.682  0.00  0.00    -0.089 NA
ATOM      9  C   UNL     1      -1.671   5.942  -4.344  0.00  0.00    +0.282 C 
ATOM     10  O   UNL     1      -1.096   6.793  -3.610  0.00  0.00    -0.267 OA
ENDBRANCH   1   9
TORSDOF 1
ENDMDL
MODEL 6
REMARK VINA RESULT:      -4.5      2.131      2.283
REMARK  Name = 
REMARK  1 active torsions:
REMARK  status: ('A' for Active; 'I' for Inactive)
REMARK    1  A    between atoms: C_3  and  C_5
REMARK                            x       y       z     vdW  Elec       q    Type
REMARK                         _______ _______ _______ _____ _____    ______ ____
ROOT
ATOM      1  C   UNL     1       0.258   5.473  -4.446  0.00  0.00    +0.060 A 
ATOM      2  C   UNL     1      -0.397   5.410  -5.665  0.00  0.00    +0.025 A 
ATOM      3  C   UNL     1       0.383   5.189  -6.794  0.00  0.00    +0.099 A 
ATOM      4  N   UNL     1       1.481   4.417  -6.605  0.00  0.00    -0.242 NA
ATOM      5  C   UNL     1       2.229   4.572  -5.485  0.00  0.00    +0.099 A 
ATOM      6  C   UNL     1       1.630   5.306  -4.467  0.00  0.00    +0.025 A 
ENDROOT
BRANCH   1   9
ATOM      7  N   UNL     1      -2.739   4.833  -2.432  0.00  0.00    +0.007 NA
ATOM      8  N   UNL     1      -1.885   5.724  -3.113  0.00  0.00    -0.089 NA
ATOM      9  C   UNL     1      -0.468   5.522  -3.169  0.00  0.00    +0.282 C 
ATOM     10  O   UNL     1      -0.008   4.779  -2.258  0.00  0.00    -0.267 OA
ENDBRANCH   1   9
TORSDOF 1
ENDMDL
MODEL 7
REMARK VINA RESULT:      -4.4      2.634      4.205
REMARK  Name = 
REMARK  1 active torsions:
REMARK  status: ('A' for Active; 'I' for Inactive)
REMARK    1  A    between atoms: C_3  and  C_5
REMARK                            x       y       z     vdW  Elec       q    Type
REMARK                         _______ _______ _______ _____ _____    ______ ____
ROOT
ATOM      1  C   UNL     1       0.016   5.861  -6.003  0.00  0.00    +0.060 A 
ATOM      2  C   UNL     1      -0.114   6.880  -5.073  0.00  0.00    +0.025 A 
ATOM      3  C   UNL     1      -1.373   7.452  -4.930  0.00  0.00    +0.099 A 
ATOM      4  N   UNL     1      -2.421   6.616  -5.130  0.00  0.00    -0.242 NA
ATOM      5  C   UNL     1      -2.379   5.713  -6.139  0.00  0.00    +0.099 A 
ATOM      6  C   UNL     1      -1.123   5.506  -6.701  0.00  0.00    +0.025 A 
ENDROOT
BRANCH   1   9
ATOM      7  N   UNL     1       3.304   4.826  -4.754  0.00  0.00    +0.007 NA
ATOM      8  N   UNL     1       2.510   5.549  -5.667  0.00  0.00    -0.089 NA
ATOM      9  C   UNL     1       1.243   5.060  -6.121  0.00  0.00    +0.282 C 
ATOM     10  O   UNL     1       1.087   3.813  -5.997  0.00  0.00    -0.267 OA
ENDBRANCH   1   9
TORSDOF 1
ENDMDL
MODEL 8
REMARK VINA RESULT:      -4.3      2.643      3.871
REMARK  Name = 
REMARK  1 active torsions:
REMARK  status: ('A' for Active; 'I' for Inactive)
REMARK    1  A    between atoms: C_3  and  C_5
REMARK                            x       y       z     vdW  Elec       q    Type
REMARK                         _______ _______ _______ _____ _____    ______ ____
ROOT
ATOM      1  C   UNL     1      -0.435   5.470  -5.210  0.00  0.00    +0.060 A 
ATOM      2  C   UNL     1      -1.298   5.399  -6.292  0.00  0.00    +0.025 A 
ATOM      3  C   UNL     1      -2.524   6.043  -6.170  0.00  0.00    +0.099 A 
ATOM      4  N   UNL     1      -2.520   7.168  -5.413  0.00  0.00    -0.242 NA
ATOM      5  C   UNL     1      -1.803   7.205  -4.264  0.00  0.00    +0.099 A 
ATOM      6  C   UNL     1      -0.874   6.181  -4.109  0.00  0.00    +0.025 A 
ENDROOT
BRANCH   1   9
ATOM      7  N   UNL     1       2.326   3.902  -7.044  0.00  0.00    +0.007 NA
ATOM      8  N   UNL     1       1.312   3.844  -6.066  0.00  0.00    -0.089 NA
ATOM      9  C   UNL     1       0.951   4.986  -5.281  0.00  0.00    +0.282 C 
ATOM     10  O   UNL     1       1.839   5.882  -5.219  0.00  0.00    -0.267 OA
ENDBRANCH   1   9
TORSDOF 1
ENDMDL
MODEL 9
REMARK VINA RESULT:      -4.3      4.343      5.784
REMARK  Name = 
REMARK  1 active torsions:
REMARK  status: ('A' for Active; 'I' for Inactive)
REMARK    1  A    between atoms: C_3  and  C_5
REMARK                            x       y       z     vdW  Elec       q    Type
REMARK                         _______ _______ _______ _____ _____    ______ ____
ROOT
ATOM      1  C   UNL     1       2.634   6.927  -6.282  0.00  0.00    +0.060 A 
ATOM      2  C   UNL     1       1.515   6.708  -5.495  0.00  0.00    +0.025 A 
ATOM      3  C   UNL     1       1.723   6.503  -4.137  0.00  0.00    +0.099 A 
ATOM      4  N   UNL     1       2.775   7.168  -3.600  0.00  0.00    -0.242 NA
ATOM      5  C   UNL     1       3.938   7.260  -4.290  0.00  0.00    +0.099 A 
ATOM      6  C   UNL     1       3.857   6.925  -5.638  0.00  0.00    +0.025 A 
ENDROOT
BRANCH   1   9
ATOM      7  N   UNL     1       1.108   6.635  -9.603  0.00  0.00    +0.007 NA
ATOM      8  N   UNL     1       2.182   6.400  -8.721  0.00  0.00    -0.089 NA
ATOM      9  C   UNL     1       2.534   7.332  -7.692  0.00  0.00    +0.282 C 
ATOM     10  O   UNL     1       2.122   8.509  -7.887  0.00  0.00    -0.267 OA
ENDBRANCH   1   9
TORSDOF 1
ENDMDL
