MODEL 1
REMARK VINA RESULT:      -7.7      0.000      0.000
REMARK  Name = 
REMARK  1 active torsions:
REMARK  status: ('A' for Active; 'I' for Inactive)
REMARK    1  A    between atoms: N_17  and  C_18
REMARK                            x       y       z     vdW  Elec       q    Type
REMARK                         _______ _______ _______ _____ _____    ______ ____
ROOT
ATOM      1  C   UNL     1       4.753   5.286  -3.894  0.00  0.00    +0.033 C 
ATOM      2  C   UNL     1       3.612   5.945  -4.570  0.00  0.00    +0.000 A 
ATOM      3  C   UNL     1       2.314   5.651  -4.171  0.00  0.00    +0.115 A 
ATOM      4  N   UNL     1       2.296   5.210  -2.815  0.00  0.00    -0.205 NA
ATOM      5  C   UNL     1       1.193   5.317  -1.909  0.00  0.00    +0.282 A 
ATOM      6  C   UNL     1      -0.205   5.686  -2.169  0.00  0.00    +0.092 A 
ATOM      7  C   UNL     1      -0.781   6.058  -3.375  0.00  0.00    +0.149 A 
ATOM      8  N   UNL     1      -0.117   6.069  -4.632  0.00  0.00    -0.299 N 
ATOM      9  N   UNL     1      -1.919   6.794  -3.391  0.00  0.00    -0.227 NA
ATOM     10  C   UNL     1      -2.332   7.434  -2.270  0.00  0.00    +0.101 A 
ATOM     11  C   UNL     1      -1.835   7.061  -1.048  0.00  0.00    +0.021 A 
ATOM     12  C   UNL     1      -0.848   6.096  -1.010  0.00  0.00    +0.009 A 
ATOM     13  O   UNL     1       1.401   4.935  -0.718  0.00  0.00    -0.265 OA
ATOM     14  C   UNL     1       1.267   5.988  -4.988  0.00  0.00    +0.162 A 
ATOM     15  N   UNL     1       1.554   6.613  -6.154  0.00  0.00    -0.225 NA
ATOM     16  C   UNL     1       2.771   7.127  -6.424  0.00  0.00    +0.100 A 
ATOM     17  C   UNL     1       3.874   6.771  -5.657  0.00  0.00    +0.018 A 
ENDROOT
BRANCH   8  18
ATOM     18  C   UNL     1      -0.977   6.275  -5.765  0.00  0.00    +0.088 C 
ATOM     19  C   UNL     1      -2.266   5.520  -5.843  0.00  0.00    +0.025 C 
ATOM     20  C   UNL     1      -1.110   5.298  -6.857  0.00  0.00    +0.025 C 
ENDBRANCH   8  18
TORSDOF 1
ENDMDL
MODEL 2
REMARK VINA RESULT:      -7.5      2.062      5.128
REMARK  Name = 
REMARK  1 active torsions:
REMARK  status: ('A' for Active; 'I' for Inactive)
REMARK    1  A    between atoms: N_17  and  C_18
REMARK                            x       y       z     vdW  Elec       q    Type
REMARK                         _______ _______ _______ _____ _____    ______ ____
ROOT
ATOM      1  C   UNL     1      -0.619   5.007  -7.849  0.00  0.00    +0.033 C 
ATOM      2  C   UNL     1      -0.629   5.584  -6.485  0.00  0.00    +0.000 A 
ATOM      3  C   UNL     1       0.506   5.484  -5.690  0.00  0.00    +0.115 A 
ATOM      4  N   UNL     1       1.674   5.357  -6.498  0.00  0.00    -0.205 NA
ATOM      5  C   UNL     1       3.001   5.745  -6.128  0.00  0.00    +0.282 A 
ATOM      6  C   UNL     1       3.531   6.151  -4.819  0.00  0.00    +0.092 A 
ATOM      7  C   UNL     1       2.843   6.289  -3.623  0.00  0.00    +0.149 A 
ATOM      8  N   UNL     1       1.471   5.971  -3.425  0.00  0.00    -0.299 N 
ATOM      9  N   UNL     1       3.330   7.087  -2.641  0.00  0.00    -0.227 NA
ATOM     10  C   UNL     1       4.304   7.988  -2.917  0.00  0.00    +0.101 A 
ATOM     11  C   UNL     1       5.052   7.858  -4.059  0.00  0.00    +0.021 A 
ATOM     12  C   UNL     1       4.720   6.854  -4.948  0.00  0.00    +0.009 A 
ATOM     13  O   UNL     1       3.895   5.621  -7.018  0.00  0.00    -0.265 OA
ATOM     14  C   UNL     1       0.404   5.709  -4.342  0.00  0.00    +0.162 A 
ATOM     15  N   UNL     1      -0.813   6.037  -3.848  0.00  0.00    -0.225 NA
ATOM     16  C   UNL     1      -1.849   6.385  -4.639  0.00  0.00    +0.100 A 
ATOM     17  C   UNL     1      -1.814   6.126  -6.003  0.00  0.00    +0.018 A 
ENDROOT
BRANCH   8  18
ATOM     18  C   UNL     1       1.043   5.985  -2.053  0.00  0.00    +0.088 C 
ATOM     19  C   UNL     1       1.624   4.988  -1.102  0.00  0.00    +0.025 C 
ATOM     20  C   UNL     1       0.121   4.984  -1.492  0.00  0.00    +0.025 C 
ENDBRANCH   8  18
TORSDOF 1
ENDMDL
MODEL 3
REMARK VINA RESULT:      -7.5      1.687      2.510
REMARK  Name = 
REMARK  1 active torsions:
REMARK  status: ('A' for Active; 'I' for Inactive)
REMARK    1  A    between atoms: N_17  and  C_18
REMARK                            x       y       z     vdW  Elec       q    Type
REMARK                         _______ _______ _______ _____ _____    ______ ____
ROOT
ATOM      1  C   UNL     1       4.372   5.382  -1.019  0.00  0.00    +0.033 C 
ATOM      2  C   UNL     1       4.042   6.243  -2.179  0.00  0.00    +0.000 A 
ATOM      3  C   UNL     1       2.892   5.989  -2.916  0.00  0.00    +0.115 A 
ATOM      4  N   UNL     1       1.923   5.317  -2.115  0.00  0.00    -0.205 NA
ATOM      5  C   UNL     1       0.504   5.351  -2.303  0.00  0.00    +0.282 A 
ATOM      6  C   UNL     1      -0.282   5.874  -3.429  0.00  0.00    +0.092 A 
ATOM      7  C   UNL     1       0.179   6.501  -4.577  0.00  0.00    +0.149 A 
ATOM      8  N   UNL     1       1.548   6.680  -4.919  0.00  0.00    -0.299 N 
ATOM      9  N   UNL     1      -0.637   7.319  -5.286  0.00  0.00    -0.227 NA
ATOM     10  C   UNL     1      -1.784   7.780  -4.732  0.00  0.00    +0.101 A 
ATOM     11  C   UNL     1      -2.312   7.156  -3.631  0.00  0.00    +0.021 A 
ATOM     12  C   UNL     1      -1.596   6.122  -3.060  0.00  0.00    +0.009 A 
ATOM     13  O   UNL     1      -0.196   4.748  -1.436  0.00  0.00    -0.265 OA
ATOM     14  C   UNL     1       2.753   6.550  -4.158  0.00  0.00    +0.162 A 
ATOM     15  N   UNL     1       3.752   7.347  -4.605  0.00  0.00    -0.225 NA
ATOM     16  C   UNL     1       4.737   7.800  -3.801  0.00  0.00    +0.100 A 
ATOM     17  C   UNL     1       4.951   7.224  -2.555  0.00  0.00    +0.018 A 
ENDROOT
BRANCH   8  18
ATOM     18  C   UNL     1       1.776   7.154  -6.256  0.00  0.00    +0.088 C 
ATOM     19  C   UNL     1       1.260   6.351  -7.408  0.00  0.00    +0.025 C 
ATOM     20  C   UNL     1       2.778   6.561  -7.156  0.00  0.00    +0.025 C 
ENDBRANCH   8  18
TORSDOF 1
ENDMDL
MODEL 4
REMARK VINA RESULT:      -7.4      2.092      4.255
REMARK  Name = 
REMARK  1 active torsions:
REMARK  status: ('A' for Active; 'I' for Inactive)
REMARK    1  A    between atoms: N_17  and  C_18
REMARK                            x       y       z     vdW  Elec       q    Type
REMARK                         _______ _______ _______ _____ _____    ______ ____
ROOT
ATOM      1  C   UNL     1       4.430   6.552  -2.167  0.00  0.00    +0.033 C 
ATOM      2  C   UNL     1       3.065   5.979  -2.209  0.00  0.00    +0.000 A 
ATOM      3  C   UNL     1       2.166   6.417  -3.173  0.00  0.00    +0.115 A 
ATOM      4  N   UNL     1       2.861   6.918  -4.313  0.00  0.00    -0.205 NA
ATOM      5  C   UNL     1       2.359   6.960  -5.653  0.00  0.00    +0.282 A 
ATOM      6  C   UNL     1       1.001   6.719  -6.157  0.00  0.00    +0.092 A 
ATOM      7  C   UNL     1      -0.127   6.353  -5.435  0.00  0.00    +0.149 A 
ATOM      8  N   UNL     1      -0.187   6.221  -4.021  0.00  0.00    -0.299 N 
ATOM      9  N   UNL     1      -1.162   5.732  -6.053  0.00  0.00    -0.227 NA
ATOM     10  C   UNL     1      -0.994   5.186  -7.281  0.00  0.00    +0.101 A 
ATOM     11  C   UNL     1       0.073   5.563  -8.056  0.00  0.00    +0.021 A 
ATOM     12  C   UNL     1       1.004   6.427  -7.513  0.00  0.00    +0.009 A 
ATOM     13  O   UNL     1       3.162   7.372  -6.544  0.00  0.00    -0.265 OA
ATOM     14  C   UNL     1       0.831   6.150  -3.018  0.00  0.00    +0.162 A 
ATOM     15  N   UNL     1       0.452   5.449  -1.924  0.00  0.00    -0.225 NA
ATOM     16  C   UNL     1       1.333   4.806  -1.131  0.00  0.00    +0.100 A 
ATOM     17  C   UNL     1       2.692   5.085  -1.213  0.00  0.00    +0.018 A 
ENDROOT
BRANCH   8  18
ATOM     18  C   UNL     1      -1.511   6.051  -3.489  0.00  0.00    +0.088 C 
ATOM     19  C   UNL     1      -2.598   6.975  -3.941  0.00  0.00    +0.025 C 
ATOM     20  C   UNL     1      -2.089   6.947  -2.475  0.00  0.00    +0.025 C 
ENDBRANCH   8  18
TORSDOF 1
ENDMDL
MODEL 5
REMARK VINA RESULT:      -7.3      5.962      7.640
REMARK  Name = 
REMARK  1 active torsions:
REMARK  status: ('A' for Active; 'I' for Inactive)
REMARK    1  A    between atoms: N_17  and  C_18
REMARK                            x       y       z     vdW  Elec       q    Type
REMARK                         _______ _______ _______ _____ _____    ______ ____
ROOT
ATOM      1  C   UNL     1       7.404   5.536  -9.016  0.00  0.00    +0.033 C 
ATOM      2  C   UNL     1       6.560   6.128 -10.079  0.00  0.00    +0.000 A 
ATOM      3  C   UNL     1       5.292   5.611 -10.316  0.00  0.00    +0.115 A 
ATOM      4  N   UNL     1       4.781   4.984  -9.142  0.00  0.00    -0.205 NA
ATOM      5  C   UNL     1       3.398   4.815  -8.812  0.00  0.00    +0.282 A 
ATOM      6  C   UNL     1       2.202   5.028  -9.637  0.00  0.00    +0.092 A 
ATOM      7  C   UNL     1       2.135   5.488 -10.945  0.00  0.00    +0.149 A 
ATOM      8  N   UNL     1       3.256   5.764 -11.774  0.00  0.00    -0.299 N 
ATOM      9  N   UNL     1       0.999   6.062 -11.411  0.00  0.00    -0.227 NA
ATOM     10  C   UNL     1       0.041   6.476 -10.547  0.00  0.00    +0.101 A 
ATOM     11  C   UNL     1       0.030   6.003  -9.260  0.00  0.00    +0.021 A 
ATOM     12  C   UNL     1       1.065   5.181  -8.857  0.00  0.00    +0.009 A 
ATOM     13  O   UNL     1       3.146   4.298  -7.682  0.00  0.00    -0.265 OA
ATOM     14  C   UNL     1       4.650   5.918 -11.486  0.00  0.00    +0.162 A 
ATOM     15  N   UNL     1       5.286   6.735 -12.359  0.00  0.00    -0.225 NA
ATOM     16  C   UNL     1       6.388   7.438 -12.026  0.00  0.00    +0.100 A 
ATOM     17  C   UNL     1       7.104   7.126 -10.878  0.00  0.00    +0.018 A 
ENDROOT
BRANCH   8  18
ATOM     18  C   UNL     1       2.937   6.014 -13.153  0.00  0.00    +0.088 C 
ATOM     19  C   UNL     1       2.131   5.002 -13.905  0.00  0.00    +0.025 C 
ATOM     20  C   UNL     1       3.606   5.323 -14.268  0.00  0.00    +0.025 C 
ENDBRANCH   8  18
TORSDOF 1
ENDMDL
MODEL 6
REMARK VINA RESULT:      -7.0      2.207      4.753
REMARK  Name = 
REMARK  1 active torsions:
REMARK  status: ('A' for Active; 'I' for Inactive)
REMARK    1  A    between atoms: N_17  and  C_18
REMARK                            x       y       z     vdW  Elec       q    Type
REMARK                         _______ _______ _______ _____ _____    ______ ____
ROOT
ATOM      1  C   UNL     1       2.943   7.398  -0.848  0.00  0.00    +0.033 C 
ATOM      2  C   UNL     1       2.076   6.464  -1.602  0.00  0.00    +0.000 A 
ATOM      3  C   UNL     1       1.949   6.606  -2.978  0.00  0.00    +0.115 A 
ATOM      4  N   UNL     1       3.099   7.250  -3.523  0.00  0.00    -0.205 NA
ATOM      5  C   UNL     1       3.586   7.113  -4.862  0.00  0.00    +0.282 A 
ATOM      6  C   UNL     1       2.956   6.488  -6.032  0.00  0.00    +0.092 A 
ATOM      7  C   UNL     1       1.731   5.839  -6.100  0.00  0.00    +0.149 A 
ATOM      8  N   UNL     1       0.799   5.735  -5.031  0.00  0.00    -0.299 N 
ATOM      9  N   UNL     1       1.488   4.937  -7.082  0.00  0.00    -0.227 NA
ATOM     10  C   UNL     1       2.514   4.427  -7.806  0.00  0.00    +0.101 A 
ATOM     11  C   UNL     1       3.727   5.066  -7.818  0.00  0.00    +0.021 A 
ATOM     12  C   UNL     1       3.892   6.171  -7.006  0.00  0.00    +0.009 A 
ATOM     13  O   UNL     1       4.671   7.710  -5.131  0.00  0.00    -0.265 OA
ATOM     14  C   UNL     1       0.917   5.979  -3.626  0.00  0.00    +0.162 A 
ATOM     15  N   UNL     1       0.069   5.230  -2.883  0.00  0.00    -0.225 NA
ATOM     16  C   UNL     1       0.334   4.882  -1.607  0.00  0.00    +0.100 A 
ATOM     17  C   UNL     1       1.334   5.528  -0.892  0.00  0.00    +0.018 A 
ENDROOT
BRANCH   8  18
ATOM     18  C   UNL     1      -0.487   5.214  -5.405  0.00  0.00    +0.088 C 
ATOM     19  C   UNL     1      -1.080   5.619  -6.717  0.00  0.00    +0.025 C 
ATOM     20  C   UNL     1      -1.720   6.016  -5.359  0.00  0.00    +0.025 C 
ENDBRANCH   8  18
TORSDOF 1
ENDMDL
MODEL 7
REMARK VINA RESULT:      -7.0      6.725      9.584
REMARK  Name = 
REMARK  1 active torsions:
REMARK  status: ('A' for Active; 'I' for Inactive)
REMARK    1  A    between atoms: N_17  and  C_18
REMARK                            x       y       z     vdW  Elec       q    Type
REMARK                         _______ _______ _______ _____ _____    ______ ____
ROOT
ATOM      1  C   UNL     1       0.976   6.543 -14.826  0.00  0.00    +0.033 C 
ATOM      2  C   UNL     1       1.154   6.668 -13.362  0.00  0.00    +0.000 A 
ATOM      3  C   UNL     1       2.200   5.999 -12.738  0.00  0.00    +0.115 A 
ATOM      4  N   UNL     1       3.265   5.769 -13.658  0.00  0.00    -0.205 NA
ATOM      5  C   UNL     1       4.647   5.610 -13.323  0.00  0.00    +0.282 A 
ATOM      6  C   UNL     1       5.282   5.432 -12.011  0.00  0.00    +0.092 A 
ATOM      7  C   UNL     1       4.677   5.414 -10.762  0.00  0.00    +0.149 A 
ATOM      8  N   UNL     1       3.276   5.482 -10.531  0.00  0.00    -0.299 N 
ATOM      9  N   UNL     1       5.395   5.701  -9.649  0.00  0.00    -0.227 NA
ATOM     10  C   UNL     1       6.603   6.305  -9.756  0.00  0.00    +0.101 A 
ATOM     11  C   UNL     1       7.269   6.297 -10.955  0.00  0.00    +0.021 A 
ATOM     12  C   UNL     1       6.633   5.748 -12.052  0.00  0.00    +0.009 A 
ATOM     13  O   UNL     1       5.453   5.489 -14.294  0.00  0.00    -0.265 OA
ATOM     14  C   UNL     1       2.178   5.838 -11.378  0.00  0.00    +0.162 A 
ATOM     15  N   UNL     1       1.129   6.358 -10.698  0.00  0.00    -0.225 NA
ATOM     16  C   UNL     1       0.255   7.220 -11.257  0.00  0.00    +0.100 A 
ATOM     17  C   UNL     1       0.203   7.376 -12.637  0.00  0.00    +0.018 A 
ENDROOT
BRANCH   8  18
ATOM     18  C   UNL     1       2.878   5.222  -9.175  0.00  0.00    +0.088 C 
ATOM     19  C   UNL     1       3.023   3.835  -8.631  0.00  0.00    +0.025 C 
ATOM     20  C   UNL     1       1.637   4.509  -8.827  0.00  0.00    +0.025 C 
ENDBRANCH   8  18
TORSDOF 1
ENDMDL
MODEL 8
REMARK VINA RESULT:      -7.0      1.936      3.097
REMARK  Name = 
REMARK  1 active torsions:
REMARK  status: ('A' for Active; 'I' for Inactive)
REMARK    1  A    between atoms: N_17  and  C_18
REMARK                            x       y       z     vdW  Elec       q    Type
REMARK                         _______ _______ _______ _____ _____    ______ ____
ROOT
ATOM      1  C   UNL     1       2.910   7.171   0.041  0.00  0.00    +0.033 C 
ATOM      2  C   UNL     1       2.912   7.231  -1.439  0.00  0.00    +0.000 A 
ATOM      3  C   UNL     1       2.076   6.388  -2.160  0.00  0.00    +0.115 A 
ATOM      4  N   UNL     1       0.947   6.010  -1.374  0.00  0.00    -0.205 NA
ATOM      5  C   UNL     1      -0.336   5.623  -1.875  0.00  0.00    +0.282 A 
ATOM      6  C   UNL     1      -0.755   5.314  -3.249  0.00  0.00    +0.092 A 
ATOM      7  C   UNL     1       0.006   5.364  -4.407  0.00  0.00    +0.149 A 
ATOM      8  N   UNL     1       1.398   5.652  -4.461  0.00  0.00    -0.299 N 
ATOM      9  N   UNL     1      -0.593   5.504  -5.615  0.00  0.00    -0.227 NA
ATOM     10  C   UNL     1      -1.885   5.908  -5.691  0.00  0.00    +0.101 A 
ATOM     11  C   UNL     1      -2.694   5.821  -4.587  0.00  0.00    +0.021 A 
ATOM     12  C   UNL     1      -2.132   5.409  -3.395  0.00  0.00    +0.009 A 
ATOM     13  O   UNL     1      -1.235   5.397  -1.010  0.00  0.00    -0.265 OA
ATOM     14  C   UNL     1       2.303   6.200  -3.498  0.00  0.00    +0.162 A 
ATOM     15  N   UNL     1       3.339   6.866  -4.061  0.00  0.00    -0.225 NA
ATOM     16  C   UNL     1       3.984   7.871  -3.434  0.00  0.00    +0.100 A 
ATOM     17  C   UNL     1       3.828   8.066  -2.068  0.00  0.00    +0.018 A 
ENDROOT
BRANCH   8  18
ATOM     18  C   UNL     1       2.009   5.426  -5.742  0.00  0.00    +0.088 C 
ATOM     19  C   UNL     1       1.973   4.051  -6.330  0.00  0.00    +0.025 C 
ATOM     20  C   UNL     1       3.299   4.738  -5.904  0.00  0.00    +0.025 C 
ENDBRANCH   8  18
TORSDOF 1
ENDMDL
MODEL 9
REMARK VINA RESULT:      -6.9      6.867      8.887
REMARK  Name = 
REMARK  1 active torsions:
REMARK  status: ('A' for Active; 'I' for Inactive)
REMARK    1  A    between atoms: N_17  and  C_18
REMARK                            x       y       z     vdW  Elec       q    Type
REMARK                         _______ _______ _______ _____ _____    ______ ____
ROOT
ATOM      1  C   UNL     1       7.747   5.759 -13.500  0.00  0.00    +0.033 C 
ATOM      2  C   UNL     1       6.335   6.091 -13.798  0.00  0.00    +0.000 A 
ATOM      3  C   UNL     1       5.331   5.644 -12.948  0.00  0.00    +0.115 A 
ATOM      4  N   UNL     1       5.846   5.431 -11.635  0.00  0.00    -0.205 NA
ATOM      5  C   UNL     1       5.096   5.490 -10.417  0.00  0.00    +0.282 A 
ATOM      6  C   UNL     1       3.644   5.563 -10.210  0.00  0.00    +0.092 A 
ATOM      7  C   UNL     1       2.644   5.630 -11.170  0.00  0.00    +0.149 A 
ATOM      8  N   UNL     1       2.852   5.553 -12.574  0.00  0.00    -0.299 N 
ATOM      9  N   UNL     1       1.429   6.144 -10.859  0.00  0.00    -0.227 NA
ATOM     10  C   UNL     1       1.269   6.875  -9.729  0.00  0.00    +0.101 A 
ATOM     11  C   UNL     1       2.200   6.796  -8.725  0.00  0.00    +0.021 A 
ATOM     12  C   UNL     1       3.333   6.037  -8.943  0.00  0.00    +0.009 A 
ATOM     13  O   UNL     1       5.753   5.347  -9.342  0.00  0.00    -0.265 OA
ATOM     14  C   UNL     1       4.031   5.657 -13.379  0.00  0.00    +0.162 A 
ATOM     15  N   UNL     1       3.784   6.126 -14.625  0.00  0.00    -0.225 NA
ATOM     16  C   UNL     1       4.708   6.794 -15.346  0.00  0.00    +0.100 A 
ATOM     17  C   UNL     1       6.047   6.764 -14.980  0.00  0.00    +0.018 A 
ENDROOT
BRANCH   8  18
ATOM     18  C   UNL     1       1.651   5.421 -13.353  0.00  0.00    +0.088 C 
ATOM     19  C   UNL     1       0.517   4.612 -12.804  0.00  0.00    +0.025 C 
ATOM     20  C   UNL     1       1.298   4.190 -14.079  0.00  0.00    +0.025 C 
ENDBRANCH   8  18
TORSDOF 1
ENDMDL
