MODEL 1
REMARK VINA RESULT:      -5.4      0.000      0.000
REMARK  Name = 
REMARK  3 active torsions:
REMARK  status: ('A' for Active; 'I' for Inactive)
REMARK    1  A    between atoms: C_8  and  O_9
REMARK    2  A    between atoms: O_9  and  C_10
REMARK    3  A    between atoms: C_10  and  C_11
REMARK                            x       y       z     vdW  Elec       q    Type
REMARK                         _______ _______ _______ _____ _____    ______ ____
ROOT
ATOM      1  C   UNL     1       3.615   5.300  -9.098  0.00  0.00    +0.034 C 
ATOM      2  C   UNL     1       4.886   5.623  -9.542  0.00  0.00    +0.012 A 
ATOM      3  C   UNL     1       5.176   6.260 -10.734  0.00  0.00    +0.131 A 
ATOM      4  C   UNL     1       6.363   6.970 -10.827  0.00  0.00    +0.012 A 
ATOM      5  C   UNL     1       6.460   8.143 -11.750  0.00  0.00    +0.034 C 
ATOM      6  C   UNL     1       7.477   6.489 -10.150  0.00  0.00    -0.001 A 
ATOM      7  C   UNL     1       7.242   5.652  -9.092  0.00  0.00    -0.000 A 
ATOM      8  C   UNL     1       5.962   5.249  -8.757  0.00  0.00    -0.001 A 
ENDROOT
BRANCH   3   9
ATOM      9  O   UNL     1       4.165   6.406 -11.638  0.00  0.00    -0.475 OA
BRANCH   9  10
ATOM     10  C   UNL     1       3.957   5.612 -12.761  0.00  0.00    +0.224 C 
BRANCH  10  11
ATOM     11  C   UNL     1       2.557   6.101 -13.457  0.00  0.00    +0.135 C 
ATOM     12  N   UNL     1       2.401   4.762 -14.263  0.00  0.00    -0.129 NA
ATOM     13  C   UNL     1       1.633   5.550 -12.218  0.00  0.00    +0.024 C 
ENDBRANCH  10  11
ENDBRANCH   9  10
ENDBRANCH   3   9
TORSDOF 3
ENDMDL
MODEL 2
REMARK VINA RESULT:      -5.4      7.666      9.843
REMARK  Name = 
REMARK  3 active torsions:
REMARK  status: ('A' for Active; 'I' for Inactive)
REMARK    1  A    between atoms: C_8  and  O_9
REMARK    2  A    between atoms: O_9  and  C_10
REMARK    3  A    between atoms: C_10  and  C_11
REMARK                            x       y       z     vdW  Elec       q    Type
REMARK                         _______ _______ _______ _____ _____    ______ ____
ROOT
ATOM      1  C   UNL     1       1.615   5.005  -5.511  0.00  0.00    +0.034 C 
ATOM      2  C   UNL     1       0.274   5.346  -5.521  0.00  0.00    +0.012 A 
ATOM      3  C   UNL     1      -0.395   5.987  -4.495  0.00  0.00    +0.131 A 
ATOM      4  C   UNL     1      -1.533   6.714  -4.806  0.00  0.00    +0.012 A 
ATOM      5  C   UNL     1      -1.921   7.889  -3.965  0.00  0.00    +0.034 C 
ATOM      6  C   UNL     1      -2.359   6.247  -5.821  0.00  0.00    -0.001 A 
ATOM      7  C   UNL     1      -1.791   5.407  -6.741  0.00  0.00    -0.000 A 
ATOM      8  C   UNL     1      -0.479   4.986  -6.625  0.00  0.00    -0.001 A 
ENDROOT
BRANCH   3   9
ATOM      9  O   UNL     1       0.254   6.120  -3.302  0.00  0.00    -0.475 OA
BRANCH   9  10
ATOM     10  C   UNL     1       0.166   5.242  -2.226  0.00  0.00    +0.224 C 
BRANCH  10  11
ATOM     11  C   UNL     1       1.039   5.882  -0.997  0.00  0.00    +0.135 C 
ATOM     12  N   UNL     1       1.815   4.539  -0.749  0.00  0.00    -0.129 NA
ATOM     13  C   UNL     1       2.206   6.459  -1.995  0.00  0.00    +0.024 C 
ENDBRANCH  10  11
ENDBRANCH   9  10
ENDBRANCH   3   9
TORSDOF 3
ENDMDL
MODEL 3
REMARK VINA RESULT:      -5.4      2.071      3.523
REMARK  Name = 
REMARK  3 active torsions:
REMARK  status: ('A' for Active; 'I' for Inactive)
REMARK    1  A    between atoms: C_8  and  O_9
REMARK    2  A    between atoms: O_9  and  C_10
REMARK    3  A    between atoms: C_10  and  C_11
REMARK                            x       y       z     vdW  Elec       q    Type
REMARK                         _______ _______ _______ _____ _____    ______ ____
ROOT
ATOM      1  C   UNL     1       4.773   4.966 -13.280  0.00  0.00    +0.034 C 
ATOM      2  C   UNL     1       5.960   5.414 -12.724  0.00  0.00    +0.012 A 
ATOM      3  C   UNL     1       6.138   5.761 -11.398  0.00  0.00    +0.131 A 
ATOM      4  C   UNL     1       7.416   5.688 -10.867  0.00  0.00    +0.012 A 
ATOM      5  C   UNL     1       7.603   5.419  -9.407  0.00  0.00    +0.034 C 
ATOM      6  C   UNL     1       8.493   5.998 -11.688  0.00  0.00    -0.001 A 
ATOM      7  C   UNL     1       8.288   5.895 -13.039  0.00  0.00    -0.000 A 
ATOM      8  C   UNL     1       7.051   5.568 -13.561  0.00  0.00    -0.001 A 
ENDROOT
BRANCH   3   9
ATOM      9  O   UNL     1       5.026   5.866 -10.615  0.00  0.00    -0.475 OA
BRANCH   9  10
ATOM     10  C   UNL     1       4.390   7.051 -10.259  0.00  0.00    +0.224 C 
BRANCH  10  11
ATOM     11  C   UNL     1       3.134   6.662  -9.284  0.00  0.00    +0.135 C 
ATOM     12  N   UNL     1       2.759   5.401 -10.142  0.00  0.00    -0.129 NA
ATOM     13  C   UNL     1       4.070   5.781  -8.264  0.00  0.00    +0.024 C 
ENDBRANCH  10  11
ENDBRANCH   9  10
ENDBRANCH   3   9
TORSDOF 3
ENDMDL
MODEL 4
REMARK VINA RESULT:      -5.4      6.549      8.550
REMARK  Name = 
REMARK  3 active torsions:
REMARK  status: ('A' for Active; 'I' for Inactive)
REMARK    1  A    between atoms: C_8  and  O_9
REMARK    2  A    between atoms: O_9  and  C_10
REMARK    3  A    between atoms: C_10  and  C_11
REMARK                            x       y       z     vdW  Elec       q    Type
REMARK                         _______ _______ _______ _____ _____    ______ ____
ROOT
ATOM      1  C   UNL     1      -1.088   5.811  -2.802  0.00  0.00    +0.034 C 
ATOM      2  C   UNL     1      -0.903   5.697  -4.169  0.00  0.00    +0.012 A 
ATOM      3  C   UNL     1       0.316   5.516  -4.797  0.00  0.00    +0.131 A 
ATOM      4  C   UNL     1       0.328   4.916  -6.046  0.00  0.00    +0.012 A 
ATOM      5  C   UNL     1       1.525   4.134  -6.486  0.00  0.00    +0.034 C 
ATOM      6  C   UNL     1      -0.729   5.169  -6.912  0.00  0.00    -0.001 A 
ATOM      7  C   UNL     1      -1.904   5.585  -6.346  0.00  0.00    -0.000 A 
ATOM      8  C   UNL     1      -2.013   5.811  -4.987  0.00  0.00    -0.001 A 
ENDROOT
BRANCH   3   9
ATOM      9  O   UNL     1       1.444   5.659  -4.044  0.00  0.00    -0.475 OA
BRANCH   9  10
ATOM     10  C   UNL     1       2.237   6.800  -3.974  0.00  0.00    +0.224 C 
BRANCH  10  11
ATOM     11  C   UNL     1       3.689   6.431  -4.636  0.00  0.00    +0.135 C 
ATOM     12  N   UNL     1       3.418   7.310  -5.909  0.00  0.00    -0.129 NA
ATOM     13  C   UNL     1       4.463   7.654  -3.864  0.00  0.00    +0.024 C 
ENDBRANCH  10  11
ENDBRANCH   9  10
ENDBRANCH   3   9
TORSDOF 3
ENDMDL
MODEL 5
REMARK VINA RESULT:      -5.3      6.512      8.818
REMARK  Name = 
REMARK  3 active torsions:
REMARK  status: ('A' for Active; 'I' for Inactive)
REMARK    1  A    between atoms: C_8  and  O_9
REMARK    2  A    between atoms: O_9  and  C_10
REMARK    3  A    between atoms: C_10  and  C_11
REMARK                            x       y       z     vdW  Elec       q    Type
REMARK                         _______ _______ _______ _____ _____    ______ ____
ROOT
ATOM      1  C   UNL     1       1.419   6.124  -7.367  0.00  0.00    +0.034 C 
ATOM      2  C   UNL     1       0.216   6.050  -6.686  0.00  0.00    +0.012 A 
ATOM      3  C   UNL     1      -0.031   6.599  -5.442  0.00  0.00    +0.131 A 
ATOM      4  C   UNL     1      -1.341   6.909  -5.109  0.00  0.00    +0.012 A 
ATOM      5  C   UNL     1      -1.624   8.020  -4.149  0.00  0.00    +0.034 C 
ATOM      6  C   UNL     1      -2.356   6.086  -5.582  0.00  0.00    -0.001 A 
ATOM      7  C   UNL     1      -2.073   5.333  -6.691  0.00  0.00    -0.000 A 
ATOM      8  C   UNL     1      -0.817   5.338  -7.269  0.00  0.00    -0.001 A 
ENDROOT
BRANCH   3   9
ATOM      9  O   UNL     1       1.034   7.078  -4.737  0.00  0.00    -0.475 OA
BRANCH   9  10
ATOM     10  C   UNL     1       1.819   6.346  -3.852  0.00  0.00    +0.224 C 
BRANCH  10  11
ATOM     11  C   UNL     1       3.066   7.303  -3.392  0.00  0.00    +0.135 C 
ATOM     12  N   UNL     1       3.860   6.100  -2.770  0.00  0.00    -0.129 NA
ATOM     13  C   UNL     1       3.835   7.162  -4.834  0.00  0.00    +0.024 C 
ENDBRANCH  10  11
ENDBRANCH   9  10
ENDBRANCH   3   9
TORSDOF 3
ENDMDL
MODEL 6
REMARK VINA RESULT:      -5.3      6.677      8.882
REMARK  Name = 
REMARK  3 active torsions:
REMARK  status: ('A' for Active; 'I' for Inactive)
REMARK    1  A    between atoms: C_8  and  O_9
REMARK    2  A    between atoms: O_9  and  C_10
REMARK    3  A    between atoms: C_10  and  C_11
REMARK                            x       y       z     vdW  Elec       q    Type
REMARK                         _______ _______ _______ _____ _____    ______ ____
ROOT
ATOM      1  C   UNL     1      -0.327   5.338  -2.160  0.00  0.00    +0.034 C 
ATOM      2  C   UNL     1      -0.918   5.923  -3.267  0.00  0.00    +0.012 A 
ATOM      3  C   UNL     1      -0.509   5.747  -4.575  0.00  0.00    +0.131 A 
ATOM      4  C   UNL     1      -1.440   5.938  -5.585  0.00  0.00    +0.012 A 
ATOM      5  C   UNL     1      -1.304   5.194  -6.875  0.00  0.00    +0.034 C 
ATOM      6  C   UNL     1      -2.407   6.921  -5.416  0.00  0.00    -0.001 A 
ATOM      7  C   UNL     1      -2.681   7.302  -4.129  0.00  0.00    -0.000 A 
ATOM      8  C   UNL     1      -1.978   6.787  -3.056  0.00  0.00    -0.001 A 
ENDROOT
BRANCH   3   9
ATOM      9  O   UNL     1       0.681   5.115  -4.788  0.00  0.00    -0.475 OA
BRANCH   9  10
ATOM     10  C   UNL     1       1.891   5.736  -5.080  0.00  0.00    +0.224 C 
BRANCH  10  11
ATOM     11  C   UNL     1       2.994   4.558  -5.359  0.00  0.00    +0.135 C 
ATOM     12  N   UNL     1       2.042   3.796  -6.349  0.00  0.00    -0.129 NA
ATOM     13  C   UNL     1       3.719   5.387  -6.575  0.00  0.00    +0.024 C 
ENDBRANCH  10  11
ENDBRANCH   9  10
ENDBRANCH   3   9
TORSDOF 3
ENDMDL
MODEL 7
REMARK VINA RESULT:      -5.2      2.336      3.287
REMARK  Name = 
REMARK  3 active torsions:
REMARK  status: ('A' for Active; 'I' for Inactive)
REMARK    1  A    between atoms: C_8  and  O_9
REMARK    2  A    between atoms: O_9  and  C_10
REMARK    3  A    between atoms: C_10  and  C_11
REMARK                            x       y       z     vdW  Elec       q    Type
REMARK                         _______ _______ _______ _____ _____    ______ ____
ROOT
ATOM      1  C   UNL     1       5.083   5.075 -13.140  0.00  0.00    +0.034 C 
ATOM      2  C   UNL     1       5.750   5.545 -12.022  0.00  0.00    +0.012 A 
ATOM      3  C   UNL     1       5.202   5.670 -10.759  0.00  0.00    +0.131 A 
ATOM      4  C   UNL     1       6.056   5.646  -9.667  0.00  0.00    +0.012 A 
ATOM      5  C   UNL     1       5.564   5.145  -8.346  0.00  0.00    +0.034 C 
ATOM      6  C   UNL     1       7.318   6.212  -9.801  0.00  0.00    -0.001 A 
ATOM      7  C   UNL     1       7.810   6.328 -11.074  0.00  0.00    -0.000 A 
ATOM      8  C   UNL     1       7.060   5.964 -12.176  0.00  0.00    -0.001 A 
ENDROOT
BRANCH   3   9
ATOM      9  O   UNL     1       3.853   5.512 -10.635  0.00  0.00    -0.475 OA
BRANCH   9  10
ATOM     10  C   UNL     1       2.924   6.536 -10.485  0.00  0.00    +0.224 C 
BRANCH  10  11
ATOM     11  C   UNL     1       1.841   6.057  -9.354  0.00  0.00    +0.135 C 
ATOM     12  N   UNL     1       1.900   7.435  -8.602  0.00  0.00    -0.129 NA
ATOM     13  C   UNL     1       0.549   6.518 -10.253  0.00  0.00    +0.024 C 
ENDBRANCH  10  11
ENDBRANCH   9  10
ENDBRANCH   3   9
TORSDOF 3
ENDMDL
MODEL 8
REMARK VINA RESULT:      -5.1      1.742      3.006
REMARK  Name = 
REMARK  3 active torsions:
REMARK  status: ('A' for Active; 'I' for Inactive)
REMARK    1  A    between atoms: C_8  and  O_9
REMARK    2  A    between atoms: O_9  and  C_10
REMARK    3  A    between atoms: C_10  and  C_11
REMARK                            x       y       z     vdW  Elec       q    Type
REMARK                         _______ _______ _______ _____ _____    ______ ____
ROOT
ATOM      1  C   UNL     1       5.380   5.439 -12.791  0.00  0.00    +0.034 C 
ATOM      2  C   UNL     1       5.342   5.491 -11.408  0.00  0.00    +0.012 A 
ATOM      3  C   UNL     1       4.206   5.338 -10.635  0.00  0.00    +0.131 A 
ATOM      4  C   UNL     1       4.355   4.900  -9.328  0.00  0.00    +0.012 A 
ATOM      5  C   UNL     1       3.257   4.128  -8.670  0.00  0.00    +0.034 C 
ATOM      6  C   UNL     1       5.478   5.308  -8.619  0.00  0.00    -0.001 A 
ATOM      7  C   UNL     1       6.564   5.701  -9.355  0.00  0.00    -0.000 A 
ATOM      8  C   UNL     1       6.521   5.757 -10.735  0.00  0.00    -0.001 A 
ENDROOT
BRANCH   3   9
ATOM      9  O   UNL     1       3.001   5.333 -11.274  0.00  0.00    -0.475 OA
BRANCH   9  10
ATOM     10  C   UNL     1       2.069   6.366 -11.260  0.00  0.00    +0.224 C 
BRANCH  10  11
ATOM     11  C   UNL     1       0.723   5.825 -12.020  0.00  0.00    +0.135 C 
ATOM     12  N   UNL     1       0.427   4.762 -10.902  0.00  0.00    -0.129 NA
ATOM     13  C   UNL     1      -0.246   6.946 -11.316  0.00  0.00    +0.024 C 
ENDBRANCH  10  11
ENDBRANCH   9  10
ENDBRANCH   3   9
TORSDOF 3
ENDMDL
MODEL 9
REMARK VINA RESULT:      -4.9      4.184      5.683
REMARK  Name = 
REMARK  3 active torsions:
REMARK  status: ('A' for Active; 'I' for Inactive)
REMARK    1  A    between atoms: C_8  and  O_9
REMARK    2  A    between atoms: O_9  and  C_10
REMARK    3  A    between atoms: C_10  and  C_11
REMARK                            x       y       z     vdW  Elec       q    Type
REMARK                         _______ _______ _______ _____ _____    ______ ____
ROOT
ATOM      1  C   UNL     1       2.706   3.864  -8.358  0.00  0.00    +0.034 C 
ATOM      2  C   UNL     1       1.948   4.470  -7.370  0.00  0.00    +0.012 A 
ATOM      3  C   UNL     1       0.781   5.179  -7.582  0.00  0.00    +0.131 A 
ATOM      4  C   UNL     1      -0.125   5.280  -6.538  0.00  0.00    +0.012 A 
ATOM      5  C   UNL     1      -1.584   5.436  -6.828  0.00  0.00    +0.034 C 
ATOM      6  C   UNL     1       0.367   5.365  -5.241  0.00  0.00    -0.001 A 
ATOM      7  C   UNL     1       1.632   4.884  -5.029  0.00  0.00    -0.000 A 
ATOM      8  C   UNL     1       2.407   4.402  -6.067  0.00  0.00    -0.001 A 
ENDROOT
BRANCH   3   9
ATOM      9  O   UNL     1       0.447   5.480  -8.870  0.00  0.00    -0.475 OA
BRANCH   9  10
ATOM     10  C   UNL     1       0.871   6.600  -9.580  0.00  0.00    +0.224 C 
BRANCH  10  11
ATOM     11  C   UNL     1       0.448   6.379 -11.146  0.00  0.00    +0.135 C 
ATOM     12  N   UNL     1       1.921   6.043 -11.576  0.00  0.00    -0.129 NA
ATOM     13  C   UNL     1       0.073   4.797 -10.925  0.00  0.00    +0.024 C 
ENDBRANCH  10  11
ENDBRANCH   9  10
ENDBRANCH   3   9
TORSDOF 3
ENDMDL
