MODEL 1
REMARK VINA RESULT:      -6.5      0.000      0.000
REMARK  Name = 
REMARK  5 active torsions:
REMARK  status: ('A' for Active; 'I' for Inactive)
REMARK    1  A    between atoms: C_2  and  C_3
REMARK    2  A    between atoms: C_3  and  C_4
REMARK    3  A    between atoms: C_4  and  C_5
REMARK    4  A    between atoms: C_5  and  C_7
REMARK    5  A    between atoms: C_8  and  C_9
REMARK                            x       y       z     vdW  Elec       q    Type
REMARK                         _______ _______ _______ _____ _____    ______ ____
ROOT
ATOM      1  C   UNL     1       2.497   5.704  -6.974  0.00  0.00    +0.155 C 
ATOM      2  C   UNL     1       3.050   6.263  -5.736  0.00  0.00    +0.241 C 
ATOM      3  O   UNL     1       3.651   7.376  -5.841  0.00  0.00    -0.274 OA
ATOM      4  N   UNL     1       2.188   6.137  -4.595  0.00  0.00    -0.210 N 
ATOM      5  C   UNL     1       2.416   6.869  -3.368  0.00  0.00    +0.124 C 
ATOM      6  C   UNL     1       1.016   5.316  -4.625  0.00  0.00    +0.336 C 
ATOM      7  O   UNL     1       0.314   5.140  -3.603  0.00  0.00    -0.250 OA
ATOM      8  N   UNL     1       1.002   4.261  -5.593  0.00  0.00    -0.127 NA
ATOM      9  C   UNL     1       1.828   4.395  -6.759  0.00  0.00    +0.258 C 
ATOM     10  O   UNL     1       2.464   3.383  -7.189  0.00  0.00    -0.272 OA
ENDROOT
BRANCH   1  11
ATOM     11  C   UNL     1       1.267   6.773  -7.258  0.00  0.00    +0.081 C 
ATOM     12  C   UNL     1       2.123   7.617  -8.400  0.00  0.00    +0.015 C 
BRANCH  11  13
ATOM     13  C   UNL     1       0.607   5.803  -8.353  0.00  0.00    -0.091 C 
ATOM     14  C   UNL     1       0.183   5.884  -9.493  0.00  0.00    -0.091 C 
BRANCH  14  15
ATOM     15  C   UNL     1       0.227   6.019 -10.965  0.00  0.00    +0.076 C 
ATOM     16  C   UNL     1      -0.464   7.306 -11.302  0.00  0.00    +0.015 C 
ENDBRANCH  14  15
ENDBRANCH  11  13
ENDBRANCH   1  11
BRANCH   1  17
ATOM     17  C   UNL     1       3.358   5.671  -8.152  0.00  0.00    +0.044 C 
BRANCH  17  19
ATOM     18  C   UNL     1       5.730   5.293  -8.610  0.00  0.00    -0.005 C 
ATOM     19  C   UNL     1       4.731   5.324  -7.736  0.00  0.00    -0.025 C 
ENDBRANCH  17  19
ENDBRANCH   1  17
TORSDOF 5
ENDMDL
MODEL 2
REMARK VINA RESULT:      -6.4      2.536      4.447
REMARK  Name = 
REMARK  5 active torsions:
REMARK  status: ('A' for Active; 'I' for Inactive)
REMARK    1  A    between atoms: C_2  and  C_3
REMARK    2  A    between atoms: C_3  and  C_4
REMARK    3  A    between atoms: C_4  and  C_5
REMARK    4  A    between atoms: C_5  and  C_7
REMARK    5  A    between atoms: C_8  and  C_9
REMARK                            x       y       z     vdW  Elec       q    Type
REMARK                         _______ _______ _______ _____ _____    ______ ____
ROOT
ATOM      1  C   UNL     1       2.605   6.291  -6.964  0.00  0.00    +0.155 C 
ATOM      2  C   UNL     1       4.010   5.875  -7.050  0.00  0.00    +0.241 C 
ATOM      3  O   UNL     1       4.419   5.085  -6.145  0.00  0.00    -0.274 OA
ATOM      4  N   UNL     1       4.453   5.567  -8.380  0.00  0.00    -0.210 N 
ATOM      5  C   UNL     1       5.695   4.870  -8.640  0.00  0.00    +0.124 C 
ATOM      6  C   UNL     1       3.661   5.885  -9.529  0.00  0.00    +0.336 C 
ATOM      7  O   UNL     1       4.088   5.693 -10.691  0.00  0.00    -0.250 OA
ATOM      8  N   UNL     1       2.703   6.937  -9.371  0.00  0.00    -0.127 NA
ATOM      9  C   UNL     1       2.221   7.227  -8.051  0.00  0.00    +0.258 C 
ATOM     10  O   UNL     1       2.069   8.437  -7.697  0.00  0.00    -0.272 OA
ENDROOT
BRANCH   1  11
ATOM     11  C   UNL     1       1.852   4.867  -7.336  0.00  0.00    +0.081 C 
ATOM     12  C   UNL     1       1.495   4.520  -5.754  0.00  0.00    +0.015 C 
BRANCH  11  13
ATOM     13  C   UNL     1       0.450   5.610  -7.575  0.00  0.00    -0.091 C 
ATOM     14  C   UNL     1      -0.728   5.418  -7.326  0.00  0.00    -0.091 C 
BRANCH  14  15
ATOM     15  C   UNL     1      -1.957   5.312  -6.511  0.00  0.00    +0.076 C 
ATOM     16  C   UNL     1      -1.892   6.406  -5.488  0.00  0.00    +0.015 C 
ENDBRANCH  14  15
ENDBRANCH  11  13
ENDBRANCH   1  11
BRANCH   1  17
ATOM     17  C   UNL     1       2.108   6.749  -5.670  0.00  0.00    +0.044 C 
BRANCH  17  19
ATOM     18  C   UNL     1       3.216   7.265  -3.553  0.00  0.00    -0.005 C 
ATOM     19  C   UNL     1       3.237   7.279  -4.879  0.00  0.00    -0.025 C 
ENDBRANCH  17  19
ENDBRANCH   1  17
TORSDOF 5
ENDMDL
MODEL 3
REMARK VINA RESULT:      -6.4      2.165      4.321
REMARK  Name = 
REMARK  5 active torsions:
REMARK  status: ('A' for Active; 'I' for Inactive)
REMARK    1  A    between atoms: C_2  and  C_3
REMARK    2  A    between atoms: C_3  and  C_4
REMARK    3  A    between atoms: C_4  and  C_5
REMARK    4  A    between atoms: C_5  and  C_7
REMARK    5  A    between atoms: C_8  and  C_9
REMARK                            x       y       z     vdW  Elec       q    Type
REMARK                         _______ _______ _______ _____ _____    ______ ____
ROOT
ATOM      1  C   UNL     1       2.594   5.805  -8.708  0.00  0.00    +0.155 C 
ATOM      2  C   UNL     1       2.322   4.966  -7.536  0.00  0.00    +0.241 C 
ATOM      3  O   UNL     1       2.622   3.737  -7.642  0.00  0.00    -0.274 OA
ATOM      4  N   UNL     1       2.666   5.574  -6.282  0.00  0.00    -0.210 N 
ATOM      5  C   UNL     1       2.748   4.818  -5.051  0.00  0.00    +0.124 C 
ATOM      6  C   UNL     1       3.001   6.963  -6.187  0.00  0.00    +0.336 C 
ATOM      7  O   UNL     1       3.216   7.509  -5.081  0.00  0.00    -0.250 OA
ATOM      8  N   UNL     1       2.503   7.811  -7.227  0.00  0.00    -0.127 NA
ATOM      9  C   UNL     1       2.196   7.221  -8.499  0.00  0.00    +0.258 C 
ATOM     10  O   UNL     1       1.148   7.587  -9.116  0.00  0.00    -0.272 OA
ENDROOT
BRANCH   1  11
ATOM     11  C   UNL     1       4.247   5.816  -8.686  0.00  0.00    +0.081 C 
ATOM     12  C   UNL     1       4.372   4.366  -9.482  0.00  0.00    +0.015 C 
BRANCH  11  13
ATOM     13  C   UNL     1       4.312   6.661 -10.049  0.00  0.00    -0.091 C 
ATOM     14  C   UNL     1       5.091   7.411 -10.611  0.00  0.00    -0.091 C 
BRANCH  14  15
ATOM     15  C   UNL     1       6.296   7.823 -11.364  0.00  0.00    +0.076 C 
ATOM     16  C   UNL     1       7.456   7.096 -10.754  0.00  0.00    +0.015 C 
ENDBRANCH  14  15
ENDBRANCH  11  13
ENDBRANCH   1  11
BRANCH   1  17
ATOM     17  C   UNL     1       2.154   5.318 -10.012  0.00  0.00    +0.044 C 
BRANCH  17  19
ATOM     18  C   UNL     1       0.024   4.593 -10.966  0.00  0.00    -0.005 C 
ATOM     19  C   UNL     1       0.777   4.799  -9.893  0.00  0.00    -0.025 C 
ENDBRANCH  17  19
ENDBRANCH   1  17
TORSDOF 5
ENDMDL
MODEL 4
REMARK VINA RESULT:      -6.4      2.777      5.555
REMARK  Name = 
REMARK  5 active torsions:
REMARK  status: ('A' for Active; 'I' for Inactive)
REMARK    1  A    between atoms: C_2  and  C_3
REMARK    2  A    between atoms: C_3  and  C_4
REMARK    3  A    between atoms: C_4  and  C_5
REMARK    4  A    between atoms: C_5  and  C_7
REMARK    5  A    between atoms: C_8  and  C_9
REMARK                            x       y       z     vdW  Elec       q    Type
REMARK                         _______ _______ _______ _____ _____    ______ ____
ROOT
ATOM      1  C   UNL     1       2.037   5.734  -8.296  0.00  0.00    +0.155 C 
ATOM      2  C   UNL     1       1.598   6.020  -9.666  0.00  0.00    +0.241 C 
ATOM      3  O   UNL     1       0.850   7.034  -9.817  0.00  0.00    -0.274 OA
ATOM      4  N   UNL     1       2.624   5.861 -10.659  0.00  0.00    -0.210 N 
ATOM      5  C   UNL     1       2.481   6.368 -12.007  0.00  0.00    +0.124 C 
ATOM      6  C   UNL     1       3.876   5.238 -10.354  0.00  0.00    +0.336 C 
ATOM      7  O   UNL     1       4.733   5.024 -11.241  0.00  0.00    -0.250 OA
ATOM      8  N   UNL     1       3.887   4.347  -9.232  0.00  0.00    -0.127 NA
ATOM      9  C   UNL     1       2.893   4.522  -8.213  0.00  0.00    +0.258 C 
ATOM     10  O   UNL     1       2.338   3.499  -7.705  0.00  0.00    -0.272 OA
ENDROOT
BRANCH   1  11
ATOM     11  C   UNL     1       3.064   7.004  -8.042  0.00  0.00    +0.081 C 
ATOM     12  C   UNL     1       1.907   7.928  -7.297  0.00  0.00    +0.015 C 
BRANCH  11  13
ATOM     13  C   UNL     1       3.576   6.382  -6.654  0.00  0.00    -0.091 C 
ATOM     14  C   UNL     1       4.124   6.771  -5.637  0.00  0.00    -0.091 C 
BRANCH  14  15
ATOM     15  C   UNL     1       4.270   7.460  -4.337  0.00  0.00    +0.076 C 
ATOM     16  C   UNL     1       5.714   7.347  -3.949  0.00  0.00    +0.015 C 
ENDBRANCH  14  15
ENDBRANCH  11  13
ENDBRANCH   1  11
BRANCH   1  17
ATOM     17  C   UNL     1       1.027   5.741  -7.241  0.00  0.00    +0.044 C 
BRANCH  17  19
ATOM     18  C   UNL     1      -1.368   5.284  -7.074  0.00  0.00    -0.005 C 
ATOM     19  C   UNL     1      -0.258   5.278  -7.801  0.00  0.00    -0.025 C 
ENDBRANCH  17  19
ENDBRANCH   1  17
TORSDOF 5
ENDMDL
MODEL 5
REMARK VINA RESULT:      -6.3      2.276      5.409
REMARK  Name = 
REMARK  5 active torsions:
REMARK  status: ('A' for Active; 'I' for Inactive)
REMARK    1  A    between atoms: C_2  and  C_3
REMARK    2  A    between atoms: C_3  and  C_4
REMARK    3  A    between atoms: C_4  and  C_5
REMARK    4  A    between atoms: C_5  and  C_7
REMARK    5  A    between atoms: C_8  and  C_9
REMARK                            x       y       z     vdW  Elec       q    Type
REMARK                         _______ _______ _______ _____ _____    ______ ____
ROOT
ATOM      1  C   UNL     1       2.277   5.962  -6.123  0.00  0.00    +0.155 C 
ATOM      2  C   UNL     1       2.306   6.659  -7.414  0.00  0.00    +0.241 C 
ATOM      3  O   UNL     1       2.556   7.903  -7.376  0.00  0.00    -0.274 OA
ATOM      4  N   UNL     1       2.965   5.932  -8.462  0.00  0.00    -0.210 N 
ATOM      5  C   UNL     1       3.353   6.555  -9.710  0.00  0.00    +0.124 C 
ATOM      6  C   UNL     1       3.328   4.556  -8.310  0.00  0.00    +0.336 C 
ATOM      7  O   UNL     1       3.825   3.902  -9.255  0.00  0.00    -0.250 OA
ATOM      8  N   UNL     1       2.589   3.806  -7.339  0.00  0.00    -0.127 NA
ATOM      9  C   UNL     1       1.961   4.517  -6.263  0.00  0.00    +0.258 C 
ATOM     10  O   UNL     1       0.793   4.179  -5.894  0.00  0.00    -0.272 OA
ENDROOT
BRANCH   1  11
ATOM     11  C   UNL     1       3.880   6.014  -5.724  0.00  0.00    +0.081 C 
ATOM     12  C   UNL     1       3.688   7.290  -4.682  0.00  0.00    +0.015 C 
BRANCH  11  13
ATOM     13  C   UNL     1       3.679   4.929  -4.558  0.00  0.00    -0.091 C 
ATOM     14  C   UNL     1       4.035   4.766  -3.404  0.00  0.00    -0.091 C 
BRANCH  14  15
ATOM     15  C   UNL     1       4.091   4.987  -1.943  0.00  0.00    +0.076 C 
ATOM     16  C   UNL     1       2.725   5.437  -1.521  0.00  0.00    +0.015 C 
ENDBRANCH  14  15
ENDBRANCH  11  13
ENDBRANCH   1  11
BRANCH   1  17
ATOM     17  C   UNL     1       1.512   6.569  -5.038  0.00  0.00    +0.044 C 
BRANCH  17  19
ATOM     18  C   UNL     1      -0.790   7.333  -4.732  0.00  0.00    -0.005 C 
ATOM     19  C   UNL     1       0.195   6.991  -5.553  0.00  0.00    -0.025 C 
ENDBRANCH  17  19
ENDBRANCH   1  17
TORSDOF 5
ENDMDL
MODEL 6
REMARK VINA RESULT:      -6.2      1.546      4.262
REMARK  Name = 
REMARK  5 active torsions:
REMARK  status: ('A' for Active; 'I' for Inactive)
REMARK    1  A    between atoms: C_2  and  C_3
REMARK    2  A    between atoms: C_3  and  C_4
REMARK    3  A    between atoms: C_4  and  C_5
REMARK    4  A    between atoms: C_5  and  C_7
REMARK    5  A    between atoms: C_8  and  C_9
REMARK                            x       y       z     vdW  Elec       q    Type
REMARK                         _______ _______ _______ _____ _____    ______ ____
ROOT
ATOM      1  C   UNL     1       2.226   5.958  -7.845  0.00  0.00    +0.155 C 
ATOM      2  C   UNL     1       1.263   5.492  -6.841  0.00  0.00    +0.241 C 
ATOM      3  O   UNL     1       0.736   4.357  -7.051  0.00  0.00    -0.274 OA
ATOM      4  N   UNL     1       1.658   5.744  -5.484  0.00  0.00    -0.210 N 
ATOM      5  C   UNL     1       1.002   5.115  -4.358  0.00  0.00    +0.124 C 
ATOM      6  C   UNL     1       2.766   6.594  -5.168  0.00  0.00    +0.336 C 
ATOM      7  O   UNL     1       3.054   6.880  -3.984  0.00  0.00    -0.250 OA
ATOM      8  N   UNL     1       3.130   7.560  -6.161  0.00  0.00    -0.127 NA
ATOM      9  C   UNL     1       2.778   7.300  -7.527  0.00  0.00    +0.258 C 
ATOM     10  O   UNL     1       2.341   8.251  -8.248  0.00  0.00    -0.272 OA
ENDROOT
BRANCH   1  11
ATOM     11  C   UNL     1       3.472   4.906  -7.570  0.00  0.00    +0.081 C 
ATOM     12  C   UNL     1       2.916   3.795  -8.668  0.00  0.00    +0.015 C 
BRANCH  11  13
ATOM     13  C   UNL     1       4.399   5.637  -8.657  0.00  0.00    -0.091 C 
ATOM     14  C   UNL     1       5.589   5.774  -8.883  0.00  0.00    -0.091 C 
BRANCH  14  15
ATOM     15  C   UNL     1       6.957   5.400  -9.304  0.00  0.00    +0.076 C 
ATOM     16  C   UNL     1       7.494   6.550 -10.101  0.00  0.00    +0.015 C 
ENDBRANCH  14  15
ENDBRANCH  11  13
ENDBRANCH   1  11
BRANCH   1  17
ATOM     17  C   UNL     1       1.845   5.861  -9.251  0.00  0.00    +0.044 C 
BRANCH  17  19
ATOM     18  C   UNL     1      -0.121   6.451 -10.579  0.00  0.00    -0.005 C 
ATOM     19  C   UNL     1       0.419   6.213  -9.390  0.00  0.00    -0.025 C 
ENDBRANCH  17  19
ENDBRANCH   1  17
TORSDOF 5
ENDMDL
MODEL 7
REMARK VINA RESULT:      -6.2      2.420      4.635
REMARK  Name = 
REMARK  5 active torsions:
REMARK  status: ('A' for Active; 'I' for Inactive)
REMARK    1  A    between atoms: C_2  and  C_3
REMARK    2  A    between atoms: C_3  and  C_4
REMARK    3  A    between atoms: C_4  and  C_5
REMARK    4  A    between atoms: C_5  and  C_7
REMARK    5  A    between atoms: C_8  and  C_9
REMARK                            x       y       z     vdW  Elec       q    Type
REMARK                         _______ _______ _______ _____ _____    ______ ____
ROOT
ATOM      1  C   UNL     1       1.954   6.359  -6.416  0.00  0.00    +0.155 C 
ATOM      2  C   UNL     1       2.717   5.212  -6.917  0.00  0.00    +0.241 C 
ATOM      3  O   UNL     1       3.091   4.363  -6.051  0.00  0.00    -0.274 OA
ATOM      4  N   UNL     1       2.213   4.657  -8.141  0.00  0.00    -0.210 N 
ATOM      5  C   UNL     1       2.637   3.365  -8.638  0.00  0.00    +0.124 C 
ATOM      6  C   UNL     1       1.214   5.328  -8.916  0.00  0.00    +0.336 C 
ATOM      7  O   UNL     1       0.839   4.885 -10.025  0.00  0.00    -0.250 OA
ATOM      8  N   UNL     1       1.112   6.745  -8.732  0.00  0.00    -0.127 NA
ATOM      9  C   UNL     1       1.574   7.306  -7.496  0.00  0.00    +0.258 C 
ATOM     10  O   UNL     1       2.225   8.397  -7.514  0.00  0.00    -0.272 OA
ENDROOT
BRANCH   1  11
ATOM     11  C   UNL     1       0.543   5.611  -5.986  0.00  0.00    +0.081 C 
ATOM     12  C   UNL     1       1.059   5.295  -4.442  0.00  0.00    +0.015 C 
BRANCH  11  13
ATOM     13  C   UNL     1      -0.129   7.005  -5.562  0.00  0.00    -0.091 C 
ATOM     14  C   UNL     1      -1.115   7.385  -4.954  0.00  0.00    -0.091 C 
BRANCH  14  15
ATOM     15  C   UNL     1      -1.990   7.651  -3.792  0.00  0.00    +0.076 C 
ATOM     16  C   UNL     1      -2.860   6.443  -3.622  0.00  0.00    +0.015 C 
ENDBRANCH  14  15
ENDBRANCH  11  13
ENDBRANCH   1  11
BRANCH   1  17
ATOM     17  C   UNL     1       2.473   7.067  -5.249  0.00  0.00    +0.044 C 
BRANCH  17  19
ATOM     18  C   UNL     1       4.686   7.536  -4.322  0.00  0.00    -0.005 C 
ATOM     19  C   UNL     1       3.943   7.155  -5.354  0.00  0.00    -0.025 C 
ENDBRANCH  17  19
ENDBRANCH   1  17
TORSDOF 5
ENDMDL
MODEL 8
REMARK VINA RESULT:      -6.1      2.135      4.049
REMARK  Name = 
REMARK  5 active torsions:
REMARK  status: ('A' for Active; 'I' for Inactive)
REMARK    1  A    between atoms: C_2  and  C_3
REMARK    2  A    between atoms: C_3  and  C_4
REMARK    3  A    between atoms: C_4  and  C_5
REMARK    4  A    between atoms: C_5  and  C_7
REMARK    5  A    between atoms: C_8  and  C_9
REMARK                            x       y       z     vdW  Elec       q    Type
REMARK                         _______ _______ _______ _____ _____    ______ ____
ROOT
ATOM      1  C   UNL     1       2.470   5.735  -7.129  0.00  0.00    +0.155 C 
ATOM      2  C   UNL     1       2.516   4.951  -5.891  0.00  0.00    +0.241 C 
ATOM      3  O   UNL     1       2.278   3.709  -6.001  0.00  0.00    -0.274 OA
ATOM      4  N   UNL     1       3.604   5.291  -5.017  0.00  0.00    -0.210 N 
ATOM      5  C   UNL     1       3.993   4.453  -3.903  0.00  0.00    +0.124 C 
ATOM      6  C   UNL     1       4.405   6.457  -5.234  0.00  0.00    +0.336 C 
ATOM      7  O   UNL     1       5.297   6.797  -4.423  0.00  0.00    -0.250 OA
ATOM      8  N   UNL     1       3.804   7.511  -5.994  0.00  0.00    -0.127 NA
ATOM      9  C   UNL     1       2.744   7.177  -6.901  0.00  0.00    +0.258 C 
ATOM     10  O   UNL     1       1.732   7.941  -6.982  0.00  0.00    -0.272 OA
ENDROOT
BRANCH   1  11
ATOM     11  C   UNL     1       3.817   5.158  -7.895  0.00  0.00    +0.081 C 
ATOM     12  C   UNL     1       2.963   4.056  -8.793  0.00  0.00    +0.015 C 
BRANCH  11  13
ATOM     13  C   UNL     1       3.716   6.284  -9.034  0.00  0.00    -0.091 C 
ATOM     14  C   UNL     1       4.403   6.709  -9.948  0.00  0.00    -0.091 C 
BRANCH  14  15
ATOM     15  C   UNL     1       5.073   6.725 -11.265  0.00  0.00    +0.076 C 
ATOM     16  C   UNL     1       6.127   7.789 -11.201  0.00  0.00    +0.015 C 
ENDBRANCH  14  15
ENDBRANCH  11  13
ENDBRANCH   1  11
BRANCH   1  17
ATOM     17  C   UNL     1       1.323   5.547  -8.013  0.00  0.00    +0.044 C 
BRANCH  17  19
ATOM     18  C   UNL     1      -0.954   5.011  -7.304  0.00  0.00    -0.005 C 
ATOM     19  C   UNL     1       0.084   5.836  -7.263  0.00  0.00    -0.025 C 
ENDBRANCH  17  19
ENDBRANCH   1  17
TORSDOF 5
ENDMDL
MODEL 9
REMARK VINA RESULT:      -6.1      1.781      2.174
REMARK  Name = 
REMARK  5 active torsions:
REMARK  status: ('A' for Active; 'I' for Inactive)
REMARK    1  A    between atoms: C_2  and  C_3
REMARK    2  A    between atoms: C_3  and  C_4
REMARK    3  A    between atoms: C_4  and  C_5
REMARK    4  A    between atoms: C_5  and  C_7
REMARK    5  A    between atoms: C_8  and  C_9
REMARK                            x       y       z     vdW  Elec       q    Type
REMARK                         _______ _______ _______ _____ _____    ______ ____
ROOT
ATOM      1  C   UNL     1       2.606   5.961  -6.139  0.00  0.00    +0.155 C 
ATOM      2  C   UNL     1       3.482   6.612  -5.158  0.00  0.00    +0.241 C 
ATOM      3  O   UNL     1       4.120   7.632  -5.563  0.00  0.00    -0.274 OA
ATOM      4  N   UNL     1       2.913   6.726  -3.845  0.00  0.00    -0.210 N 
ATOM      5  C   UNL     1       3.484   7.582  -2.826  0.00  0.00    +0.124 C 
ATOM      6  C   UNL     1       1.712   6.039  -3.483  0.00  0.00    +0.336 C 
ATOM      7  O   UNL     1       1.266   6.071  -2.313  0.00  0.00    -0.250 OA
ATOM      8  N   UNL     1       1.387   4.876  -4.253  0.00  0.00    -0.127 NA
ATOM      9  C   UNL     1       1.915   4.770  -5.583  0.00  0.00    +0.258 C 
ATOM     10  O   UNL     1       2.352   3.649  -5.990  0.00  0.00    -0.272 OA
ENDROOT
BRANCH   1  11
ATOM     11  C   UNL     1       1.427   7.110  -6.291  0.00  0.00    +0.081 C 
ATOM     12  C   UNL     1       2.014   7.672  -7.737  0.00  0.00    +0.015 C 
BRANCH  11  13
ATOM     13  C   UNL     1       0.434   6.071  -7.006  0.00  0.00    -0.091 C 
ATOM     14  C   UNL     1      -0.666   5.585  -6.802  0.00  0.00    -0.091 C 
BRANCH  14  15
ATOM     15  C   UNL     1      -2.139   5.525  -6.697  0.00  0.00    +0.076 C 
ATOM     16  C   UNL     1      -2.538   6.509  -5.638  0.00  0.00    +0.015 C 
ENDBRANCH  14  15
ENDBRANCH  11  13
ENDBRANCH   1  11
BRANCH   1  17
ATOM     17  C   UNL     1       3.153   5.685  -7.464  0.00  0.00    +0.044 C 
BRANCH  17  19
ATOM     18  C   UNL     1       5.349   5.172  -8.407  0.00  0.00    -0.005 C 
ATOM     19  C   UNL     1       4.591   5.375  -7.337  0.00  0.00    -0.025 C 
ENDBRANCH  17  19
ENDBRANCH   1  17
TORSDOF 5
ENDMDL
