MODEL 1
REMARK VINA RESULT:      -9.3      0.000      0.000
REMARK  Name = 
REMARK  4 active torsions:
REMARK  status: ('A' for Active; 'I' for Inactive)
REMARK    1  A    between atoms: C_2  and  C_3
REMARK    2  A    between atoms: C_2  and  C_8
REMARK    3  A    between atoms: C_3  and  C_4
REMARK    4  A    between atoms: C_4  and  C_5
REMARK                            x       y       z     vdW  Elec       q    Type
REMARK                         _______ _______ _______ _____ _____    ______ ____
ROOT
ATOM      1  C   UNL     1       4.463   5.048  -9.538  0.00  0.00    +0.002 C 
ATOM      2  C   UNL     1       3.136   5.633  -8.856  0.00  0.00    +0.028 C 
ATOM      3  C   UNL     1       3.428   5.067  -7.385  0.00  0.00    +0.005 C 
ATOM      4  C   UNL     1       2.296   6.110  -6.746  0.00  0.00    +0.031 C 
ATOM      5  C   UNL     1       1.180   4.876  -6.921  0.00  0.00    +0.005 C 
ATOM      6  C   UNL     1       0.799   5.408  -8.403  0.00  0.00    +0.033 C 
ATOM      7  C   UNL     1      -0.043   5.617  -6.193  0.00  0.00    +0.000 C 
ATOM      8  C   UNL     1       0.609   6.996  -5.602  0.00  0.00    +0.005 C 
ATOM      9  C   UNL     1      -0.763   7.413  -4.908  0.00  0.00    +0.033 C 
ATOM     10  C   UNL     1      -1.141   6.766  -3.480  0.00  0.00    +0.152 C 
ATOM     11  C   UNL     1      -0.654   5.211  -3.739  0.00  0.00    +0.033 C 
ATOM     12  O   UNL     1       0.149   7.224  -2.799  0.00  0.00    -0.223 OA
ATOM     13  C   UNL     1       1.417   6.185  -4.438  0.00  0.00    +0.033 C 
ATOM     14  C   UNL     1      -1.146   5.959  -7.080  0.00  0.00    +0.000 C 
ATOM     15  C   UNL     1      -0.596   4.851  -5.092  0.00  0.00    +0.003 C 
ATOM     16  C   UNL     1       2.825   5.813  -5.175  0.00  0.00    +0.152 C 
ATOM     17  O   UNL     1       2.544   4.322  -5.170  0.00  0.00    -0.223 OA
ATOM     18  C   UNL     1       4.658   6.130  -7.331  0.00  0.00    +0.000 C 
ATOM     19  C   UNL     1       2.913   6.992  -8.950  0.00  0.00    +0.003 C 
ATOM     20  C   UNL     1       1.900   4.728  -9.420  0.00  0.00    +0.152 C 
ATOM     21  O   UNL     1       2.163   3.494  -8.568  0.00  0.00    -0.223 OA
ATOM     22  C   UNL     1       5.422   5.238  -8.237  0.00  0.00    +0.000 C 
ENDROOT
BRANCH   1  24
ATOM     23  C   UNL     1       4.545   6.125 -11.636  0.00  0.00    +0.000 C 
ATOM     24  C   UNL     1       5.012   6.541 -10.152  0.00  0.00    +0.001 C 
BRANCH  24  25
ATOM     25  C   UNL     1       6.516   5.982 -10.368  0.00  0.00    +0.012 C 
BRANCH  25  26
ATOM     26  C   UNL     1       7.100   6.622 -11.585  0.00  0.00    +0.114 C 
BRANCH  26  27
ATOM     27  C   UNL     1       7.967   5.827 -12.418  0.00  0.00    +0.365 C 
ATOM     28  O   UNL     1       9.340   5.813 -12.144  0.00  0.00    -0.246 OA
ATOM     29  O   UNL     1       7.737   4.674 -12.908  0.00  0.00    -0.246 OA
ENDBRANCH  26  27
ENDBRANCH  25  26
ENDBRANCH  24  25
ENDBRANCH   1  24
TORSDOF 4
ENDMDL
MODEL 2
REMARK VINA RESULT:      -9.3      1.197      1.539
REMARK  Name = 
REMARK  4 active torsions:
REMARK  status: ('A' for Active; 'I' for Inactive)
REMARK    1  A    between atoms: C_2  and  C_3
REMARK    2  A    between atoms: C_2  and  C_8
REMARK    3  A    between atoms: C_3  and  C_4
REMARK    4  A    between atoms: C_4  and  C_5
REMARK                            x       y       z     vdW  Elec       q    Type
REMARK                         _______ _______ _______ _____ _____    ______ ____
ROOT
ATOM      1  C   UNL     1       3.850   5.199  -8.209  0.00  0.00    +0.002 C 
ATOM      2  C   UNL     1       2.372   5.681  -7.819  0.00  0.00    +0.028 C 
ATOM      3  C   UNL     1       2.554   5.548  -6.232  0.00  0.00    +0.005 C 
ATOM      4  C   UNL     1       1.203   6.492  -5.987  0.00  0.00    +0.031 C 
ATOM      5  C   UNL     1       0.320   5.071  -5.933  0.00  0.00    +0.005 C 
ATOM      6  C   UNL     1       0.058   5.153  -7.529  0.00  0.00    +0.033 C 
ATOM      7  C   UNL     1      -1.086   5.732  -5.530  0.00  0.00    +0.000 C 
ATOM      8  C   UNL     1      -0.734   7.306  -5.262  0.00  0.00    +0.005 C 
ATOM      9  C   UNL     1      -2.232   7.623  -4.822  0.00  0.00    +0.033 C 
ATOM     10  C   UNL     1      -2.688   7.281  -3.313  0.00  0.00    +0.152 C 
ATOM     11  C   UNL     1      -1.940   5.824  -3.118  0.00  0.00    +0.033 C 
ATOM     12  O   UNL     1      -1.583   8.115  -2.665  0.00  0.00    -0.223 OA
ATOM     13  C   UNL     1       0.030   6.959  -3.862  0.00  0.00    +0.033 C 
ATOM     14  C   UNL     1      -2.104   5.645  -6.567  0.00  0.00    +0.000 C 
ATOM     15  C   UNL     1      -1.653   5.165  -4.321  0.00  0.00    +0.003 C 
ATOM     16  C   UNL     1       1.562   6.681  -4.352  0.00  0.00    +0.152 C 
ATOM     17  O   UNL     1       1.514   5.210  -3.986  0.00  0.00    -0.223 OA
ATOM     18  C   UNL     1       3.589   6.797  -6.349  0.00  0.00    +0.000 C 
ATOM     19  C   UNL     1       1.958   6.914  -8.282  0.00  0.00    +0.003 C 
ATOM     20  C   UNL     1       1.373   4.459  -8.235  0.00  0.00    +0.152 C 
ATOM     21  O   UNL     1       1.709   3.535  -7.073  0.00  0.00    -0.223 OA
ATOM     22  C   UNL     1       4.591   5.866  -6.924  0.00  0.00    +0.000 C 
ENDROOT
BRANCH   1  24
ATOM     23  C   UNL     1       3.693   5.852 -10.470  0.00  0.00    +0.000 C 
ATOM     24  C   UNL     1       4.239   6.574  -9.138  0.00  0.00    +0.001 C 
BRANCH  24  25
ATOM     25  C   UNL     1       5.760   6.072  -9.377  0.00  0.00    +0.012 C 
BRANCH  25  26
ATOM     26  C   UNL     1       6.010   5.968 -10.847  0.00  0.00    +0.114 C 
BRANCH  26  27
ATOM     27  C   UNL     1       7.322   5.564 -11.283  0.00  0.00    +0.365 C 
ATOM     28  O   UNL     1       7.433   4.698 -12.378  0.00  0.00    -0.246 OA
ATOM     29  O   UNL     1       8.378   6.273 -11.341  0.00  0.00    -0.246 OA
ENDBRANCH  26  27
ENDBRANCH  25  26
ENDBRANCH  24  25
ENDBRANCH   1  24
TORSDOF 4
ENDMDL
MODEL 3
REMARK VINA RESULT:      -9.1      3.210      4.683
REMARK  Name = 
REMARK  4 active torsions:
REMARK  status: ('A' for Active; 'I' for Inactive)
REMARK    1  A    between atoms: C_2  and  C_3
REMARK    2  A    between atoms: C_2  and  C_8
REMARK    3  A    between atoms: C_3  and  C_4
REMARK    4  A    between atoms: C_4  and  C_5
REMARK                            x       y       z     vdW  Elec       q    Type
REMARK                         _______ _______ _______ _____ _____    ______ ____
ROOT
ATOM      1  C   UNL     1       1.102   6.242  -9.518  0.00  0.00    +0.002 C 
ATOM      2  C   UNL     1       2.088   6.017  -8.276  0.00  0.00    +0.028 C 
ATOM      3  C   UNL     1       0.997   6.283  -7.132  0.00  0.00    +0.005 C 
ATOM      4  C   UNL     1       1.991   5.569  -6.001  0.00  0.00    +0.031 C 
ATOM      5  C   UNL     1       2.591   7.099  -5.684  0.00  0.00    +0.005 C 
ATOM      6  C   UNL     1       3.750   6.894  -6.797  0.00  0.00    +0.033 C 
ATOM      7  C   UNL     1       3.521   6.688  -4.442  0.00  0.00    +0.000 C 
ATOM      8  C   UNL     1       3.167   5.115  -4.170  0.00  0.00    +0.005 C 
ATOM      9  C   UNL     1       4.130   5.060  -2.902  0.00  0.00    +0.033 C 
ATOM     10  C   UNL     1       3.587   5.614  -1.488  0.00  0.00    +0.152 C 
ATOM     11  C   UNL     1       2.788   6.963  -2.004  0.00  0.00    +0.033 C 
ATOM     12  O   UNL     1       2.360   4.702  -1.468  0.00  0.00    -0.223 OA
ATOM     13  C   UNL     1       1.706   5.490  -3.548  0.00  0.00    +0.033 C 
ATOM     14  C   UNL     1       4.949   6.813  -4.700  0.00  0.00    +0.000 C 
ATOM     15  C   UNL     1       3.232   7.449  -3.241  0.00  0.00    +0.003 C 
ATOM     16  C   UNL     1       0.747   5.497  -4.868  0.00  0.00    +0.152 C 
ATOM     17  O   UNL     1       0.488   6.990  -4.791  0.00  0.00    -0.223 OA
ATOM     18  C   UNL     1       0.302   4.894  -7.616  0.00  0.00    +0.000 C 
ATOM     19  C   UNL     1       2.763   4.815  -8.203  0.00  0.00    +0.003 C 
ATOM     20  C   UNL     1       3.071   7.320  -8.234  0.00  0.00    +0.152 C 
ATOM     21  O   UNL     1       2.063   8.300  -7.650  0.00  0.00    -0.223 OA
ATOM     22  C   UNL     1      -0.217   5.611  -8.807  0.00  0.00    +0.000 C 
ENDROOT
BRANCH   1  24
ATOM     23  C   UNL     1       2.650   5.374 -11.073  0.00  0.00    +0.000 C 
ATOM     24  C   UNL     1       1.414   4.739 -10.260  0.00  0.00    +0.001 C 
BRANCH  24  25
ATOM     25  C   UNL     1       0.359   5.027 -11.454  0.00  0.00    +0.012 C 
BRANCH  25  26
ATOM     26  C   UNL     1       1.116   5.262 -12.721  0.00  0.00    +0.114 C 
BRANCH  26  27
ATOM     27  C   UNL     1       0.666   4.587 -13.912  0.00  0.00    +0.365 C 
ATOM     28  O   UNL     1       0.497   5.329 -15.087  0.00  0.00    -0.246 OA
ATOM     29  O   UNL     1       0.996   3.427 -14.323  0.00  0.00    -0.246 OA
ENDBRANCH  26  27
ENDBRANCH  25  26
ENDBRANCH  24  25
ENDBRANCH   1  24
TORSDOF 4
ENDMDL
MODEL 4
REMARK VINA RESULT:      -9.1      1.672      8.147
REMARK  Name = 
REMARK  4 active torsions:
REMARK  status: ('A' for Active; 'I' for Inactive)
REMARK    1  A    between atoms: C_2  and  C_3
REMARK    2  A    between atoms: C_2  and  C_8
REMARK    3  A    between atoms: C_3  and  C_4
REMARK    4  A    between atoms: C_4  and  C_5
REMARK                            x       y       z     vdW  Elec       q    Type
REMARK                         _______ _______ _______ _____ _____    ______ ____
ROOT
ATOM      1  C   UNL     1       1.028   5.211  -7.507  0.00  0.00    +0.002 C 
ATOM      2  C   UNL     1       2.471   5.726  -7.975  0.00  0.00    +0.028 C 
ATOM      3  C   UNL     1       2.260   5.449  -9.540  0.00  0.00    +0.005 C 
ATOM      4  C   UNL     1       3.557   6.431  -9.901  0.00  0.00    +0.031 C 
ATOM      5  C   UNL     1       4.508   5.054  -9.858  0.00  0.00    +0.005 C 
ATOM      6  C   UNL     1       4.801   5.286  -8.282  0.00  0.00    +0.033 C 
ATOM      7  C   UNL     1       5.870   5.743 -10.352  0.00  0.00    +0.000 C 
ATOM      8  C   UNL     1       5.435   7.270 -10.744  0.00  0.00    +0.005 C 
ATOM      9  C   UNL     1       6.905   7.619 -11.249  0.00  0.00    +0.033 C 
ATOM     10  C   UNL     1       7.343   7.170 -12.735  0.00  0.00    +0.152 C 
ATOM     11  C   UNL     1       6.664   5.667 -12.785  0.00  0.00    +0.033 C 
ATOM     12  O   UNL     1       6.184   7.891 -13.422  0.00  0.00    -0.223 OA
ATOM     13  C   UNL     1       4.657   6.768 -12.088  0.00  0.00    +0.033 C 
ATOM     14  C   UNL     1       6.914   5.795  -9.339  0.00  0.00    +0.000 C 
ATOM     15  C   UNL     1       6.437   5.102 -11.524  0.00  0.00    +0.003 C 
ATOM     16  C   UNL     1       3.152   6.461 -11.536  0.00  0.00    +0.152 C 
ATOM     17  O   UNL     1       3.265   4.968 -11.776  0.00  0.00    -0.223 OA
ATOM     18  C   UNL     1       1.167   6.652  -9.503  0.00  0.00    +0.000 C 
ATOM     19  C   UNL     1       2.834   7.013  -7.631  0.00  0.00    +0.003 C 
ATOM     20  C   UNL     1       3.538   4.594  -7.485  0.00  0.00    +0.152 C 
ATOM     21  O   UNL     1       3.223   3.558  -8.554  0.00  0.00    -0.223 OA
ATOM     22  C   UNL     1       0.226   5.728  -8.825  0.00  0.00    +0.000 C 
ENDROOT
BRANCH   1  24
ATOM     23  C   UNL     1       1.133   6.033  -5.299  0.00  0.00    +0.000 C 
ATOM     24  C   UNL     1       0.592   6.641  -6.688  0.00  0.00    +0.001 C 
BRANCH  24  25
ATOM     25  C   UNL     1      -0.920   6.121  -6.434  0.00  0.00    +0.012 C 
BRANCH  25  26
ATOM     26  C   UNL     1      -1.230   6.227  -4.976  0.00  0.00    +0.114 C 
BRANCH  26  27
ATOM     27  C   UNL     1      -2.127   7.270  -4.549  0.00  0.00    +0.365 C 
ATOM     28  O   UNL     1      -2.965   7.034  -3.453  0.00  0.00    -0.246 OA
ATOM     29  O   UNL     1      -1.902   8.523  -4.503  0.00  0.00    -0.246 OA
ENDBRANCH  26  27
ENDBRANCH  25  26
ENDBRANCH  24  25
ENDBRANCH   1  24
TORSDOF 4
ENDMDL
MODEL 5
REMARK VINA RESULT:      -8.8      3.215      7.811
REMARK  Name = 
REMARK  4 active torsions:
REMARK  status: ('A' for Active; 'I' for Inactive)
REMARK    1  A    between atoms: C_2  and  C_3
REMARK    2  A    between atoms: C_2  and  C_8
REMARK    3  A    between atoms: C_3  and  C_4
REMARK    4  A    between atoms: C_4  and  C_5
REMARK                            x       y       z     vdW  Elec       q    Type
REMARK                         _______ _______ _______ _____ _____    ______ ____
ROOT
ATOM      1  C   UNL     1       3.280   5.766  -2.157  0.00  0.00    +0.002 C 
ATOM      2  C   UNL     1       3.387   6.124  -3.715  0.00  0.00    +0.028 C 
ATOM      3  C   UNL     1       2.142   5.231  -4.189  0.00  0.00    +0.005 C 
ATOM      4  C   UNL     1       2.090   6.051  -5.638  0.00  0.00    +0.031 C 
ATOM      5  C   UNL     1       3.090   4.859  -6.255  0.00  0.00    +0.005 C 
ATOM      6  C   UNL     1       4.399   5.718  -5.843  0.00  0.00    +0.033 C 
ATOM      7  C   UNL     1       3.072   5.361  -7.779  0.00  0.00    +0.000 C 
ATOM      8  C   UNL     1       1.980   6.578  -7.795  0.00  0.00    +0.005 C 
ATOM      9  C   UNL     1       2.133   6.769  -9.369  0.00  0.00    +0.033 C 
ATOM     10  C   UNL     1       1.320   5.784 -10.355  0.00  0.00    +0.152 C 
ATOM     11  C   UNL     1       1.528   4.355  -9.557  0.00  0.00    +0.033 C 
ATOM     12  O   UNL     1      -0.044   6.108  -9.746  0.00  0.00    -0.223 OA
ATOM     13  C   UNL     1       0.731   5.539  -7.637  0.00  0.00    +0.033 C 
ATOM     14  C   UNL     1       4.351   5.868  -8.254  0.00  0.00    +0.000 C 
ATOM     15  C   UNL     1       2.643   4.333  -8.710  0.00  0.00    +0.003 C 
ATOM     16  C   UNL     1       0.583   5.402  -6.017  0.00  0.00    +0.152 C 
ATOM     17  O   UNL     1       1.007   3.946  -6.004  0.00  0.00    -0.223 OA
ATOM     18  C   UNL     1       1.207   6.291  -3.384  0.00  0.00    +0.000 C 
ATOM     19  C   UNL     1       3.347   7.458  -4.070  0.00  0.00    +0.003 C 
ATOM     20  C   UNL     1       4.706   5.340  -4.271  0.00  0.00    +0.152 C 
ATOM     21  O   UNL     1       4.094   3.948  -4.319  0.00  0.00    -0.223 OA
ATOM     22  C   UNL     1       1.656   5.670  -2.115  0.00  0.00    +0.000 C 
ENDROOT
BRANCH   1  24
ATOM     23  C   UNL     1       4.729   7.328  -1.143  0.00  0.00    +0.000 C 
ATOM     24  C   UNL     1       3.191   7.381  -1.616  0.00  0.00    +0.001 C 
BRANCH  24  25
ATOM     25  C   UNL     1       2.632   6.939  -0.162  0.00  0.00    +0.012 C 
BRANCH  25  26
ATOM     26  C   UNL     1       2.156   8.157   0.564  0.00  0.00    +0.114 C 
BRANCH  26  27
ATOM     27  C   UNL     1       0.736   8.341   0.716  0.00  0.00    +0.365 C 
ATOM     28  O   UNL     1       0.230   9.643   0.808  0.00  0.00    -0.246 OA
ATOM     29  O   UNL     1      -0.201   7.684   0.157  0.00  0.00    -0.246 OA
ENDBRANCH  26  27
ENDBRANCH  25  26
ENDBRANCH  24  25
ENDBRANCH   1  24
TORSDOF 4
ENDMDL
MODEL 6
REMARK VINA RESULT:      -8.8      2.370      3.411
REMARK  Name = 
REMARK  4 active torsions:
REMARK  status: ('A' for Active; 'I' for Inactive)
REMARK    1  A    between atoms: C_2  and  C_3
REMARK    2  A    between atoms: C_2  and  C_8
REMARK    3  A    between atoms: C_3  and  C_4
REMARK    4  A    between atoms: C_4  and  C_5
REMARK                            x       y       z     vdW  Elec       q    Type
REMARK                         _______ _______ _______ _____ _____    ______ ____
ROOT
ATOM      1  C   UNL     1       3.020   4.870  -8.863  0.00  0.00    +0.002 C 
ATOM      2  C   UNL     1       2.630   5.578  -7.479  0.00  0.00    +0.028 C 
ATOM      3  C   UNL     1       3.867   5.008  -6.633  0.00  0.00    +0.005 C 
ATOM      4  C   UNL     1       3.604   6.154  -5.453  0.00  0.00    +0.031 C 
ATOM      5  C   UNL     1       2.645   5.021  -4.680  0.00  0.00    +0.005 C 
ATOM      6  C   UNL     1       1.338   5.565  -5.467  0.00  0.00    +0.033 C 
ATOM      7  C   UNL     1       2.369   5.876  -3.350  0.00  0.00    +0.000 C 
ATOM      8  C   UNL     1       3.316   7.199  -3.512  0.00  0.00    +0.005 C 
ATOM      9  C   UNL     1       2.895   7.744  -2.076  0.00  0.00    +0.033 C 
ATOM     10  C   UNL     1       3.637   7.151  -0.772  0.00  0.00    +0.152 C 
ATOM     11  C   UNL     1       3.704   5.556  -1.189  0.00  0.00    +0.033 C 
ATOM     12  O   UNL     1       5.040   7.503  -1.264  0.00  0.00    -0.223 OA
ATOM     13  C   UNL     1       4.673   6.336  -3.233  0.00  0.00    +0.033 C 
ATOM     14  C   UNL     1       0.986   6.302  -3.192  0.00  0.00    +0.000 C 
ATOM     15  C   UNL     1       2.746   5.175  -2.137  0.00  0.00    +0.003 C 
ATOM     16  C   UNL     1       5.089   5.832  -4.728  0.00  0.00    +0.152 C 
ATOM     17  O   UNL     1       4.823   4.372  -4.415  0.00  0.00    -0.223 OA
ATOM     18  C   UNL     1       4.807   5.959  -7.559  0.00  0.00    +0.000 C 
ATOM     19  C   UNL     1       2.478   6.950  -7.482  0.00  0.00    +0.003 C 
ATOM     20  C   UNL     1       1.325   4.777  -6.912  0.00  0.00    +0.152 C 
ATOM     21  O   UNL     1       2.059   3.537  -6.425  0.00  0.00    -0.223 OA
ATOM     22  C   UNL     1       4.630   4.992  -8.670  0.00  0.00    +0.000 C 
ENDROOT
BRANCH   1  24
ATOM     23  C   UNL     1       1.600   5.921 -10.427  0.00  0.00    +0.000 C 
ATOM     24  C   UNL     1       3.029   6.301  -9.790  0.00  0.00    +0.001 C 
BRANCH  24  25
ATOM     25  C   UNL     1       3.856   5.602 -10.994  0.00  0.00    +0.012 C 
BRANCH  25  26
ATOM     26  C   UNL     1       3.277   6.043 -12.299  0.00  0.00    +0.114 C 
BRANCH  26  27
ATOM     27  C   UNL     1       3.688   5.347 -13.491  0.00  0.00    +0.365 C 
ATOM     28  O   UNL     1       4.848   4.563 -13.450  0.00  0.00    -0.246 OA
ATOM     29  O   UNL     1       2.949   4.760 -14.347  0.00  0.00    -0.246 OA
ENDBRANCH  26  27
ENDBRANCH  25  26
ENDBRANCH  24  25
ENDBRANCH   1  24
TORSDOF 4
ENDMDL
MODEL 7
REMARK VINA RESULT:      -8.8      2.352      3.300
REMARK  Name = 
REMARK  4 active torsions:
REMARK  status: ('A' for Active; 'I' for Inactive)
REMARK    1  A    between atoms: C_2  and  C_3
REMARK    2  A    between atoms: C_2  and  C_8
REMARK    3  A    between atoms: C_3  and  C_4
REMARK    4  A    between atoms: C_4  and  C_5
REMARK                            x       y       z     vdW  Elec       q    Type
REMARK                         _______ _______ _______ _____ _____    ______ ____
ROOT
ATOM      1  C   UNL     1       2.911   5.119  -8.582  0.00  0.00    +0.002 C 
ATOM      2  C   UNL     1       2.564   5.807  -7.177  0.00  0.00    +0.028 C 
ATOM      3  C   UNL     1       3.708   5.071  -6.330  0.00  0.00    +0.005 C 
ATOM      4  C   UNL     1       3.539   6.190  -5.106  0.00  0.00    +0.031 C 
ATOM      5  C   UNL     1       2.443   5.136  -4.406  0.00  0.00    +0.005 C 
ATOM      6  C   UNL     1       1.225   5.852  -5.196  0.00  0.00    +0.033 C 
ATOM      7  C   UNL     1       2.226   5.960  -3.046  0.00  0.00    +0.000 C 
ATOM      8  C   UNL     1       3.314   7.178  -3.128  0.00  0.00    +0.005 C 
ATOM      9  C   UNL     1       2.916   7.706  -1.679  0.00  0.00    +0.033 C 
ATOM     10  C   UNL     1       3.554   6.982  -0.386  0.00  0.00    +0.152 C 
ATOM     11  C   UNL     1       3.460   5.408  -0.871  0.00  0.00    +0.033 C 
ATOM     12  O   UNL     1       5.000   7.199  -0.831  0.00  0.00    -0.223 OA
ATOM     13  C   UNL     1       4.562   6.162  -2.857  0.00  0.00    +0.033 C 
ATOM     14  C   UNL     1       0.893   6.528  -2.900  0.00  0.00    +0.000 C 
ATOM     15  C   UNL     1       2.492   5.173  -1.857  0.00  0.00    +0.003 C 
ATOM     16  C   UNL     1       4.961   5.677  -4.363  0.00  0.00    +0.152 C 
ATOM     17  O   UNL     1       4.530   4.243  -4.121  0.00  0.00    -0.223 OA
ATOM     18  C   UNL     1       4.770   5.952  -7.192  0.00  0.00    +0.000 C 
ATOM     19  C   UNL     1       2.561   7.186  -7.122  0.00  0.00    +0.003 C 
ATOM     20  C   UNL     1       1.165   5.131  -6.675  0.00  0.00    +0.152 C 
ATOM     21  O   UNL     1       1.748   3.799  -6.226  0.00  0.00    -0.223 OA
ATOM     22  C   UNL     1       4.520   5.056  -8.348  0.00  0.00    +0.000 C 
ENDROOT
BRANCH   1  24
ATOM     23  C   UNL     1       1.664   6.373 -10.144  0.00  0.00    +0.000 C 
ATOM     24  C   UNL     1       3.100   6.578  -9.444  0.00  0.00    +0.001 C 
BRANCH  24  25
ATOM     25  C   UNL     1       3.896   5.846 -10.650  0.00  0.00    +0.012 C 
BRANCH  25  26
ATOM     26  C   UNL     1       4.567   6.885 -11.488  0.00  0.00    +0.114 C 
BRANCH  26  27
ATOM     27  C   UNL     1       5.801   7.450 -11.005  0.00  0.00    +0.365 C 
ATOM     28  O   UNL     1       6.806   6.588 -10.550  0.00  0.00    -0.246 OA
ATOM     29  O   UNL     1       6.438   8.449 -11.472  0.00  0.00    -0.246 OA
ENDBRANCH  26  27
ENDBRANCH  25  26
ENDBRANCH  24  25
ENDBRANCH   1  24
TORSDOF 4
ENDMDL
MODEL 8
REMARK VINA RESULT:      -8.7      2.888      7.113
REMARK  Name = 
REMARK  4 active torsions:
REMARK  status: ('A' for Active; 'I' for Inactive)
REMARK    1  A    between atoms: C_2  and  C_3
REMARK    2  A    between atoms: C_2  and  C_8
REMARK    3  A    between atoms: C_3  and  C_4
REMARK    4  A    between atoms: C_4  and  C_5
REMARK                            x       y       z     vdW  Elec       q    Type
REMARK                         _______ _______ _______ _____ _____    ______ ____
ROOT
ATOM      1  C   UNL     1       3.329   6.222  -6.146  0.00  0.00    +0.002 C 
ATOM      2  C   UNL     1       2.390   5.889  -7.401  0.00  0.00    +0.028 C 
ATOM      3  C   UNL     1       3.460   6.274  -8.531  0.00  0.00    +0.005 C 
ATOM      4  C   UNL     1       2.566   5.455  -9.674  0.00  0.00    +0.031 C 
ATOM      5  C   UNL     1       1.804   6.909 -10.001  0.00  0.00    +0.005 C 
ATOM      6  C   UNL     1       0.661   6.577  -8.902  0.00  0.00    +0.033 C 
ATOM      7  C   UNL     1       0.941   6.398 -11.254  0.00  0.00    +0.000 C 
ATOM      8  C   UNL     1       1.470   4.874 -11.519  0.00  0.00    +0.005 C 
ATOM      9  C   UNL     1       0.536   4.713 -12.799  0.00  0.00    +0.033 C 
ATOM     10  C   UNL     1       1.033   5.324 -14.207  0.00  0.00    +0.152 C 
ATOM     11  C   UNL     1       1.670   6.753 -13.682  0.00  0.00    +0.033 C 
ATOM     12  O   UNL     1       2.353   4.553 -14.210  0.00  0.00    -0.223 OA
ATOM     13  C   UNL     1       2.889   5.408 -12.123  0.00  0.00    +0.033 C 
ATOM     14  C   UNL     1      -0.495   6.364 -11.014  0.00  0.00    +0.000 C 
ATOM     15  C   UNL     1       1.160   7.186 -12.452  0.00  0.00    +0.003 C 
ATOM     16  C   UNL     1       3.825   5.521 -10.791  0.00  0.00    +0.152 C 
ATOM     17  O   UNL     1       3.918   7.033 -10.866  0.00  0.00    -0.223 OA
ATOM     18  C   UNL     1       4.299   4.971  -8.037  0.00  0.00    +0.000 C 
ATOM     19  C   UNL     1       1.854   4.619  -7.481  0.00  0.00    +0.003 C 
ATOM     20  C   UNL     1       1.271   7.075  -7.457  0.00  0.00    +0.152 C 
ATOM     21  O   UNL     1       2.171   8.160  -8.029  0.00  0.00    -0.223 OA
ATOM     22  C   UNL     1       4.719   5.740  -6.840  0.00  0.00    +0.000 C 
ENDROOT
BRANCH   1  24
ATOM     23  C   UNL     1       1.919   5.213  -4.546  0.00  0.00    +0.000 C 
ATOM     24  C   UNL     1       3.176   4.693  -5.407  0.00  0.00    +0.001 C 
BRANCH  24  25
ATOM     25  C   UNL     1       4.243   5.066  -4.248  0.00  0.00    +0.012 C 
BRANCH  25  26
ATOM     26  C   UNL     1       3.524   5.164  -2.941  0.00  0.00    +0.114 C 
BRANCH  26  27
ATOM     27  C   UNL     1       4.313   5.227  -1.738  0.00  0.00    +0.365 C 
ATOM     28  O   UNL     1       4.431   6.453  -1.071  0.00  0.00    -0.246 OA
ATOM     29  O   UNL     1       4.390   4.360  -0.808  0.00  0.00    -0.246 OA
ENDBRANCH  26  27
ENDBRANCH  25  26
ENDBRANCH  24  25
ENDBRANCH   1  24
TORSDOF 4
ENDMDL
MODEL 9
REMARK VINA RESULT:      -8.5      1.914      8.161
REMARK  Name = 
REMARK  4 active torsions:
REMARK  status: ('A' for Active; 'I' for Inactive)
REMARK    1  A    between atoms: C_2  and  C_3
REMARK    2  A    between atoms: C_2  and  C_8
REMARK    3  A    between atoms: C_3  and  C_4
REMARK    4  A    between atoms: C_4  and  C_5
REMARK                            x       y       z     vdW  Elec       q    Type
REMARK                         _______ _______ _______ _____ _____    ______ ____
ROOT
ATOM      1  C   UNL     1      -0.041   5.057  -5.460  0.00  0.00    +0.002 C 
ATOM      2  C   UNL     1       1.232   5.626  -6.250  0.00  0.00    +0.028 C 
ATOM      3  C   UNL     1       0.881   4.954  -7.662  0.00  0.00    +0.005 C 
ATOM      4  C   UNL     1       1.948   5.978  -8.429  0.00  0.00    +0.031 C 
ATOM      5  C   UNL     1       3.107   4.786  -8.231  0.00  0.00    +0.005 C 
ATOM      6  C   UNL     1       3.548   5.427  -6.811  0.00  0.00    +0.033 C 
ATOM      7  C   UNL     1       4.269   5.505  -9.072  0.00  0.00    +0.000 C 
ATOM      8  C   UNL     1       3.549   6.824  -9.718  0.00  0.00    +0.005 C 
ATOM      9  C   UNL     1       4.871   7.226 -10.511  0.00  0.00    +0.033 C 
ATOM     10  C   UNL     1       5.192   6.492 -11.911  0.00  0.00    +0.152 C 
ATOM     11  C   UNL     1       4.763   4.946 -11.522  0.00  0.00    +0.033 C 
ATOM     12  O   UNL     1       3.857   6.871 -12.551  0.00  0.00    -0.223 OA
ATOM     13  C   UNL     1       2.705   5.916 -10.781  0.00  0.00    +0.033 C 
ATOM     14  C   UNL     1       5.407   5.933  -8.271  0.00  0.00    +0.000 C 
ATOM     15  C   UNL     1       4.786   4.679 -10.147  0.00  0.00    +0.003 C 
ATOM     16  C   UNL     1       1.348   5.561  -9.947  0.00  0.00    +0.152 C 
ATOM     17  O   UNL     1       1.669   4.081  -9.866  0.00  0.00    -0.223 OA
ATOM     18  C   UNL     1      -0.379   5.981  -7.721  0.00  0.00    +0.000 C 
ATOM     19  C   UNL     1       1.422   6.993  -6.259  0.00  0.00    +0.003 C 
ATOM     20  C   UNL     1       2.521   4.792  -5.694  0.00  0.00    +0.152 C 
ATOM     21  O   UNL     1       2.248   3.497  -6.446  0.00  0.00    -0.223 OA
ATOM     22  C   UNL     1      -1.070   5.134  -6.718  0.00  0.00    +0.000 C 
ENDROOT
BRANCH   1  24
ATOM     23  C   UNL     1       0.056   6.321  -3.470  0.00  0.00    +0.000 C 
ATOM     24  C   UNL     1      -0.599   6.575  -4.919  0.00  0.00    +0.001 C 
BRANCH  24  25
ATOM     25  C   UNL     1      -2.035   5.971  -4.479  0.00  0.00    +0.012 C 
BRANCH  25  26
ATOM     26  C   UNL     1      -2.662   6.892  -3.483  0.00  0.00    +0.114 C 
BRANCH  26  27
ATOM     27  C   UNL     1      -2.960   6.370  -2.174  0.00  0.00    +0.365 C 
ATOM     28  O   UNL     1      -2.751   5.008  -1.925  0.00  0.00    -0.246 OA
ATOM     29  O   UNL     1      -2.754   6.925  -1.046  0.00  0.00    -0.246 OA
ENDBRANCH  26  27
ENDBRANCH  25  26
ENDBRANCH  24  25
ENDBRANCH   1  24
TORSDOF 4
ENDMDL
