MODEL 1
REMARK VINA RESULT:      -8.8      0.000      0.000
REMARK  Name = 
REMARK  2 active torsions:
REMARK  status: ('A' for Active; 'I' for Inactive)
REMARK    1  A    between atoms: C_24  and  C_25
REMARK    2  A    between atoms: C_25  and  C_27
REMARK                            x       y       z     vdW  Elec       q    Type
REMARK                         _______ _______ _______ _____ _____    ______ ____
ROOT
ATOM      1  C   UNL     1       4.814   8.078  -4.120  0.00  0.00    +0.000 C 
ATOM      2  C   UNL     1       4.823   6.635  -3.371  0.00  0.00    +0.007 C 
ATOM      3  C   UNL     1       3.130   6.547  -3.405  0.00  0.00    +0.060 C 
ATOM      4  C   UNL     1       2.991   5.531  -4.643  0.00  0.00    +0.009 C 
ATOM      5  C   UNL     1       3.917   6.481  -5.556  0.00  0.00    +0.002 C 
ATOM      6  C   UNL     1       3.922   5.299  -6.770  0.00  0.00    +0.020 C 
ATOM      7  C   UNL     1       2.540   5.839  -7.373  0.00  0.00    +0.102 C 
ATOM      8  C   UNL     1       1.380   5.001  -6.563  0.00  0.00    +0.166 C 
ATOM      9  O   UNL     1       2.247   3.784  -6.280  0.00  0.00    -0.222 OA
ATOM     10 CL   UNL     1       2.242   7.513  -7.090  0.00  0.00    -0.113 Cl
ATOM     11  C   UNL     1       2.364   5.461  -8.781  0.00  0.00    +0.052 C 
ATOM     12  C   UNL     1       3.560   5.551  -9.628  0.00  0.00    -0.005 C 
ATOM     13  C   UNL     1       3.469   5.368 -10.911  0.00  0.00    +0.036 C 
ATOM     14  C   UNL     1       2.308   6.022 -11.540  0.00  0.00    +0.195 C 
ATOM     15  C   UNL     1       1.471   6.820 -10.647  0.00  0.00    +0.038 C 
ATOM     16  O   UNL     1       2.281   6.234 -12.775  0.00  0.00    -0.287 OA
ATOM     17  C   UNL     1       4.821   4.876  -8.872  0.00  0.00    +0.180 C 
ATOM     18  F   UNL     1       5.815   5.543  -9.788  0.00  0.00    -0.233 F 
ATOM     19  C   UNL     1       1.654   4.124  -8.978  0.00  0.00    +0.010 C 
ATOM     20  C   UNL     1       1.392   6.443  -9.369  0.00  0.00    -0.018 C 
ATOM     21  C   UNL     1       4.847   6.145  -7.800  0.00  0.00    +0.041 C 
ATOM     22  C   UNL     1       3.599   4.254  -4.343  0.00  0.00    +0.001 C 
ATOM     23  C   UNL     1       1.676   5.723  -5.121  0.00  0.00    +0.035 C 
ATOM     24  C   UNL     1       5.152   5.857  -4.741  0.00  0.00    +0.000 C 
ENDROOT
BRANCH   3  25
ATOM     25  C   UNL     1       3.115   5.396  -2.281  0.00  0.00    +0.183 C 
ATOM     26  O   UNL     1       1.989   5.063  -1.911  0.00  0.00    -0.293 OA
BRANCH  25  27
ATOM     27  C   UNL     1       4.042   5.597  -1.123  0.00  0.00    +0.246 C 
ATOM     28  O   UNL     1       4.568   4.419  -0.636  0.00  0.00    -0.212 OA
ENDBRANCH  25  27
ENDBRANCH   3  25
TORSDOF 2
ENDMDL
MODEL 2
REMARK VINA RESULT:      -8.8      2.108      6.820
REMARK  Name = 
REMARK  2 active torsions:
REMARK  status: ('A' for Active; 'I' for Inactive)
REMARK    1  A    between atoms: C_24  and  C_25
REMARK    2  A    between atoms: C_25  and  C_27
REMARK                            x       y       z     vdW  Elec       q    Type
REMARK                         _______ _______ _______ _____ _____    ______ ____
ROOT
ATOM      1  C   UNL     1       4.379   4.464  -8.700  0.00  0.00    +0.000 C 
ATOM      2  C   UNL     1       3.256   5.512  -9.233  0.00  0.00    +0.007 C 
ATOM      3  C   UNL     1       2.007   4.629  -8.501  0.00  0.00    +0.060 C 
ATOM      4  C   UNL     1       1.800   5.572  -7.215  0.00  0.00    +0.009 C 
ATOM      5  C   UNL     1       3.369   5.478  -6.865  0.00  0.00    +0.002 C 
ATOM      6  C   UNL     1       3.160   6.633  -5.643  0.00  0.00    +0.020 C 
ATOM      7  C   UNL     1       2.720   5.512  -4.588  0.00  0.00    +0.102 C 
ATOM      8  C   UNL     1       1.088   5.399  -4.760  0.00  0.00    +0.166 C 
ATOM      9  O   UNL     1       0.892   6.828  -5.245  0.00  0.00    -0.222 OA
ATOM     10 CL   UNL     1       3.368   3.946  -4.897  0.00  0.00    -0.113 Cl
ATOM     11  C   UNL     1       2.922   5.946  -3.200  0.00  0.00    +0.052 C 
ATOM     12  C   UNL     1       4.159   6.689  -2.930  0.00  0.00    -0.005 C 
ATOM     13  C   UNL     1       4.488   6.994  -1.710  0.00  0.00    +0.036 C 
ATOM     14  C   UNL     1       4.282   5.910  -0.734  0.00  0.00    +0.195 C 
ATOM     15  C   UNL     1       3.798   4.646  -1.284  0.00  0.00    +0.038 C 
ATOM     16  O   UNL     1       4.866   5.924   0.375  0.00  0.00    -0.287 OA
ATOM     17  C   UNL     1       4.375   7.827  -4.060  0.00  0.00    +0.180 C 
ATOM     18  F   UNL     1       5.829   8.000  -3.706  0.00  0.00    -0.233 F 
ATOM     19  C   UNL     1       1.715   6.656  -2.591  0.00  0.00    +0.010 C 
ATOM     20  C   UNL     1       3.026   4.698  -2.372  0.00  0.00    -0.018 C 
ATOM     21  C   UNL     1       4.713   6.642  -5.175  0.00  0.00    +0.041 C 
ATOM     22  C   UNL     1       1.377   6.899  -7.602  0.00  0.00    +0.001 C 
ATOM     23  C   UNL     1       1.157   4.750  -6.264  0.00  0.00    +0.035 C 
ATOM     24  C   UNL     1       3.573   6.550  -8.043  0.00  0.00    +0.000 C 
ENDROOT
BRANCH   3  25
ATOM     25  C   UNL     1       0.891   5.368  -9.393  0.00  0.00    +0.183 C 
ATOM     26  O   UNL     1      -0.266   5.181  -9.015  0.00  0.00    -0.293 OA
BRANCH  25  27
ATOM     27  C   UNL     1       1.023   5.206 -10.875  0.00  0.00    +0.246 C 
ATOM     28  O   UNL     1      -0.087   4.637 -11.461  0.00  0.00    -0.212 OA
ENDBRANCH  25  27
ENDBRANCH   3  25
TORSDOF 2
ENDMDL
MODEL 3
REMARK VINA RESULT:      -8.6      2.596      7.138
REMARK  Name = 
REMARK  2 active torsions:
REMARK  status: ('A' for Active; 'I' for Inactive)
REMARK    1  A    between atoms: C_24  and  C_25
REMARK    2  A    between atoms: C_25  and  C_27
REMARK                            x       y       z     vdW  Elec       q    Type
REMARK                         _______ _______ _______ _____ _____    ______ ____
ROOT
ATOM      1  C   UNL     1       2.001   8.054  -7.822  0.00  0.00    +0.000 C 
ATOM      2  C   UNL     1       1.887   6.516  -8.335  0.00  0.00    +0.007 C 
ATOM      3  C   UNL     1       3.536   6.242  -8.051  0.00  0.00    +0.060 C 
ATOM      4  C   UNL     1       3.388   5.443  -6.665  0.00  0.00    +0.009 C 
ATOM      5  C   UNL     1       2.497   6.633  -6.046  0.00  0.00    +0.002 C 
ATOM      6  C   UNL     1       2.187   5.683  -4.678  0.00  0.00    +0.020 C 
ATOM      7  C   UNL     1       3.547   6.158  -3.978  0.00  0.00    +0.102 C 
ATOM      8  C   UNL     1       4.672   5.067  -4.479  0.00  0.00    +0.166 C 
ATOM      9  O   UNL     1       3.688   3.927  -4.691  0.00  0.00    -0.222 OA
ATOM     10 CL   UNL     1       4.100   7.713  -4.470  0.00  0.00    -0.113 Cl
ATOM     11  C   UNL     1       3.501   6.007  -2.519  0.00  0.00    +0.052 C 
ATOM     12  C   UNL     1       2.236   6.374  -1.870  0.00  0.00    -0.005 C 
ATOM     13  C   UNL     1       2.148   6.404  -0.574  0.00  0.00    +0.036 C 
ATOM     14  C   UNL     1       3.303   7.019   0.102  0.00  0.00    +0.195 C 
ATOM     15  C   UNL     1       4.341   7.552  -0.776  0.00  0.00    +0.038 C 
ATOM     16  O   UNL     1       3.211   7.433   1.282  0.00  0.00    -0.287 OA
ATOM     17  C   UNL     1       0.994   5.728  -2.682  0.00  0.00    +0.180 C 
ATOM     18  F   UNL     1      -0.002   6.650  -2.028  0.00  0.00    -0.233 F 
ATOM     19  C   UNL     1       3.996   4.651  -2.021  0.00  0.00    +0.010 C 
ATOM     20  C   UNL     1       4.519   6.957  -1.957  0.00  0.00    -0.018 C 
ATOM     21  C   UNL     1       1.269   6.791  -3.930  0.00  0.00    +0.041 C 
ATOM     22  C   UNL     1       2.654   4.211  -6.847  0.00  0.00    +0.001 C 
ATOM     23  C   UNL     1       4.650   5.562  -6.042  0.00  0.00    +0.035 C 
ATOM     24  C   UNL     1       1.295   6.024  -6.920  0.00  0.00    +0.000 C 
ENDROOT
BRANCH   3  25
ATOM     25  C   UNL     1       3.529   4.923  -8.971  0.00  0.00    +0.183 C 
ATOM     26  O   UNL     1       4.588   4.293  -8.962  0.00  0.00    -0.293 OA
BRANCH  25  27
ATOM     27  C   UNL     1       2.997   5.093 -10.359  0.00  0.00    +0.246 C 
ATOM     28  O   UNL     1       3.965   5.455 -11.272  0.00  0.00    -0.212 OA
ENDBRANCH  25  27
ENDBRANCH   3  25
TORSDOF 2
ENDMDL
MODEL 4
REMARK VINA RESULT:      -8.1      2.585      3.851
REMARK  Name = 
REMARK  2 active torsions:
REMARK  status: ('A' for Active; 'I' for Inactive)
REMARK    1  A    between atoms: C_24  and  C_25
REMARK    2  A    between atoms: C_25  and  C_27
REMARK                            x       y       z     vdW  Elec       q    Type
REMARK                         _______ _______ _______ _____ _____    ______ ____
ROOT
ATOM      1  C   UNL     1       1.948   4.412  -1.172  0.00  0.00    +0.000 C 
ATOM      2  C   UNL     1       2.366   5.940  -0.807  0.00  0.00    +0.007 C 
ATOM      3  C   UNL     1       3.908   5.736  -1.483  0.00  0.00    +0.060 C 
ATOM      4  C   UNL     1       3.637   6.493  -2.875  0.00  0.00    +0.009 C 
ATOM      5  C   UNL     1       2.344   5.572  -3.150  0.00  0.00    +0.002 C 
ATOM      6  C   UNL     1       1.965   6.519  -4.503  0.00  0.00    +0.020 C 
ATOM      7  C   UNL     1       2.941   5.661  -5.439  0.00  0.00    +0.102 C 
ATOM      8  C   UNL     1       4.398   6.416  -5.321  0.00  0.00    +0.166 C 
ATOM      9  O   UNL     1       3.826   7.792  -5.010  0.00  0.00    -0.222 OA
ATOM     10 CL   UNL     1       3.175   4.033  -4.928  0.00  0.00    -0.113 Cl
ATOM     11  C   UNL     1       2.579   5.764  -6.858  0.00  0.00    +0.052 C 
ATOM     12  C   UNL     1       1.143   5.736  -7.163  0.00  0.00    -0.005 C 
ATOM     13  C   UNL     1       0.735   5.684  -8.395  0.00  0.00    +0.036 C 
ATOM     14  C   UNL     1       1.489   4.748  -9.248  0.00  0.00    +0.195 C 
ATOM     15  C   UNL     1       2.536   3.982  -8.577  0.00  0.00    +0.038 C 
ATOM     16  O   UNL     1       1.006   4.331 -10.328  0.00  0.00    -0.287 OA
ATOM     17  C   UNL     1       0.350   6.730  -6.162  0.00  0.00    +0.180 C 
ATOM     18  F   UNL     1      -0.980   6.096  -6.476  0.00  0.00    -0.233 F 
ATOM     19  C   UNL     1       3.270   6.911  -7.592  0.00  0.00    +0.010 C 
ATOM     20  C   UNL     1       3.146   4.549  -7.534  0.00  0.00    -0.018 C 
ATOM     21  C   UNL     1       0.636   5.681  -4.907  0.00  0.00    +0.041 C 
ATOM     22  C   UNL     1       3.314   7.886  -2.659  0.00  0.00    +0.001 C 
ATOM     23  C   UNL     1       4.632   6.006  -3.751  0.00  0.00    +0.035 C 
ATOM     24  C   UNL     1       1.594   6.522  -2.094  0.00  0.00    +0.000 C 
ENDROOT
BRANCH   3  25
ATOM     25  C   UNL     1       4.469   7.040  -0.726  0.00  0.00    +0.183 C 
ATOM     26  O   UNL     1       5.688   7.194  -0.817  0.00  0.00    -0.293 OA
BRANCH  25  27
ATOM     27  C   UNL     1       3.989   7.242   0.677  0.00  0.00    +0.246 C 
ATOM     28  O   UNL     1       4.835   6.707   1.625  0.00  0.00    -0.212 OA
ENDBRANCH  25  27
ENDBRANCH   3  25
TORSDOF 2
ENDMDL
MODEL 5
REMARK VINA RESULT:      -8.1      2.338      7.466
REMARK  Name = 
REMARK  2 active torsions:
REMARK  status: ('A' for Active; 'I' for Inactive)
REMARK    1  A    between atoms: C_24  and  C_25
REMARK    2  A    between atoms: C_25  and  C_27
REMARK                            x       y       z     vdW  Elec       q    Type
REMARK                         _______ _______ _______ _____ _____    ______ ____
ROOT
ATOM      1  C   UNL     1      -0.453   7.779 -11.231  0.00  0.00    +0.000 C 
ATOM      2  C   UNL     1      -0.235   6.333 -11.940  0.00  0.00    +0.007 C 
ATOM      3  C   UNL     1       1.452   6.491 -11.866  0.00  0.00    +0.060 C 
ATOM      4  C   UNL     1       1.704   5.537 -10.598  0.00  0.00    +0.009 C 
ATOM      5  C   UNL     1       0.627   6.365  -9.732  0.00  0.00    +0.002 C 
ATOM      6  C   UNL     1       0.761   5.225  -8.486  0.00  0.00    +0.020 C 
ATOM      7  C   UNL     1       2.034   5.974  -7.867  0.00  0.00    +0.102 C 
ATOM      8  C   UNL     1       3.324   5.293  -8.627  0.00  0.00    +0.166 C 
ATOM      9  O   UNL     1       2.648   3.957  -8.896  0.00  0.00    -0.222 OA
ATOM     10 CL   UNL     1       2.095   7.665  -8.190  0.00  0.00    -0.113 Cl
ATOM     11  C   UNL     1       2.226   5.660  -6.446  0.00  0.00    +0.052 C 
ATOM     12  C   UNL     1       1.008   5.596  -5.628  0.00  0.00    -0.005 C 
ATOM     13  C   UNL     1       1.091   5.460  -4.339  0.00  0.00    +0.036 C 
ATOM     14  C   UNL     1       2.128   6.290  -3.703  0.00  0.00    +0.195 C 
ATOM     15  C   UNL     1       2.865   7.178  -4.599  0.00  0.00    +0.038 C 
ATOM     16  O   UNL     1       2.093   6.534  -2.474  0.00  0.00    -0.287 OA
ATOM     17  C   UNL     1      -0.123   4.727  -6.393  0.00  0.00    +0.180 C 
ATOM     18  F   UNL     1      -1.226   5.265  -5.519  0.00  0.00    -0.233 F 
ATOM     19  C   UNL     1       3.116   4.445  -6.195  0.00  0.00    +0.010 C 
ATOM     20  C   UNL     1       3.030   6.786  -5.864  0.00  0.00    -0.018 C 
ATOM     21  C   UNL     1      -0.303   5.952  -7.501  0.00  0.00    +0.041 C 
ATOM     22  C   UNL     1       1.294   4.178 -10.875  0.00  0.00    +0.001 C 
ATOM     23  C   UNL     1       2.965   5.929 -10.095  0.00  0.00    +0.035 C 
ATOM     24  C   UNL     1      -0.483   5.549 -10.556  0.00  0.00    +0.000 C 
ENDROOT
BRANCH   3  25
ATOM     25  C   UNL     1       1.662   5.327 -12.957  0.00  0.00    +0.183 C 
ATOM     26  O   UNL     1       2.840   5.097 -13.232  0.00  0.00    -0.293 OA
BRANCH  25  27
ATOM     27  C   UNL     1       0.813   5.418 -14.186  0.00  0.00    +0.246 C 
ATOM     28  O   UNL     1       0.396   4.190 -14.651  0.00  0.00    -0.212 OA
ENDBRANCH  25  27
ENDBRANCH   3  25
TORSDOF 2
ENDMDL
MODEL 6
REMARK VINA RESULT:      -7.7      2.410      3.148
REMARK  Name = 
REMARK  2 active torsions:
REMARK  status: ('A' for Active; 'I' for Inactive)
REMARK    1  A    between atoms: C_24  and  C_25
REMARK    2  A    between atoms: C_25  and  C_27
REMARK                            x       y       z     vdW  Elec       q    Type
REMARK                         _______ _______ _______ _____ _____    ______ ____
ROOT
ATOM      1  C   UNL     1       2.475   7.179  -3.773  0.00  0.00    +0.000 C 
ATOM      2  C   UNL     1       1.495   5.882  -3.746  0.00  0.00    +0.007 C 
ATOM      3  C   UNL     1       0.454   6.579  -4.890  0.00  0.00    +0.060 C 
ATOM      4  C   UNL     1       0.961   5.756  -6.174  0.00  0.00    +0.009 C 
ATOM      5  C   UNL     1       2.485   6.189  -5.879  0.00  0.00    +0.002 C 
ATOM      6  C   UNL     1       3.012   5.152  -7.111  0.00  0.00    +0.020 C 
ATOM      7  C   UNL     1       2.769   6.273  -8.228  0.00  0.00    +0.102 C 
ATOM      8  C   UNL     1       1.211   6.048  -8.708  0.00  0.00    +0.166 C 
ATOM      9  O   UNL     1       1.166   4.565  -8.370  0.00  0.00    -0.222 OA
ATOM     10 CL   UNL     1       2.890   7.893  -7.655  0.00  0.00    -0.113 Cl
ATOM     11  C   UNL     1       3.571   6.036  -9.435  0.00  0.00    +0.052 C 
ATOM     12  C   UNL     1       4.949   5.580  -9.215  0.00  0.00    -0.005 C 
ATOM     13  C   UNL     1       5.773   5.476 -10.214  0.00  0.00    +0.036 C 
ATOM     14  C   UNL     1       5.719   6.597 -11.169  0.00  0.00    +0.195 C 
ATOM     15  C   UNL     1       4.797   7.677 -10.824  0.00  0.00    +0.038 C 
ATOM     16  O   UNL     1       6.666   6.815 -11.960  0.00  0.00    -0.287 OA
ATOM     17  C   UNL     1       4.966   4.392  -8.116  0.00  0.00    +0.180 C 
ATOM     18  F   UNL     1       6.446   4.542  -7.875  0.00  0.00    -0.233 F 
ATOM     19  C   UNL     1       2.872   5.175 -10.484  0.00  0.00    +0.010 C 
ATOM     20  C   UNL     1       3.703   7.361 -10.128  0.00  0.00    -0.018 C 
ATOM     21  C   UNL     1       4.588   5.494  -6.932  0.00  0.00    +0.041 C 
ATOM     22  C   UNL     1       0.726   4.339  -6.014  0.00  0.00    +0.001 C 
ATOM     23  C   UNL     1       0.562   6.535  -7.283  0.00  0.00    +0.035 C 
ATOM     24  C   UNL     1       2.458   5.059  -4.739  0.00  0.00    +0.000 C 
ENDROOT
BRANCH   3  25
ATOM     25  C   UNL     1      -0.724   5.548  -4.523  0.00  0.00    +0.183 C 
ATOM     26  O   UNL     1      -1.691   5.592  -5.284  0.00  0.00    -0.293 OA
BRANCH  25  27
ATOM     27  C   UNL     1      -1.149   5.519  -3.089  0.00  0.00    +0.246 C 
ATOM     28  O   UNL     1      -2.291   4.778  -2.874  0.00  0.00    -0.212 OA
ENDBRANCH  25  27
ENDBRANCH   3  25
TORSDOF 2
ENDMDL
MODEL 7
REMARK VINA RESULT:      -7.4      2.110      6.862
REMARK  Name = 
REMARK  2 active torsions:
REMARK  status: ('A' for Active; 'I' for Inactive)
REMARK    1  A    between atoms: C_24  and  C_25
REMARK    2  A    between atoms: C_25  and  C_27
REMARK                            x       y       z     vdW  Elec       q    Type
REMARK                         _______ _______ _______ _____ _____    ______ ____
ROOT
ATOM      1  C   UNL     1       4.130   3.999  -8.876  0.00  0.00    +0.000 C 
ATOM      2  C   UNL     1       3.707   5.346  -9.681  0.00  0.00    +0.007 C 
ATOM      3  C   UNL     1       2.058   4.980  -9.535  0.00  0.00    +0.060 C 
ATOM      4  C   UNL     1       1.718   5.991  -8.332  0.00  0.00    +0.009 C 
ATOM      5  C   UNL     1       2.916   5.377  -7.446  0.00  0.00    +0.002 C 
ATOM      6  C   UNL     1       2.668   6.584  -6.284  0.00  0.00    +0.020 C 
ATOM      7  C   UNL     1       1.520   5.729  -5.567  0.00  0.00    +0.102 C 
ATOM      8  C   UNL     1       0.133   6.179  -6.327  0.00  0.00    +0.166 C 
ATOM      9  O   UNL     1       0.622   7.565  -6.718  0.00  0.00    -0.222 OA
ATOM     10 CL   UNL     1       1.671   4.024  -5.761  0.00  0.00    -0.113 Cl
ATOM     11  C   UNL     1       1.326   6.126  -4.166  0.00  0.00    +0.052 C 
ATOM     12  C   UNL     1       2.547   6.408  -3.400  0.00  0.00    -0.005 C 
ATOM     13  C   UNL     1       2.481   6.632  -2.122  0.00  0.00    +0.036 C 
ATOM     14  C   UNL     1       1.577   5.728  -1.389  0.00  0.00    +0.195 C 
ATOM     15  C   UNL     1       0.939   4.686  -2.190  0.00  0.00    +0.038 C 
ATOM     16  O   UNL     1       1.677   5.587  -0.148  0.00  0.00    -0.287 OA
ATOM     17  C   UNL     1       3.535   7.352  -4.267  0.00  0.00    +0.180 C 
ATOM     18  F   UNL     1       4.720   7.028  -3.396  0.00  0.00    -0.233 F 
ATOM     19  C   UNL     1       0.293   7.233  -3.974  0.00  0.00    +0.010 C 
ATOM     20  C   UNL     1       0.691   4.955  -3.473  0.00  0.00    -0.018 C 
ATOM     21  C   UNL     1       3.843   6.077  -5.287  0.00  0.00    +0.041 C 
ATOM     22  C   UNL     1       1.940   7.365  -8.723  0.00  0.00    +0.001 C 
ATOM     23  C   UNL     1       0.533   5.482  -7.756  0.00  0.00    +0.035 C 
ATOM     24  C   UNL     1       3.889   6.261  -8.369  0.00  0.00    +0.000 C 
ENDROOT
BRANCH   3  25
ATOM     25  C   UNL     1       1.670   6.020 -10.700  0.00  0.00    +0.183 C 
ATOM     26  O   UNL     1       0.472   6.037 -10.985  0.00  0.00    -0.293 OA
BRANCH  25  27
ATOM     27  C   UNL     1       2.531   5.986 -11.923  0.00  0.00    +0.246 C 
ATOM     28  O   UNL     1       1.933   5.355 -12.992  0.00  0.00    -0.212 OA
ENDBRANCH  25  27
ENDBRANCH   3  25
TORSDOF 2
ENDMDL
MODEL 8
REMARK VINA RESULT:      -7.3      2.742      4.627
REMARK  Name = 
REMARK  2 active torsions:
REMARK  status: ('A' for Active; 'I' for Inactive)
REMARK    1  A    between atoms: C_24  and  C_25
REMARK    2  A    between atoms: C_25  and  C_27
REMARK                            x       y       z     vdW  Elec       q    Type
REMARK                         _______ _______ _______ _____ _____    ______ ____
ROOT
ATOM      1  C   UNL     1      -0.966   4.684  -6.780  0.00  0.00    +0.000 C 
ATOM      2  C   UNL     1       0.198   5.582  -6.087  0.00  0.00    +0.007 C 
ATOM      3  C   UNL     1       1.405   4.501  -6.589  0.00  0.00    +0.060 C 
ATOM      4  C   UNL     1       1.952   5.352  -7.838  0.00  0.00    +0.009 C 
ATOM      5  C   UNL     1       0.463   5.469  -8.441  0.00  0.00    +0.002 C 
ATOM      6  C   UNL     1       1.034   6.531  -9.630  0.00  0.00    +0.020 C 
ATOM      7  C   UNL     1       1.467   5.317 -10.580  0.00  0.00    +0.102 C 
ATOM      8  C   UNL     1       3.016   4.980 -10.139  0.00  0.00    +0.166 C 
ATOM      9  O   UNL     1       3.340   6.384  -9.653  0.00  0.00    -0.222 OA
ATOM     10 CL   UNL     1       0.555   3.873 -10.355  0.00  0.00    -0.113 Cl
ATOM     11  C   UNL     1       1.556   5.719 -11.989  0.00  0.00    +0.052 C 
ATOM     12  C   UNL     1       0.502   6.619 -12.471  0.00  0.00    -0.005 C 
ATOM     13  C   UNL     1       0.421   6.918 -13.733  0.00  0.00    +0.036 C 
ATOM     14  C   UNL     1       0.619   5.777 -14.644  0.00  0.00    +0.195 C 
ATOM     15  C   UNL     1       0.817   4.480 -14.001  0.00  0.00    +0.038 C 
ATOM     16  O   UNL     1       0.229   5.829 -15.834  0.00  0.00    -0.287 OA
ATOM     17  C   UNL     1       0.277   7.821 -11.411  0.00  0.00    +0.180 C 
ATOM     18  F   UNL     1      -1.060   8.185 -12.003  0.00  0.00    -0.233 F 
ATOM     19  C   UNL     1       2.936   6.224 -12.402  0.00  0.00    +0.010 C 
ATOM     20  C   UNL     1       1.404   4.466 -12.802  0.00  0.00    -0.018 C 
ATOM     21  C   UNL     1      -0.406   6.743 -10.347  0.00  0.00    +0.041 C 
ATOM     22  C   UNL     1       2.499   6.620  -7.409  0.00  0.00    +0.001 C 
ATOM     23  C   UNL     1       2.611   4.409  -8.657  0.00  0.00    +0.035 C 
ATOM     24  C   UNL     1       0.233   6.605  -7.330  0.00  0.00    +0.000 C 
ENDROOT
BRANCH   3  25
ATOM     25  C   UNL     1       2.460   5.109  -5.537  0.00  0.00    +0.183 C 
ATOM     26  O   UNL     1       3.533   4.507  -5.490  0.00  0.00    -0.293 OA
BRANCH  25  27
ATOM     27  C   UNL     1       1.928   5.403  -4.169  0.00  0.00    +0.246 C 
ATOM     28  O   UNL     1       2.480   6.531  -3.601  0.00  0.00    -0.212 OA
ENDBRANCH  25  27
ENDBRANCH   3  25
TORSDOF 2
ENDMDL
MODEL 9
REMARK VINA RESULT:      -7.2      2.635      4.271
REMARK  Name = 
REMARK  2 active torsions:
REMARK  status: ('A' for Active; 'I' for Inactive)
REMARK    1  A    between atoms: C_24  and  C_25
REMARK    2  A    between atoms: C_25  and  C_27
REMARK                            x       y       z     vdW  Elec       q    Type
REMARK                         _______ _______ _______ _____ _____    ______ ____
ROOT
ATOM      1  C   UNL     1       2.499   7.898  -7.440  0.00  0.00    +0.000 C 
ATOM      2  C   UNL     1       2.594   6.364  -6.913  0.00  0.00    +0.007 C 
ATOM      3  C   UNL     1       0.955   6.090  -7.247  0.00  0.00    +0.060 C 
ATOM      4  C   UNL     1       1.146   5.280  -8.622  0.00  0.00    +0.009 C 
ATOM      5  C   UNL     1       2.059   6.465  -9.220  0.00  0.00    +0.002 C 
ATOM      6  C   UNL     1       2.411   5.504 -10.571  0.00  0.00    +0.020 C 
ATOM      7  C   UNL     1       1.075   5.974 -11.317  0.00  0.00    +0.102 C 
ATOM      8  C   UNL     1      -0.067   4.889 -10.845  0.00  0.00    +0.166 C 
ATOM      9  O   UNL     1       0.908   3.749 -10.593  0.00  0.00    -0.222 OA
ATOM     10 CL   UNL     1       0.509   7.534 -10.855  0.00  0.00    -0.113 Cl
ATOM     11  C   UNL     1       1.168   5.812 -12.774  0.00  0.00    +0.052 C 
ATOM     12  C   UNL     1       2.454   6.174 -13.383  0.00  0.00    -0.005 C 
ATOM     13  C   UNL     1       2.584   6.193 -14.676  0.00  0.00    +0.036 C 
ATOM     14  C   UNL     1       1.452   6.805 -15.394  0.00  0.00    +0.195 C 
ATOM     15  C   UNL     1       0.387   7.346 -14.554  0.00  0.00    +0.038 C 
ATOM     16  O   UNL     1       1.582   7.210 -16.574  0.00  0.00    -0.287 OA
ATOM     17  C   UNL     1       3.668   5.533 -12.527  0.00  0.00    +0.180 C 
ATOM     18  F   UNL     1       4.686   6.448 -13.156  0.00  0.00    -0.233 F 
ATOM     19  C   UNL     1       0.688   4.453 -13.277  0.00  0.00    +0.010 C 
ATOM     20  C   UNL     1       0.169   6.760 -13.374  0.00  0.00    -0.018 C 
ATOM     21  C   UNL     1       3.355   6.605 -11.297  0.00  0.00    +0.041 C 
ATOM     22  C   UNL     1       1.873   4.048  -8.407  0.00  0.00    +0.001 C 
ATOM     23  C   UNL     1      -0.095   5.396  -9.286  0.00  0.00    +0.035 C 
ATOM     24  C   UNL     1       3.231   5.861  -8.303  0.00  0.00    +0.000 C 
ENDROOT
BRANCH   3  25
ATOM     25  C   UNL     1       0.930   4.777  -6.317  0.00  0.00    +0.183 C 
ATOM     26  O   UNL     1      -0.172   4.235  -6.235  0.00  0.00    -0.293 OA
BRANCH  25  27
ATOM     27  C   UNL     1       1.585   4.909  -4.978  0.00  0.00    +0.246 C 
ATOM     28  O   UNL     1       0.741   5.398  -4.005  0.00  0.00    -0.212 OA
ENDBRANCH  25  27
ENDBRANCH   3  25
TORSDOF 2
ENDMDL
