MODEL 1
REMARK VINA RESULT:      -8.8      0.000      0.000
REMARK  Name = 
REMARK  1 active torsions:
REMARK  status: ('A' for Active; 'I' for Inactive)
REMARK    1  A    between atoms: C_10  and  C_11
REMARK                            x       y       z     vdW  Elec       q    Type
REMARK                         _______ _______ _______ _____ _____    ______ ____
ROOT
ATOM      1  C   UNL     1       4.156   6.642  -9.874  0.00  0.00    +0.090 C 
ATOM      2  N   UNL     1       2.760   6.480  -9.544  0.00  0.00    -0.271 NA
ATOM      3  C   UNL     1       2.332   7.261  -8.422  0.00  0.00    +0.077 C 
ATOM      4  C   UNL     1       2.995   6.677  -7.194  0.00  0.00    +0.039 C 
ATOM      5  C   UNL     1       2.475   5.279  -7.073  0.00  0.00    -0.039 C 
ATOM      6  C   UNL     1       1.945   4.982  -5.884  0.00  0.00    +0.026 C 
ATOM      7  C   UNL     1       0.501   5.207  -5.718  0.00  0.00    -0.002 A 
ATOM      8  C   UNL     1      -0.215   5.658  -4.615  0.00  0.00    -0.020 A 
ATOM      9  C   UNL     1      -1.594   5.759  -4.657  0.00  0.00    -0.004 A 
ATOM     10  C   UNL     1      -2.228   5.723  -5.892  0.00  0.00    -0.000 A 
ATOM     11  C   UNL     1      -1.479   5.334  -6.991  0.00  0.00    -0.000 A 
ATOM     12  C   UNL     1       0.361   6.339  -3.412  0.00  0.00    +0.051 C 
ATOM     13  C   UNL     1       1.413   5.497  -2.753  0.00  0.00    +0.112 C 
ATOM     14  N   UNL     1       2.662   5.454  -3.465  0.00  0.00    -0.308 N 
ATOM     15  C   UNL     1       3.777   6.036  -2.960  0.00  0.00    +0.123 A 
ATOM     16  C   UNL     1       4.784   5.603  -3.814  0.00  0.00    +0.121 A 
ATOM     17  N   UNL     1       4.208   4.946  -4.851  0.00  0.00    -0.225 NA
ATOM     18  C   UNL     1      -0.104   5.186  -6.944  0.00  0.00    -0.000 A 
ATOM     19  C   UNL     1       2.880   5.087  -4.754  0.00  0.00    +0.143 A 
ATOM     20  C   UNL     1       2.200   4.445  -8.251  0.00  0.00    +0.039 C 
ATOM     21  C   UNL     1       2.304   5.130  -9.562  0.00  0.00    +0.077 C 
ENDROOT
BRANCH  15  22
ATOM     22  C   UNL     1       3.874   7.173  -2.039  0.00  0.00    +0.253 C 
ATOM     23  O   UNL     1       3.749   8.369  -2.414  0.00  0.00    -0.281 OA
ENDBRANCH  15  22
TORSDOF 1
ENDMDL
MODEL 2
REMARK VINA RESULT:      -8.6      2.365      3.915
REMARK  Name = 
REMARK  1 active torsions:
REMARK  status: ('A' for Active; 'I' for Inactive)
REMARK    1  A    between atoms: C_10  and  C_11
REMARK                            x       y       z     vdW  Elec       q    Type
REMARK                         _______ _______ _______ _____ _____    ______ ____
ROOT
ATOM      1  C   UNL     1       5.509   6.983  -3.725  0.00  0.00    +0.090 C 
ATOM      2  N   UNL     1       4.689   6.675  -4.872  0.00  0.00    -0.271 NA
ATOM      3  C   UNL     1       3.458   7.405  -4.921  0.00  0.00    +0.077 C 
ATOM      4  C   UNL     1       2.591   6.892  -3.792  0.00  0.00    +0.039 C 
ATOM      5  C   UNL     1       2.342   5.447  -4.091  0.00  0.00    -0.039 C 
ATOM      6  C   UNL     1       1.055   5.093  -4.105  0.00  0.00    +0.026 C 
ATOM      7  C   UNL     1       0.352   5.165  -5.395  0.00  0.00    -0.002 A 
ATOM      8  C   UNL     1      -0.956   5.537  -5.685  0.00  0.00    -0.020 A 
ATOM      9  C   UNL     1      -1.435   5.493  -6.982  0.00  0.00    -0.004 A 
ATOM     10  C   UNL     1      -0.526   5.393  -8.026  0.00  0.00    -0.000 A 
ATOM     11  C   UNL     1       0.788   5.087  -7.711  0.00  0.00    -0.000 A 
ATOM     12  C   UNL     1      -1.884   6.272  -4.768  0.00  0.00    +0.051 C 
ATOM     13  C   UNL     1      -2.067   5.544  -3.470  0.00  0.00    +0.112 C 
ATOM     14  N   UNL     1      -0.939   5.634  -2.582  0.00  0.00    -0.308 N 
ATOM     15  C   UNL     1      -1.016   6.329  -1.420  0.00  0.00    +0.123 A 
ATOM     16  C   UNL     1       0.170   6.005  -0.770  0.00  0.00    +0.121 A 
ATOM     17  N   UNL     1       0.943   5.293  -1.628  0.00  0.00    -0.225 NA
ATOM     18  C   UNL     1       1.263   5.083  -6.411  0.00  0.00    -0.000 A 
ATOM     19  C   UNL     1       0.351   5.294  -2.829  0.00  0.00    +0.143 A 
ATOM     20  C   UNL     1       3.365   4.590  -4.706  0.00  0.00    +0.039 C 
ATOM     21  C   UNL     1       4.591   5.285  -5.169  0.00  0.00    +0.077 C 
ENDROOT
BRANCH  15  22
ATOM     22  C   UNL     1      -1.880   7.468  -1.094  0.00  0.00    +0.253 C 
ATOM     23  O   UNL     1      -1.562   8.346  -0.248  0.00  0.00    -0.281 OA
ENDBRANCH  15  22
TORSDOF 1
ENDMDL
MODEL 3
REMARK VINA RESULT:      -8.5      3.906      7.562
REMARK  Name = 
REMARK  1 active torsions:
REMARK  status: ('A' for Active; 'I' for Inactive)
REMARK    1  A    between atoms: C_10  and  C_11
REMARK                            x       y       z     vdW  Elec       q    Type
REMARK                         _______ _______ _______ _____ _____    ______ ____
ROOT
ATOM      1  C   UNL     1       3.736   5.215  -6.325  0.00  0.00    +0.090 C 
ATOM      2  N   UNL     1       2.792   4.966  -7.388  0.00  0.00    -0.271 NA
ATOM      3  C   UNL     1       3.345   4.257  -8.503  0.00  0.00    +0.077 C 
ATOM      4  C   UNL     1       4.319   5.190  -9.187  0.00  0.00    +0.039 C 
ATOM      5  C   UNL     1       3.506   6.350  -9.670  0.00  0.00    -0.039 C 
ATOM      6  C   UNL     1       3.646   6.627 -10.968  0.00  0.00    +0.026 C 
ATOM      7  C   UNL     1       2.709   5.976 -11.898  0.00  0.00    -0.002 A 
ATOM      8  C   UNL     1       2.917   5.481 -13.180  0.00  0.00    -0.020 A 
ATOM      9  C   UNL     1       1.875   4.938 -13.909  0.00  0.00    -0.004 A 
ATOM     10  C   UNL     1       0.705   4.593 -13.245  0.00  0.00    -0.000 A 
ATOM     11  C   UNL     1       0.545   5.042 -11.943  0.00  0.00    -0.000 A 
ATOM     12  C   UNL     1       4.248   5.198 -13.808  0.00  0.00    +0.051 C 
ATOM     13  C   UNL     1       5.121   6.418 -13.820  0.00  0.00    +0.112 C 
ATOM     14  N   UNL     1       5.674   6.757 -12.537  0.00  0.00    -0.308 N 
ATOM     15  C   UNL     1       7.002   6.641 -12.293  0.00  0.00    +0.123 A 
ATOM     16  C   UNL     1       7.159   7.249 -11.052  0.00  0.00    +0.121 A 
ATOM     17  N   UNL     1       5.927   7.533 -10.561  0.00  0.00    -0.225 NA
ATOM     18  C   UNL     1       1.572   5.628 -11.224  0.00  0.00    -0.000 A 
ATOM     19  C   UNL     1       5.013   6.988 -11.374  0.00  0.00    +0.143 A 
ATOM     20  C   UNL     1       2.368   6.876  -8.905  0.00  0.00    +0.039 C 
ATOM     21  C   UNL     1       1.969   6.082  -7.718  0.00  0.00    +0.077 C 
ENDROOT
BRANCH  15  22
ATOM     22  C   UNL     1       7.970   5.738 -12.925  0.00  0.00    +0.253 C 
ATOM     23  O   UNL     1       7.919   4.486 -12.798  0.00  0.00    -0.281 OA
ENDBRANCH  15  22
TORSDOF 1
ENDMDL
MODEL 4
REMARK VINA RESULT:      -8.3      3.383      7.353
REMARK  Name = 
REMARK  1 active torsions:
REMARK  status: ('A' for Active; 'I' for Inactive)
REMARK    1  A    between atoms: C_10  and  C_11
REMARK                            x       y       z     vdW  Elec       q    Type
REMARK                         _______ _______ _______ _____ _____    ______ ____
ROOT
ATOM      1  C   UNL     1       0.720   6.581  -5.198  0.00  0.00    +0.090 C 
ATOM      2  N   UNL     1       2.092   6.393  -5.606  0.00  0.00    -0.271 NA
ATOM      3  C   UNL     1       2.490   7.217  -6.708  0.00  0.00    +0.077 C 
ATOM      4  C   UNL     1       1.749   6.719  -7.928  0.00  0.00    +0.039 C 
ATOM      5  C   UNL     1       2.215   5.313  -8.145  0.00  0.00    -0.039 C 
ATOM      6  C   UNL     1       2.676   5.061  -9.373  0.00  0.00    +0.026 C 
ATOM      7  C   UNL     1       4.117   5.250  -9.601  0.00  0.00    -0.002 A 
ATOM      8  C   UNL     1       4.793   5.735 -10.714  0.00  0.00    -0.020 A 
ATOM      9  C   UNL     1       6.175   5.791 -10.737  0.00  0.00    -0.004 A 
ATOM     10  C   UNL     1       6.867   5.672  -9.540  0.00  0.00    -0.000 A 
ATOM     11  C   UNL     1       6.160   5.250  -8.425  0.00  0.00    -0.000 A 
ATOM     12  C   UNL     1       4.181   6.495 -11.851  0.00  0.00    +0.051 C 
ATOM     13  C   UNL     1       3.071   5.721 -12.497  0.00  0.00    +0.112 C 
ATOM     14  N   UNL     1       1.858   5.681 -11.726  0.00  0.00    -0.308 N 
ATOM     15  C   UNL     1       0.739   6.322 -12.144  0.00  0.00    +0.123 A 
ATOM     16  C   UNL     1      -0.239   5.877 -11.263  0.00  0.00    +0.121 A 
ATOM     17  N   UNL     1       0.365   5.149 -10.290  0.00  0.00    -0.225 NA
ATOM     18  C   UNL     1       4.780   5.147  -8.410  0.00  0.00    -0.000 A 
ATOM     19  C   UNL     1       1.690   5.254 -10.448  0.00  0.00    +0.143 A 
ATOM     20  C   UNL     1       2.519   4.411  -7.027  0.00  0.00    +0.039 C 
ATOM     21  C   UNL     1       2.503   5.031  -5.679  0.00  0.00    +0.077 C 
ENDROOT
BRANCH  15  22
ATOM     22  C   UNL     1       0.635   7.507 -13.001  0.00  0.00    +0.253 C 
ATOM     23  O   UNL     1       0.428   7.437 -14.242  0.00  0.00    -0.281 OA
ENDBRANCH  15  22
TORSDOF 1
ENDMDL
MODEL 5
REMARK VINA RESULT:      -8.3      2.259      4.894
REMARK  Name = 
REMARK  1 active torsions:
REMARK  status: ('A' for Active; 'I' for Inactive)
REMARK    1  A    between atoms: C_10  and  C_11
REMARK                            x       y       z     vdW  Elec       q    Type
REMARK                         _______ _______ _______ _____ _____    ______ ____
ROOT
ATOM      1  C   UNL     1       4.974   7.225  -2.559  0.00  0.00    +0.090 C 
ATOM      2  N   UNL     1       5.055   6.784  -3.931  0.00  0.00    -0.271 NA
ATOM      3  C   UNL     1       4.095   7.399  -4.798  0.00  0.00    +0.077 C 
ATOM      4  C   UNL     1       2.734   6.874  -4.400  0.00  0.00    +0.039 C 
ATOM      5  C   UNL     1       2.777   5.398  -4.647  0.00  0.00    -0.039 C 
ATOM      6  C   UNL     1       1.789   4.932  -5.416  0.00  0.00    +0.026 C 
ATOM      7  C   UNL     1       2.038   4.873  -6.865  0.00  0.00    -0.002 A 
ATOM      8  C   UNL     1       1.181   5.111  -7.933  0.00  0.00    -0.020 A 
ATOM      9  C   UNL     1       1.612   4.955  -9.238  0.00  0.00    -0.004 A 
ATOM     10  C   UNL     1       2.976   4.880  -9.485  0.00  0.00    -0.000 A 
ATOM     11  C   UNL     1       3.821   4.707  -8.399  0.00  0.00    -0.000 A 
ATOM     12  C   UNL     1      -0.142   5.811  -7.858  0.00  0.00    +0.051 C 
ATOM     13  C   UNL     1      -1.066   5.140  -6.886  0.00  0.00    +0.112 C 
ATOM     14  N   UNL     1      -0.737   5.377  -5.506  0.00  0.00    -0.308 N 
ATOM     15  C   UNL     1      -1.543   6.124  -4.712  0.00  0.00    +0.123 A 
ATOM     16  C   UNL     1      -1.007   5.942  -3.442  0.00  0.00    +0.121 A 
ATOM     17  N   UNL     1       0.156   5.255  -3.567  0.00  0.00    -0.225 NA
ATOM     18  C   UNL     1       3.385   4.816  -7.090  0.00  0.00    -0.000 A 
ATOM     19  C   UNL     1       0.439   5.139  -4.871  0.00  0.00    +0.143 A 
ATOM     20  C   UNL     1       3.990   4.603  -4.415  0.00  0.00    +0.039 C 
ATOM     21  C   UNL     1       5.212   5.377  -4.089  0.00  0.00    +0.077 C 
ENDROOT
BRANCH  15  22
ATOM     22  C   UNL     1      -2.462   7.199  -5.099  0.00  0.00    +0.253 C 
ATOM     23  O   UNL     1      -2.289   8.401  -4.764  0.00  0.00    -0.281 OA
ENDBRANCH  15  22
TORSDOF 1
ENDMDL
MODEL 6
REMARK VINA RESULT:      -7.6      2.852      4.959
REMARK  Name = 
REMARK  1 active torsions:
REMARK  status: ('A' for Active; 'I' for Inactive)
REMARK    1  A    between atoms: C_10  and  C_11
REMARK                            x       y       z     vdW  Elec       q    Type
REMARK                         _______ _______ _______ _____ _____    ______ ____
ROOT
ATOM      1  C   UNL     1       7.915   6.658 -11.938  0.00  0.00    +0.090 C 
ATOM      2  N   UNL     1       6.588   6.820 -12.482  0.00  0.00    -0.271 NA
ATOM      3  C   UNL     1       5.724   7.632 -11.679  0.00  0.00    +0.077 C 
ATOM      4  C   UNL     1       5.431   6.856 -10.414  0.00  0.00    +0.039 C 
ATOM      5  C   UNL     1       4.711   5.618 -10.851  0.00  0.00    -0.039 C 
ATOM      6  C   UNL     1       3.545   5.405 -10.237  0.00  0.00    +0.026 C 
ATOM      7  C   UNL     1       2.341   5.961 -10.873  0.00  0.00    -0.002 A 
ATOM      8  C   UNL     1       1.203   6.523 -10.304  0.00  0.00    -0.020 A 
ATOM      9  C   UNL     1       0.152   6.952 -11.094  0.00  0.00    -0.004 A 
ATOM     10  C   UNL     1       0.366   7.121 -12.455  0.00  0.00    -0.000 A 
ATOM     11  C   UNL     1       1.538   6.611 -12.993  0.00  0.00    -0.000 A 
ATOM     12  C   UNL     1       1.071   6.995  -8.889  0.00  0.00    +0.051 C 
ATOM     13  C   UNL     1       1.376   5.899  -7.911  0.00  0.00    +0.112 C 
ATOM     14  N   UNL     1       2.776   5.590  -7.795  0.00  0.00    -0.308 N 
ATOM     15  C   UNL     1       3.463   5.867  -6.659  0.00  0.00    +0.123 A 
ATOM     16  C   UNL     1       4.688   5.243  -6.860  0.00  0.00    +0.121 A 
ATOM     17  N   UNL     1       4.727   4.787  -8.137  0.00  0.00    -0.225 NA
ATOM     18  C   UNL     1       2.575   6.137 -12.209  0.00  0.00    -0.000 A 
ATOM     19  C   UNL     1       3.642   5.236  -8.779  0.00  0.00    +0.143 A 
ATOM     20  C   UNL     1       5.042   4.924 -12.102  0.00  0.00    +0.039 C 
ATOM     21  C   UNL     1       6.008   5.620 -12.987  0.00  0.00    +0.077 C 
ENDROOT
BRANCH  15  22
ATOM     22  C   UNL     1       3.193   6.908  -5.662  0.00  0.00    +0.253 C 
ATOM     23  O   UNL     1       4.101   7.615  -5.149  0.00  0.00    -0.281 OA
ENDBRANCH  15  22
TORSDOF 1
ENDMDL
MODEL 7
REMARK VINA RESULT:      -7.6      2.361      5.975
REMARK  Name = 
REMARK  1 active torsions:
REMARK  status: ('A' for Active; 'I' for Inactive)
REMARK    1  A    between atoms: C_10  and  C_11
REMARK                            x       y       z     vdW  Elec       q    Type
REMARK                         _______ _______ _______ _____ _____    ______ ____
ROOT
ATOM      1  C   UNL     1      -3.567   6.341  -2.889  0.00  0.00    +0.090 C 
ATOM      2  N   UNL     1      -2.434   6.703  -2.072  0.00  0.00    -0.271 NA
ATOM      3  C   UNL     1      -1.512   7.590  -2.715  0.00  0.00    +0.077 C 
ATOM      4  C   UNL     1      -0.839   6.809  -3.822  0.00  0.00    +0.039 C 
ATOM      5  C   UNL     1      -0.096   5.699  -3.146  0.00  0.00    -0.039 C 
ATOM      6  C   UNL     1       1.198   5.620  -3.463  0.00  0.00    +0.026 C 
ATOM      7  C   UNL     1       2.144   6.360  -2.613  0.00  0.00    -0.002 A 
ATOM      8  C   UNL     1       3.305   7.046  -2.949  0.00  0.00    -0.020 A 
ATOM      9  C   UNL     1       4.082   7.646  -1.974  0.00  0.00    -0.004 A 
ATOM     10  C   UNL     1       3.537   7.842  -0.713  0.00  0.00    -0.000 A 
ATOM     11  C   UNL     1       2.343   7.201  -0.419  0.00  0.00    -0.000 A 
ATOM     12  C   UNL     1       3.706   7.473  -4.327  0.00  0.00    +0.051 C 
ATOM     13  C   UNL     1       3.773   6.305  -5.267  0.00  0.00    +0.112 C 
ATOM     14  N   UNL     1       2.488   5.806  -5.675  0.00  0.00    -0.308 N 
ATOM     15  C   UNL     1       2.057   5.939  -6.953  0.00  0.00    +0.123 A 
ATOM     16  C   UNL     1       0.904   5.164  -6.990  0.00  0.00    +0.121 A 
ATOM     17  N   UNL     1       0.623   4.760  -5.726  0.00  0.00    -0.225 NA
ATOM     18  C   UNL     1       1.584   6.559  -1.381  0.00  0.00    -0.000 A 
ATOM     19  C   UNL     1       1.466   5.379  -4.889  0.00  0.00    +0.143 A 
ATOM     20  C   UNL     1      -0.623   5.020  -1.955  0.00  0.00    +0.039 C 
ATOM     21  C   UNL     1      -1.846   5.615  -1.364  0.00  0.00    +0.077 C 
ENDROOT
BRANCH  15  22
ATOM     22  C   UNL     1       2.423   6.964  -7.936  0.00  0.00    +0.253 C 
ATOM     23  O   UNL     1       2.159   8.186  -7.780  0.00  0.00    -0.281 OA
ENDBRANCH  15  22
TORSDOF 1
ENDMDL
MODEL 8
REMARK VINA RESULT:      -7.5      2.350      4.748
REMARK  Name = 
REMARK  1 active torsions:
REMARK  status: ('A' for Active; 'I' for Inactive)
REMARK    1  A    between atoms: C_10  and  C_11
REMARK                            x       y       z     vdW  Elec       q    Type
REMARK                         _______ _______ _______ _____ _____    ______ ____
ROOT
ATOM      1  C   UNL     1      -3.455   6.539  -2.751  0.00  0.00    +0.090 C 
ATOM      2  N   UNL     1      -2.873   6.262  -4.043  0.00  0.00    -0.271 NA
ATOM      3  C   UNL     1      -1.952   5.165  -4.043  0.00  0.00    +0.077 C 
ATOM      4  C   UNL     1      -0.735   5.605  -3.260  0.00  0.00    +0.039 C 
ATOM      5  C   UNL     1      -0.157   6.760  -4.016  0.00  0.00    -0.039 C 
ATOM      6  C   UNL     1       1.137   6.636  -4.320  0.00  0.00    +0.026 C 
ATOM      7  C   UNL     1       1.466   6.019  -5.615  0.00  0.00    -0.002 A 
ATOM      8  C   UNL     1       2.505   5.163  -5.962  0.00  0.00    -0.020 A 
ATOM      9  C   UNL     1       2.659   4.727  -7.266  0.00  0.00    -0.004 A 
ATOM     10  C   UNL     1       1.600   4.877  -8.150  0.00  0.00    -0.000 A 
ATOM     11  C   UNL     1       0.542   5.683  -7.758  0.00  0.00    -0.000 A 
ATOM     12  C   UNL     1       3.369   4.397  -5.008  0.00  0.00    +0.051 C 
ATOM     13  C   UNL     1       4.054   5.308  -4.032  0.00  0.00    +0.112 C 
ATOM     14  N   UNL     1       3.189   5.827  -3.007  0.00  0.00    -0.308 N 
ATOM     15  C   UNL     1       3.331   5.449  -1.713  0.00  0.00    +0.123 A 
ATOM     16  C   UNL     1       2.476   6.306  -1.029  0.00  0.00    +0.121 A 
ATOM     17  N   UNL     1       1.764   7.012  -1.942  0.00  0.00    -0.225 NA
ATOM     18  C   UNL     1       0.406   6.162  -6.467  0.00  0.00    -0.000 A 
ATOM     19  C   UNL     1       2.031   6.519  -3.158  0.00  0.00    +0.143 A 
ATOM     20  C   UNL     1      -1.003   7.741  -4.709  0.00  0.00    +0.039 C 
ATOM     21  C   UNL     1      -2.450   7.419  -4.759  0.00  0.00    +0.077 C 
ENDROOT
BRANCH  15  22
ATOM     22  C   UNL     1       3.881   4.197  -1.184  0.00  0.00    +0.253 C 
ATOM     23  O   UNL     1       3.207   3.400  -0.478  0.00  0.00    -0.281 OA
ENDBRANCH  15  22
TORSDOF 1
ENDMDL
MODEL 9
REMARK VINA RESULT:      -7.1      2.514      5.231
REMARK  Name = 
REMARK  1 active torsions:
REMARK  status: ('A' for Active; 'I' for Inactive)
REMARK    1  A    between atoms: C_10  and  C_11
REMARK                            x       y       z     vdW  Elec       q    Type
REMARK                         _______ _______ _______ _____ _____    ______ ____
ROOT
ATOM      1  C   UNL     1       5.218   5.316  -3.769  0.00  0.00    +0.090 C 
ATOM      2  N   UNL     1       3.786   5.241  -3.606  0.00  0.00    -0.271 NA
ATOM      3  C   UNL     1       3.124   4.470  -4.616  0.00  0.00    +0.077 C 
ATOM      4  C   UNL     1       3.233   5.245  -5.910  0.00  0.00    +0.039 C 
ATOM      5  C   UNL     1       2.498   6.529  -5.681  0.00  0.00    -0.039 C 
ATOM      6  C   UNL     1       1.557   6.802  -6.588  0.00  0.00    +0.026 C 
ATOM      7  C   UNL     1       0.194   6.327  -6.304  0.00  0.00    -0.002 A 
ATOM      8  C   UNL     1      -0.779   5.826  -7.161  0.00  0.00    -0.020 A 
ATOM      9  C   UNL     1      -2.029   5.471  -6.687  0.00  0.00    -0.004 A 
ATOM     10  C   UNL     1      -2.202   5.308  -5.320  0.00  0.00    -0.000 A 
ATOM     11  C   UNL     1      -1.191   5.755  -4.483  0.00  0.00    -0.000 A 
ATOM     12  C   UNL     1      -0.552   5.344  -8.561  0.00  0.00    +0.051 C 
ATOM     13  C   UNL     1       0.073   6.406  -9.416  0.00  0.00    +0.112 C 
ATOM     14  N   UNL     1       1.468   6.630  -9.147  0.00  0.00    -0.308 N 
ATOM     15  C   UNL     1       2.419   6.297 -10.055  0.00  0.00    +0.123 A 
ATOM     16  C   UNL     1       3.580   6.850  -9.527  0.00  0.00    +0.121 A 
ATOM     17  N   UNL     1       3.299   7.321  -8.286  0.00  0.00    -0.225 NA
ATOM     18  C   UNL     1       0.046   6.156  -4.955  0.00  0.00    -0.000 A 
ATOM     19  C   UNL     1       2.055   6.945  -7.965  0.00  0.00    +0.143 A 
ATOM     20  C   UNL     1       2.519   7.219  -4.385  0.00  0.00    +0.039 C 
ATOM     21  C   UNL     1       3.165   6.479  -3.274  0.00  0.00    +0.077 C 
ENDROOT
BRANCH  15  22
ATOM     22  C   UNL     1       2.367   5.261 -11.091  0.00  0.00    +0.253 C 
ATOM     23  O   UNL     1       2.045   5.504 -12.285  0.00  0.00    -0.281 OA
ENDBRANCH  15  22
TORSDOF 1
ENDMDL
