MODEL 1
REMARK VINA RESULT:     -10.0      0.000      0.000
REMARK  Name = 
REMARK  7 active torsions:
REMARK  status: ('A' for Active; 'I' for Inactive)
REMARK    1  A    between atoms: S_2  and  C_5
REMARK    2  A    between atoms: C_9  and  C_10
REMARK    3  A    between atoms: C_10  and  CA_11
REMARK    4  A    between atoms: CA_11  and  N_12
REMARK    5  A    between atoms: CA_11  and  C_38
REMARK    6  A    between atoms: C_13  and  C_15
REMARK    7  A    between atoms: C_26  and  C_28
REMARK                            x       y       z     vdW  Elec       q    Type
REMARK                         _______ _______ _______ _____ _____    ______ ____
ROOT
ATOM      1  C   UNL     1       1.447   5.273  -5.624  0.00  0.00    +0.076 A 
ATOM      2  C   UNL     1       2.705   5.540  -6.131  0.00  0.00    +0.059 A 
ATOM      3 CL   UNL     1       4.055   5.998  -5.113  0.00  0.00    -0.082 Cl
ATOM      4  C   UNL     1       2.911   5.550  -7.488  0.00  0.00    -0.012 A 
ATOM      5  C   UNL     1       3.936   6.415  -8.152  0.00  0.00    +0.048 C 
ATOM      6  C   UNL     1       3.170   7.260  -9.155  0.00  0.00    +0.099 C 
ATOM      7  N   UNL     1       2.518   6.436 -10.163  0.00  0.00    -0.272 N 
ATOM      8  C   UNL     1       2.115   5.095  -9.748  0.00  0.00    +0.120 C 
ATOM      9  C   UNL     1       3.067   6.519 -11.484  0.00  0.00    +0.249 C 
ATOM     10  O   UNL     1       2.219   6.545 -12.426  0.00  0.00    -0.270 OA
ATOM     11  C   UNL     1       1.916   5.011  -8.278  0.00  0.00    -0.005 A 
ATOM     12  C   UNL     1       0.677   4.722  -7.766  0.00  0.00    +0.009 A 
ATOM     13  C   UNL     1       0.365   5.049  -6.465  0.00  0.00    +0.063 A 
ATOM     14 CL   UNL     1      -1.293   5.281  -5.919  0.00  0.00    -0.082 Cl
ENDROOT
BRANCH   9  15
ATOM     15  C   UNL     1       4.263   5.703 -11.730  0.00  0.00    +0.057 A 
ATOM     16  C   UNL     1       5.355   5.744 -10.877  0.00  0.00    +0.042 A 
ATOM     17  C   UNL     1       6.640   5.441 -11.312  0.00  0.00    +0.146 A 
ATOM     18  C   UNL     1       6.851   5.301 -12.679  0.00  0.00    +0.038 A 
ATOM     19  C   UNL     1       8.110   5.812 -12.968  0.00  0.00    +0.044 A 
ATOM     20  C   UNL     1       8.687   6.007 -11.720  0.00  0.00    +0.180 A 
ATOM     21  C   UNL     1       5.748   4.976 -13.453  0.00  0.00    +0.003 A 
ATOM     22  O   UNL     1       7.810   5.739 -10.794  0.00  0.00    -0.450 OA
ATOM     23  C   UNL     1       4.465   5.089 -12.959  0.00  0.00    +0.005 A 
ENDBRANCH   9  15
BRANCH   1  25
ATOM     24  N   UNL     1       1.417   5.047  -3.096  0.00  0.00    -0.191 NA
ATOM     25  C   UNL     1       1.126   5.736  -4.286  0.00  0.00    +0.267 C 
ATOM     26  O   UNL     1       0.756   6.944  -4.174  0.00  0.00    -0.268 OA
BRANCH  24  27
ATOM     27  CA  UNL     1       2.172   5.880  -1.980  0.00  0.00    +0.202 C 
BRANCH  27  28
ATOM     28  C   UNL     1       3.291   4.735  -1.747  0.00  0.00    +0.385 C 
ATOM     29  OXT UNL     1       4.570   4.974  -2.110  0.00  0.00    -0.244 OA
ATOM     30  O   UNL     1       2.895   4.005  -0.800  0.00  0.00    -0.244 OA
ENDBRANCH  27  28
BRANCH  27  31
ATOM     31  C   UNL     1       1.157   5.352  -0.799  0.00  0.00    +0.060 C 
BRANCH  31  34
ATOM     32  C   UNL     1      -0.704   8.153   0.678  0.00  0.00    +0.105 A 
ATOM     33  C   UNL     1       0.152   7.104   0.484  0.00  0.00    +0.014 A 
ATOM     34  C   UNL     1       0.058   6.255  -0.618  0.00  0.00    -0.019 A 
ATOM     35  C   UNL     1      -1.234   6.114  -1.110  0.00  0.00    -0.004 A 
ATOM     36  C   UNL     1      -2.234   7.007  -0.739  0.00  0.00    +0.001 A 
ATOM     37  C   UNL     1      -1.957   8.058   0.128  0.00  0.00    +0.018 A 
BRANCH  32  39
ATOM     38  C   UNL     1       0.070   9.209   2.376  0.00  0.00    +0.182 C 
ATOM     39  S   UNL     1      -0.199   9.490   1.705  0.00  0.00    +0.010 S 
ATOM     40  O   UNL     1      -1.392  10.421   1.765  0.00  0.00    -0.169 OA
ATOM     41  O   UNL     1       0.835  10.262   0.912  0.00  0.00    -0.169 OA
ENDBRANCH  32  39
ENDBRANCH  31  34
ENDBRANCH  27  31
ENDBRANCH  24  27
ENDBRANCH   1  25
TORSDOF 7
ENDMDL
MODEL 2
REMARK VINA RESULT:      -9.8      1.843      2.280
REMARK  Name = 
REMARK  7 active torsions:
REMARK  status: ('A' for Active; 'I' for Inactive)
REMARK    1  A    between atoms: S_2  and  C_5
REMARK    2  A    between atoms: C_9  and  C_10
REMARK    3  A    between atoms: C_10  and  CA_11
REMARK    4  A    between atoms: CA_11  and  N_12
REMARK    5  A    between atoms: CA_11  and  C_38
REMARK    6  A    between atoms: C_13  and  C_15
REMARK    7  A    between atoms: C_26  and  C_28
REMARK                            x       y       z     vdW  Elec       q    Type
REMARK                         _______ _______ _______ _____ _____    ______ ____
ROOT
ATOM      1  C   UNL     1       1.969   5.318  -5.798  0.00  0.00    +0.076 A 
ATOM      2  C   UNL     1       3.181   5.657  -6.371  0.00  0.00    +0.059 A 
ATOM      3 CL   UNL     1       4.519   6.296  -5.439  0.00  0.00    -0.082 Cl
ATOM      4  C   UNL     1       3.339   5.593  -7.733  0.00  0.00    -0.012 A 
ATOM      5  C   UNL     1       4.260   6.495  -8.491  0.00  0.00    +0.048 C 
ATOM      6  C   UNL     1       3.389   7.201  -9.516  0.00  0.00    +0.099 C 
ATOM      7  N   UNL     1       2.779   6.258 -10.442  0.00  0.00    -0.272 N 
ATOM      8  C   UNL     1       2.509   4.918  -9.925  0.00  0.00    +0.120 C 
ATOM      9  C   UNL     1       3.273   6.298 -11.786  0.00  0.00    +0.249 C 
ATOM     10  O   UNL     1       2.395   6.188 -12.694  0.00  0.00    -0.270 OA
ATOM     11  C   UNL     1       2.369   4.917  -8.447  0.00  0.00    -0.005 A 
ATOM     12  C   UNL     1       1.178   4.559  -7.868  0.00  0.00    +0.009 A 
ATOM     13  C   UNL     1       0.883   4.945  -6.580  0.00  0.00    +0.063 A 
ATOM     14 CL   UNL     1      -0.769   5.070  -5.984  0.00  0.00    -0.082 Cl
ENDROOT
BRANCH   9  15
ATOM     15  C   UNL     1       4.527   5.573 -12.026  0.00  0.00    +0.057 A 
ATOM     16  C   UNL     1       5.541   5.548 -11.081  0.00  0.00    +0.042 A 
ATOM     17  C   UNL     1       6.872   5.359 -11.434  0.00  0.00    +0.146 A 
ATOM     18  C   UNL     1       7.203   5.409 -12.783  0.00  0.00    +0.038 A 
ATOM     19  C   UNL     1       8.453   6.006 -12.891  0.00  0.00    +0.044 A 
ATOM     20  C   UNL     1       8.913   6.060 -11.581  0.00  0.00    +0.180 A 
ATOM     21  C   UNL     1       6.188   5.143 -13.688  0.00  0.00    +0.003 A 
ATOM     22  O   UNL     1       7.977   5.635 -10.779  0.00  0.00    -0.450 OA
ATOM     23  C   UNL     1       4.863   5.135 -13.301  0.00  0.00    +0.005 A 
ENDBRANCH   9  15
BRANCH   1  25
ATOM     24  N   UNL     1       1.924   5.194  -3.264  0.00  0.00    -0.191 NA
ATOM     25  C   UNL     1       1.653   5.841  -4.482  0.00  0.00    +0.267 C 
ATOM     26  O   UNL     1       1.311   7.061  -4.420  0.00  0.00    -0.268 OA
BRANCH  24  27
ATOM     27  CA  UNL     1       2.694   6.052  -2.178  0.00  0.00    +0.202 C 
BRANCH  27  28
ATOM     28  C   UNL     1       3.912   4.994  -2.066  0.00  0.00    +0.385 C 
ATOM     29  OXT UNL     1       4.324   4.582  -0.847  0.00  0.00    -0.244 OA
ATOM     30  O   UNL     1       3.942   4.335  -3.138  0.00  0.00    -0.244 OA
ENDBRANCH  27  28
BRANCH  27  31
ATOM     31  C   UNL     1       1.815   5.411  -0.945  0.00  0.00    +0.060 C 
BRANCH  31  34
ATOM     32  C   UNL     1      -1.550   6.812  -1.404  0.00  0.00    +0.105 A 
ATOM     33  C   UNL     1      -0.319   6.254  -1.622  0.00  0.00    +0.014 A 
ATOM     34  C   UNL     1       0.673   6.226  -0.644  0.00  0.00    -0.019 A 
ATOM     35  C   UNL     1       0.612   7.287   0.251  0.00  0.00    -0.004 A 
ATOM     36  C   UNL     1      -0.533   8.073   0.338  0.00  0.00    +0.001 A 
ATOM     37  C   UNL     1      -1.637   7.807  -0.465  0.00  0.00    +0.018 A 
BRANCH  32  39
ATOM     38  C   UNL     1      -3.561   6.612  -2.122  0.00  0.00    +0.182 C 
ATOM     39  S   UNL     1      -2.906   6.311  -2.408  0.00  0.00    +0.010 S 
ATOM     40  O   UNL     1      -2.807   4.803  -2.491  0.00  0.00    -0.169 OA
ATOM     41  O   UNL     1      -2.585   6.782  -3.813  0.00  0.00    -0.169 OA
ENDBRANCH  32  39
ENDBRANCH  31  34
ENDBRANCH  27  31
ENDBRANCH  24  27
ENDBRANCH   1  25
TORSDOF 7
ENDMDL
MODEL 3
REMARK VINA RESULT:      -9.7      4.361     12.233
REMARK  Name = 
REMARK  7 active torsions:
REMARK  status: ('A' for Active; 'I' for Inactive)
REMARK    1  A    between atoms: S_2  and  C_5
REMARK    2  A    between atoms: C_9  and  C_10
REMARK    3  A    between atoms: C_10  and  CA_11
REMARK    4  A    between atoms: CA_11  and  N_12
REMARK    5  A    between atoms: CA_11  and  C_38
REMARK    6  A    between atoms: C_13  and  C_15
REMARK    7  A    between atoms: C_26  and  C_28
REMARK                            x       y       z     vdW  Elec       q    Type
REMARK                         _______ _______ _______ _____ _____    ______ ____
ROOT
ATOM      1  C   UNL     1       4.656   5.674  -9.713  0.00  0.00    +0.076 A 
ATOM      2  C   UNL     1       3.349   5.911  -9.329  0.00  0.00    +0.059 A 
ATOM      3 CL   UNL     1       2.087   6.314 -10.474  0.00  0.00    -0.082 Cl
ATOM      4  C   UNL     1       3.018   5.934  -7.997  0.00  0.00    -0.012 A 
ATOM      5  C   UNL     1       1.913   6.777  -7.445  0.00  0.00    +0.048 C 
ATOM      6  C   UNL     1       2.558   7.658  -6.389  0.00  0.00    +0.099 C 
ATOM      7  N   UNL     1       3.137   6.868  -5.312  0.00  0.00    -0.272 N 
ATOM      8  C   UNL     1       3.615   5.533  -5.666  0.00  0.00    +0.120 C 
ATOM      9  C   UNL     1       2.466   6.953  -4.049  0.00  0.00    +0.249 C 
ATOM     10  O   UNL     1       3.222   7.017  -3.033  0.00  0.00    -0.270 OA
ATOM     11  C   UNL     1       3.951   5.435  -7.109  0.00  0.00    -0.005 A 
ATOM     12  C   UNL     1       5.240   5.176  -7.500  0.00  0.00    +0.009 A 
ATOM     13  C   UNL     1       5.662   5.494  -8.772  0.00  0.00    +0.063 A 
ATOM     14 CL   UNL     1       7.355   5.767  -9.167  0.00  0.00    -0.082 Cl
ENDROOT
BRANCH   9  15
ATOM     15  C   UNL     1       1.276   6.105  -3.901  0.00  0.00    +0.057 A 
ATOM     16  C   UNL     1       0.101   6.382  -4.583  0.00  0.00    +0.042 A 
ATOM     17  C   UNL     1      -1.139   5.976  -4.106  0.00  0.00    +0.146 A 
ATOM     18  C   UNL     1      -1.209   5.470  -2.813  0.00  0.00    +0.038 A 
ATOM     19  C   UNL     1      -2.412   5.888  -2.258  0.00  0.00    +0.044 A 
ATOM     20  C   UNL     1      -3.111   6.418  -3.335  0.00  0.00    +0.180 A 
ATOM     21  C   UNL     1      -0.042   4.943  -2.283  0.00  0.00    +0.003 A 
ATOM     22  O   UNL     1      -2.347   6.408  -4.391  0.00  0.00    -0.450 OA
ATOM     23  C   UNL     1       1.185   5.181  -2.868  0.00  0.00    +0.005 A 
ENDBRANCH   9  15
BRANCH   1  25
ATOM     24  N   UNL     1       4.951   5.402 -12.219  0.00  0.00    -0.191 NA
ATOM     25  C   UNL     1       5.087   6.128 -11.023  0.00  0.00    +0.267 C 
ATOM     26  O   UNL     1       5.405   7.351 -11.127  0.00  0.00    -0.268 OA
BRANCH  24  27
ATOM     27  CA  UNL     1       4.272   6.173 -13.425  0.00  0.00    +0.202 C 
BRANCH  27  28
ATOM     28  C   UNL     1       3.356   4.907 -13.843  0.00  0.00    +0.385 C 
ATOM     29  OXT UNL     1       2.260   5.105 -14.609  0.00  0.00    -0.244 OA
ATOM     30  O   UNL     1       4.088   3.883 -13.819  0.00  0.00    -0.244 OA
ENDBRANCH  27  28
BRANCH  27  31
ATOM     31  C   UNL     1       5.510   5.814 -14.445  0.00  0.00    +0.060 C 
BRANCH  31  34
ATOM     32  C   UNL     1       4.699   8.334 -16.992  0.00  0.00    +0.105 A 
ATOM     33  C   UNL     1       4.699   7.211 -16.211  0.00  0.00    +0.014 A 
ATOM     34  C   UNL     1       5.756   6.892 -15.360  0.00  0.00    -0.019 A 
ATOM     35  C   UNL     1       6.991   7.354 -15.798  0.00  0.00    -0.004 A 
ATOM     36  C   UNL     1       7.070   8.323 -16.795  0.00  0.00    +0.001 A 
ATOM     37  C   UNL     1       5.915   8.846 -17.366  0.00  0.00    +0.018 A 
BRANCH  32  39
ATOM     38  C   UNL     1       3.248   9.232 -18.291  0.00  0.00    +0.182 C 
ATOM     39  S   UNL     1       3.164   8.978 -17.563  0.00  0.00    +0.010 S 
ATOM     40  O   UNL     1       2.739   9.986 -16.516  0.00  0.00    -0.169 OA
ATOM     41  O   UNL     1       2.158   7.853 -17.426  0.00  0.00    -0.169 OA
ENDBRANCH  32  39
ENDBRANCH  31  34
ENDBRANCH  27  31
ENDBRANCH  24  27
ENDBRANCH   1  25
TORSDOF 7
ENDMDL
MODEL 4
REMARK VINA RESULT:      -9.6      2.788      4.856
REMARK  Name = 
REMARK  7 active torsions:
REMARK  status: ('A' for Active; 'I' for Inactive)
REMARK    1  A    between atoms: S_2  and  C_5
REMARK    2  A    between atoms: C_9  and  C_10
REMARK    3  A    between atoms: C_10  and  CA_11
REMARK    4  A    between atoms: CA_11  and  N_12
REMARK    5  A    between atoms: CA_11  and  C_38
REMARK    6  A    between atoms: C_13  and  C_15
REMARK    7  A    between atoms: C_26  and  C_28
REMARK                            x       y       z     vdW  Elec       q    Type
REMARK                         _______ _______ _______ _____ _____    ______ ____
ROOT
ATOM      1  C   UNL     1       0.933   6.498  -5.921  0.00  0.00    +0.076 A 
ATOM      2  C   UNL     1       0.203   5.949  -6.960  0.00  0.00    +0.059 A 
ATOM      3 CL   UNL     1      -1.262   5.026  -6.698  0.00  0.00    -0.082 Cl
ATOM      4  C   UNL     1       0.672   6.031  -8.247  0.00  0.00    -0.012 A 
ATOM      5  C   UNL     1       0.387   4.994  -9.287  0.00  0.00    +0.048 C 
ATOM      6  C   UNL     1       1.745   4.510  -9.765  0.00  0.00    +0.099 C 
ATOM      7  N   UNL     1       2.517   5.588 -10.367  0.00  0.00    -0.272 N 
ATOM      8  C   UNL     1       2.261   6.935  -9.862  0.00  0.00    +0.120 C 
ATOM      9  C   UNL     1       2.705   5.501 -11.785  0.00  0.00    +0.249 C 
ATOM     10  O   UNL     1       3.860   5.814 -12.202  0.00  0.00    -0.270 OA
ATOM     11  C   UNL     1       1.712   6.909  -8.482  0.00  0.00    -0.005 A 
ATOM     12  C   UNL     1       2.416   7.472  -7.450  0.00  0.00    +0.009 A 
ATOM     13  C   UNL     1       2.162   7.105  -6.147  0.00  0.00    +0.063 A 
ATOM     14 CL   UNL     1       3.353   7.284  -4.863  0.00  0.00    -0.082 Cl
ENDROOT
BRANCH   9  15
ATOM     15  C   UNL     1       1.584   5.975 -12.607  0.00  0.00    +0.057 A 
ATOM     16  C   UNL     1       1.471   5.628 -13.945  0.00  0.00    +0.042 A 
ATOM     17  C   UNL     1       0.790   6.426 -14.856  0.00  0.00    +0.146 A 
ATOM     18  C   UNL     1       0.402   7.697 -14.450  0.00  0.00    +0.038 A 
ATOM     19  C   UNL     1       0.528   8.549 -15.541  0.00  0.00    +0.044 A 
ATOM     20  C   UNL     1       0.751   7.691 -16.610  0.00  0.00    +0.180 A 
ATOM     21  C   UNL     1       0.259   7.903 -13.086  0.00  0.00    +0.003 A 
ATOM     22  O   UNL     1       0.854   6.469 -16.168  0.00  0.00    -0.450 OA
ATOM     23  C   UNL     1       0.765   7.007 -12.167  0.00  0.00    +0.005 A 
ENDBRANCH   9  15
BRANCH   1  25
ATOM     24  N   UNL     1      -0.222   6.518  -3.661  0.00  0.00    -0.191 NA
ATOM     25  C   UNL     1       0.710   5.998  -4.577  0.00  0.00    +0.267 C 
ATOM     26  O   UNL     1       1.234   4.880  -4.289  0.00  0.00    -0.268 OA
BRANCH  24  27
ATOM     27  CA  UNL     1      -1.203   5.467  -2.998  0.00  0.00    +0.202 C 
BRANCH  27  28
ATOM     28  C   UNL     1      -2.426   5.838  -3.991  0.00  0.00    +0.385 C 
ATOM     29  OXT UNL     1      -3.488   5.007  -4.075  0.00  0.00    -0.244 OA
ATOM     30  O   UNL     1      -2.429   7.089  -4.138  0.00  0.00    -0.244 OA
ENDBRANCH  27  28
BRANCH  27  31
ATOM     31  C   UNL     1      -1.640   6.517  -1.811  0.00  0.00    +0.060 C 
BRANCH  31  34
ATOM     32  C   UNL     1       1.792   6.388  -0.507  0.00  0.00    +0.105 A 
ATOM     33  C   UNL     1       0.565   6.048  -1.010  0.00  0.00    +0.014 A 
ATOM     34  C   UNL     1      -0.501   6.945  -1.052  0.00  0.00    -0.019 A 
ATOM     35  C   UNL     1      -0.477   7.895  -0.038  0.00  0.00    -0.004 A 
ATOM     36  C   UNL     1       0.681   8.110   0.703  0.00  0.00    +0.001 A 
ATOM     37  C   UNL     1       1.835   7.380   0.438  0.00  0.00    +0.018 A 
BRANCH  32  39
ATOM     38  C   UNL     1       3.395   5.662  -1.731  0.00  0.00    +0.182 C 
ATOM     39  S   UNL     1       3.205   5.466  -1.005  0.00  0.00    +0.010 S 
ATOM     40  O   UNL     1       2.852   4.018  -0.740  0.00  0.00    -0.169 OA
ATOM     41  O   UNL     1       4.288   5.776   0.009  0.00  0.00    -0.169 OA
ENDBRANCH  32  39
ENDBRANCH  31  34
ENDBRANCH  27  31
ENDBRANCH  24  27
ENDBRANCH   1  25
TORSDOF 7
ENDMDL
MODEL 5
REMARK VINA RESULT:      -9.6      4.033     11.110
REMARK  Name = 
REMARK  7 active torsions:
REMARK  status: ('A' for Active; 'I' for Inactive)
REMARK    1  A    between atoms: S_2  and  C_5
REMARK    2  A    between atoms: C_9  and  C_10
REMARK    3  A    between atoms: C_10  and  CA_11
REMARK    4  A    between atoms: CA_11  and  N_12
REMARK    5  A    between atoms: CA_11  and  C_38
REMARK    6  A    between atoms: C_13  and  C_15
REMARK    7  A    between atoms: C_26  and  C_28
REMARK                            x       y       z     vdW  Elec       q    Type
REMARK                         _______ _______ _______ _____ _____    ______ ____
ROOT
ATOM      1  C   UNL     1       3.071   6.437  -9.007  0.00  0.00    +0.076 A 
ATOM      2  C   UNL     1       3.958   6.056  -8.018  0.00  0.00    +0.059 A 
ATOM      3 CL   UNL     1       5.483   5.269  -8.371  0.00  0.00    -0.082 Cl
ATOM      4  C   UNL     1       3.617   6.197  -6.697  0.00  0.00    -0.012 A 
ATOM      5  C   UNL     1       4.119   5.287  -5.622  0.00  0.00    +0.048 C 
ATOM      6  C   UNL     1       2.879   4.708  -4.962  0.00  0.00    +0.099 C 
ATOM      7  N   UNL     1       2.058   5.748  -4.360  0.00  0.00    -0.272 N 
ATOM      8  C   UNL     1       2.110   7.066  -4.987  0.00  0.00    +0.120 C 
ATOM      9  C   UNL     1       2.026   5.762  -2.927  0.00  0.00    +0.249 C 
ATOM     10  O   UNL     1       0.891   5.989  -2.409  0.00  0.00    -0.270 OA
ATOM     11  C   UNL     1       2.516   6.980  -6.413  0.00  0.00    -0.005 A 
ATOM     12  C   UNL     1       1.651   7.379  -7.400  0.00  0.00    +0.009 A 
ATOM     13  C   UNL     1       1.811   6.931  -8.692  0.00  0.00    +0.063 A 
ATOM     14 CL   UNL     1       0.483   6.878  -9.847  0.00  0.00    -0.082 Cl
ENDROOT
BRANCH   9  15
ATOM     15  C   UNL     1       3.165   6.416  -2.270  0.00  0.00    +0.057 A 
ATOM     16  C   UNL     1       3.762   5.870  -1.144  0.00  0.00    +0.042 A 
ATOM     17  C   UNL     1       4.437   6.654  -0.216  0.00  0.00    +0.146 A 
ATOM     18  C   UNL     1       4.320   8.035  -0.320  0.00  0.00    +0.038 A 
ATOM     19  C   UNL     1       4.296   8.557   0.968  0.00  0.00    +0.044 A 
ATOM     20  C   UNL     1       4.647   7.480   1.772  0.00  0.00    +0.180 A 
ATOM     21  C   UNL     1       3.988   8.544  -1.565  0.00  0.00    +0.003 A 
ATOM     22  O   UNL     1       4.758   6.410   1.035  0.00  0.00    -0.450 OA
ATOM     23  C   UNL     1       3.498   7.731  -2.567  0.00  0.00    +0.005 A 
ENDBRANCH   9  15
BRANCH   1  25
ATOM     24  N   UNL     1       3.921   6.421 -11.398  0.00  0.00    -0.191 NA
ATOM     25  C   UNL     1       3.210   5.851 -10.328  0.00  0.00    +0.267 C 
ATOM     26  O   UNL     1       2.852   4.641 -10.456  0.00  0.00    -0.268 OA
BRANCH  24  27
ATOM     27  CA  UNL     1       4.979   5.480 -12.108  0.00  0.00    +0.202 C 
BRANCH  27  28
ATOM     28  C   UNL     1       6.197   6.520 -11.885  0.00  0.00    +0.385 C 
ATOM     29  OXT UNL     1       5.935   7.756 -11.406  0.00  0.00    -0.244 OA
ATOM     30  O   UNL     1       7.245   5.845 -11.706  0.00  0.00    -0.244 OA
ENDBRANCH  27  28
BRANCH  27  31
ATOM     31  C   UNL     1       4.573   6.030 -13.603  0.00  0.00    +0.060 C 
BRANCH  31  34
ATOM     32  C   UNL     1       1.171   6.282 -14.967  0.00  0.00    +0.105 A 
ATOM     33  C   UNL     1       2.375   6.567 -14.381  0.00  0.00    +0.014 A 
ATOM     34  C   UNL     1       3.269   5.573 -13.987  0.00  0.00    -0.019 A 
ATOM     35  C   UNL     1       2.658   4.378 -13.625  0.00  0.00    -0.004 A 
ATOM     36  C   UNL     1       1.332   4.130 -13.965  0.00  0.00    +0.001 A 
ATOM     37  C   UNL     1       0.597   5.071 -14.678  0.00  0.00    +0.018 A 
BRANCH  32  39
ATOM     38  C   UNL     1      -0.376   7.514 -15.795  0.00  0.00    +0.182 C 
ATOM     39  S   UNL     1       0.385   7.513 -15.948  0.00  0.00    +0.010 S 
ATOM     40  O   UNL     1       0.813   7.225 -17.371  0.00  0.00    -0.169 OA
ATOM     41  O   UNL     1       1.072   8.821 -15.611  0.00  0.00    -0.169 OA
ENDBRANCH  32  39
ENDBRANCH  31  34
ENDBRANCH  27  31
ENDBRANCH  24  27
ENDBRANCH   1  25
TORSDOF 7
ENDMDL
MODEL 6
REMARK VINA RESULT:      -9.5      0.986      1.478
REMARK  Name = 
REMARK  7 active torsions:
REMARK  status: ('A' for Active; 'I' for Inactive)
REMARK    1  A    between atoms: S_2  and  C_5
REMARK    2  A    between atoms: C_9  and  C_10
REMARK    3  A    between atoms: C_10  and  CA_11
REMARK    4  A    between atoms: CA_11  and  N_12
REMARK    5  A    between atoms: CA_11  and  C_38
REMARK    6  A    between atoms: C_13  and  C_15
REMARK    7  A    between atoms: C_26  and  C_28
REMARK                            x       y       z     vdW  Elec       q    Type
REMARK                         _______ _______ _______ _____ _____    ______ ____
ROOT
ATOM      1  C   UNL     1       1.632   5.317  -5.389  0.00  0.00    +0.076 A 
ATOM      2  C   UNL     1       2.862   5.587  -5.960  0.00  0.00    +0.059 A 
ATOM      3 CL   UNL     1       4.258   6.060  -5.014  0.00  0.00    -0.082 Cl
ATOM      4  C   UNL     1       3.000   5.587  -7.326  0.00  0.00    -0.012 A 
ATOM      5  C   UNL     1       3.985   6.451  -8.047  0.00  0.00    +0.048 C 
ATOM      6  C   UNL     1       3.166   7.283  -9.018  0.00  0.00    +0.099 C 
ATOM      7  N   UNL     1       2.469   6.447  -9.985  0.00  0.00    -0.272 N 
ATOM      8  C   UNL     1       2.095   5.107  -9.539  0.00  0.00    +0.120 C 
ATOM      9  C   UNL     1       2.952   6.522 -11.332  0.00  0.00    +0.249 C 
ATOM     10  O   UNL     1       2.058   6.536 -12.232  0.00  0.00    -0.270 OA
ATOM     11  C   UNL     1       1.970   5.035  -8.061  0.00  0.00    -0.005 A 
ATOM     12  C   UNL     1       0.759   4.744  -7.486  0.00  0.00    +0.009 A 
ATOM     13  C   UNL     1       0.510   5.080  -6.174  0.00  0.00    +0.063 A 
ATOM     14 CL   UNL     1      -1.119   5.308  -5.548  0.00  0.00    -0.082 Cl
ENDROOT
BRANCH   9  15
ATOM     15  C   UNL     1       4.138   5.710 -11.631  0.00  0.00    +0.057 A 
ATOM     16  C   UNL     1       5.261   5.743 -10.817  0.00  0.00    +0.042 A 
ATOM     17  C   UNL     1       6.529   5.445 -11.301  0.00  0.00    +0.146 A 
ATOM     18  C   UNL     1       6.691   5.322 -12.676  0.00  0.00    +0.038 A 
ATOM     19  C   UNL     1       7.939   5.838 -13.004  0.00  0.00    +0.044 A 
ATOM     20  C   UNL     1       8.560   6.019 -11.775  0.00  0.00    +0.180 A 
ATOM     21  C   UNL     1       5.562   5.006 -13.415  0.00  0.00    +0.003 A 
ATOM     22  O   UNL     1       7.717   5.739 -10.821  0.00  0.00    -0.450 OA
ATOM     23  C   UNL     1       4.297   5.111 -12.874  0.00  0.00    +0.005 A 
ENDBRANCH   9  15
BRANCH   1  25
ATOM     24  N   UNL     1       1.754   5.127  -2.861  0.00  0.00    -0.191 NA
ATOM     25  C   UNL     1       1.374   5.790  -4.041  0.00  0.00    +0.267 C 
ATOM     26  O   UNL     1       0.976   6.988  -3.923  0.00  0.00    -0.268 OA
BRANCH  24  27
ATOM     27  CA  UNL     1       2.547   5.996  -1.801  0.00  0.00    +0.202 C 
BRANCH  27  28
ATOM     28  C   UNL     1       3.253   4.706  -1.128  0.00  0.00    +0.385 C 
ATOM     29  OXT UNL     1       4.505   4.817  -0.633  0.00  0.00    -0.244 OA
ATOM     30  O   UNL     1       2.338   3.947  -0.712  0.00  0.00    -0.244 OA
ENDBRANCH  27  28
BRANCH  27  31
ATOM     31  C   UNL     1       1.268   6.033  -0.769  0.00  0.00    +0.060 C 
BRANCH  31  34
ATOM     32  C   UNL     1      -0.127   8.697   1.342  0.00  0.00    +0.105 A 
ATOM     33  C   UNL     1       0.026   7.697   0.420  0.00  0.00    +0.014 A 
ATOM     34  C   UNL     1       1.277   7.228   0.025  0.00  0.00    -0.019 A 
ATOM     35  C   UNL     1       2.282   8.185   0.088  0.00  0.00    -0.004 A 
ATOM     36  C   UNL     1       2.092   9.364   0.803  0.00  0.00    +0.001 A 
ATOM     37  C   UNL     1       0.895   9.602   1.469  0.00  0.00    +0.018 A 
BRANCH  32  39
ATOM     38  C   UNL     1      -1.548   8.588   2.944  0.00  0.00    +0.182 C 
ATOM     39  S   UNL     1      -1.649   8.831   2.214  0.00  0.00    +0.010 S 
ATOM     40  O   UNL     1      -2.662   8.092   1.366  0.00  0.00    -0.169 OA
ATOM     41  O   UNL     1      -2.067  10.284   2.111  0.00  0.00    -0.169 OA
ENDBRANCH  32  39
ENDBRANCH  31  34
ENDBRANCH  27  31
ENDBRANCH  24  27
ENDBRANCH   1  25
TORSDOF 7
ENDMDL
MODEL 7
REMARK VINA RESULT:      -9.4      3.247     11.365
REMARK  Name = 
REMARK  7 active torsions:
REMARK  status: ('A' for Active; 'I' for Inactive)
REMARK    1  A    between atoms: S_2  and  C_5
REMARK    2  A    between atoms: C_9  and  C_10
REMARK    3  A    between atoms: C_10  and  CA_11
REMARK    4  A    between atoms: CA_11  and  N_12
REMARK    5  A    between atoms: CA_11  and  C_38
REMARK    6  A    between atoms: C_13  and  C_15
REMARK    7  A    between atoms: C_26  and  C_28
REMARK                            x       y       z     vdW  Elec       q    Type
REMARK                         _______ _______ _______ _____ _____    ______ ____
ROOT
ATOM      1  C   UNL     1       0.923   5.601  -6.083  0.00  0.00    +0.076 A 
ATOM      2  C   UNL     1       1.687   5.778  -4.944  0.00  0.00    +0.059 A 
ATOM      3 CL   UNL     1       3.404   5.431  -4.897  0.00  0.00    -0.082 Cl
ATOM      4  C   UNL     1       1.089   6.145  -3.765  0.00  0.00    -0.012 A 
ATOM      5  C   UNL     1       1.613   5.741  -2.424  0.00  0.00    +0.048 C 
ATOM      6  C   UNL     1       0.473   5.002  -1.744  0.00  0.00    +0.099 C 
ATOM      7  N   UNL     1      -0.689   5.860  -1.562  0.00  0.00    -0.272 N 
ATOM      8  C   UNL     1      -0.876   6.923  -2.547  0.00  0.00    +0.120 C 
ATOM      9  C   UNL     1      -0.980   6.234  -0.210  0.00  0.00    +0.249 C 
ATOM     10  O   UNL     1      -2.208   6.230   0.105  0.00  0.00    -0.270 OA
ATOM     11  C   UNL     1      -0.213   6.600  -3.836  0.00  0.00    -0.005 A 
ATOM     12  C   UNL     1      -0.960   6.447  -4.976  0.00  0.00    +0.009 A 
ATOM     13  C   UNL     1      -0.458   5.752  -6.053  0.00  0.00    +0.063 A 
ATOM     14 CL   UNL     1      -1.495   5.000  -7.261  0.00  0.00    -0.082 Cl
ENDROOT
BRANCH   9  15
ATOM     15  C   UNL     1      -0.192   7.350   0.328  0.00  0.00    +0.057 A 
ATOM     16  C   UNL     1       1.130   7.184   0.712  0.00  0.00    +0.042 A 
ATOM     17  C   UNL     1       1.725   7.997   1.670  0.00  0.00    +0.146 A 
ATOM     18  C   UNL     1       0.908   8.851   2.401  0.00  0.00    +0.038 A 
ATOM     19  C   UNL     1       1.409   8.913   3.696  0.00  0.00    +0.044 A 
ATOM     20  C   UNL     1       2.645   8.284   3.606  0.00  0.00    +0.180 A 
ATOM     21  C   UNL     1      -0.301   9.208   1.825  0.00  0.00    +0.003 A 
ATOM     22  O   UNL     1       2.799   7.807   2.403  0.00  0.00    -0.450 OA
ATOM     23  C   UNL     1      -0.810   8.524   0.740  0.00  0.00    +0.005 A 
ENDBRANCH   9  15
BRANCH   1  25
ATOM     24  N   UNL     1       1.561   5.146  -8.496  0.00  0.00    -0.191 NA
ATOM     25  C   UNL     1       1.447   4.766  -7.148  0.00  0.00    +0.267 C 
ATOM     26  O   UNL     1       2.046   3.704  -6.798  0.00  0.00    -0.268 OA
BRANCH  24  27
ATOM     27  CA  UNL     1       2.982   4.926  -9.161  0.00  0.00    +0.202 C 
BRANCH  27  28
ATOM     28  C   UNL     1       3.708   5.998  -8.191  0.00  0.00    +0.385 C 
ATOM     29  OXT UNL     1       4.960   5.751  -7.747  0.00  0.00    -0.244 OA
ATOM     30  O   UNL     1       3.194   7.125  -8.419  0.00  0.00    -0.244 OA
ENDBRANCH  27  28
BRANCH  27  31
ATOM     31  C   UNL     1       2.662   5.996 -10.368  0.00  0.00    +0.060 C 
BRANCH  31  34
ATOM     32  C   UNL     1       5.760   5.787 -12.333  0.00  0.00    +0.105 A 
ATOM     33  C   UNL     1       4.810   6.142 -11.413  0.00  0.00    +0.014 A 
ATOM     34  C   UNL     1       3.480   5.739 -11.518  0.00  0.00    -0.019 A 
ATOM     35  C   UNL     1       3.051   5.550 -12.826  0.00  0.00    -0.004 A 
ATOM     36  C   UNL     1       3.972   5.444 -13.864  0.00  0.00    +0.001 A 
ATOM     37  C   UNL     1       5.336   5.521 -13.609  0.00  0.00    +0.018 A 
BRANCH  32  39
ATOM     38  C   UNL     1       7.751   6.511 -12.007  0.00  0.00    +0.182 C 
ATOM     39  S   UNL     1       7.455   5.809 -11.862  0.00  0.00    +0.010 S 
ATOM     40  O   UNL     1       8.081   4.625 -12.568  0.00  0.00    -0.169 OA
ATOM     41  O   UNL     1       7.490   5.428 -10.395  0.00  0.00    -0.169 OA
ENDBRANCH  32  39
ENDBRANCH  31  34
ENDBRANCH  27  31
ENDBRANCH  24  27
ENDBRANCH   1  25
TORSDOF 7
ENDMDL
MODEL 8
REMARK VINA RESULT:      -9.3      2.456      4.390
REMARK  Name = 
REMARK  7 active torsions:
REMARK  status: ('A' for Active; 'I' for Inactive)
REMARK    1  A    between atoms: S_2  and  C_5
REMARK    2  A    between atoms: C_9  and  C_10
REMARK    3  A    between atoms: C_10  and  CA_11
REMARK    4  A    between atoms: CA_11  and  N_12
REMARK    5  A    between atoms: CA_11  and  C_38
REMARK    6  A    between atoms: C_13  and  C_15
REMARK    7  A    between atoms: C_26  and  C_28
REMARK                            x       y       z     vdW  Elec       q    Type
REMARK                         _______ _______ _______ _____ _____    ______ ____
ROOT
ATOM      1  C   UNL     1       0.956   6.303  -3.549  0.00  0.00    +0.076 A 
ATOM      2  C   UNL     1       0.391   5.905  -4.746  0.00  0.00    +0.059 A 
ATOM      3 CL   UNL     1      -1.270   5.363  -4.872  0.00  0.00    -0.082 Cl
ATOM      4  C   UNL     1       1.163   5.829  -5.879  0.00  0.00    -0.012 A 
ATOM      5  C   UNL     1       0.901   4.853  -6.981  0.00  0.00    +0.048 C 
ATOM      6  C   UNL     1       2.180   4.046  -7.126  0.00  0.00    +0.099 C 
ATOM      7  N   UNL     1       3.307   4.890  -7.496  0.00  0.00    -0.272 N 
ATOM      8  C   UNL     1       3.263   6.276  -7.037  0.00  0.00    +0.120 C 
ATOM      9  C   UNL     1       3.806   4.711  -8.827  0.00  0.00    +0.249 C 
ATOM     10  O   UNL     1       5.069   4.729  -8.943  0.00  0.00    -0.270 OA
ATOM     11  C   UNL     1       2.406   6.429  -5.833  0.00  0.00    -0.005 A 
ATOM     12  C   UNL     1       2.953   6.846  -4.647  0.00  0.00    +0.009 A 
ATOM     13  C   UNL     1       2.311   6.595  -3.455  0.00  0.00    +0.063 A 
ATOM     14 CL   UNL     1       3.164   6.534  -1.915  0.00  0.00    -0.082 Cl
ENDROOT
BRANCH   9  15
ATOM     15  C   UNL     1       3.063   5.406  -9.886  0.00  0.00    +0.057 A 
ATOM     16  C   UNL     1       1.808   4.977 -10.291  0.00  0.00    +0.042 A 
ATOM     17  C   UNL     1       1.320   5.232 -11.567  0.00  0.00    +0.146 A 
ATOM     18  C   UNL     1       2.200   5.743 -12.513  0.00  0.00    +0.038 A 
ATOM     19  C   UNL     1       1.872   5.186 -13.743  0.00  0.00    +0.044 A 
ATOM     20  C   UNL     1       0.654   4.558 -13.511  0.00  0.00    +0.180 A 
ATOM     21  C   UNL     1       3.312   6.419 -12.035  0.00  0.00    +0.003 A 
ATOM     22  O   UNL     1       0.358   4.648 -12.245  0.00  0.00    -0.450 OA
ATOM     23  C   UNL     1       3.694   6.327 -10.712  0.00  0.00    +0.005 A 
ENDBRANCH   9  15
BRANCH   1  25
ATOM     24  N   UNL     1      -0.430   6.780  -1.477  0.00  0.00    -0.191 NA
ATOM     25  C   UNL     1       0.302   5.918  -2.311  0.00  0.00    +0.267 C 
ATOM     26  O   UNL     1       0.200   4.675  -2.083  0.00  0.00    -0.268 OA
BRANCH  24  27
ATOM     27  CA  UNL     1      -1.880   6.289  -1.074  0.00  0.00    +0.202 C 
BRANCH  27  28
ATOM     28  C   UNL     1      -2.565   6.915  -2.400  0.00  0.00    +0.385 C 
ATOM     29  OXT UNL     1      -3.788   6.486  -2.781  0.00  0.00    -0.244 OA
ATOM     30  O   UNL     1      -2.077   8.063  -2.573  0.00  0.00    -0.244 OA
ENDBRANCH  27  28
BRANCH  27  31
ATOM     31  C   UNL     1      -2.141   7.606  -0.125  0.00  0.00    +0.060 C 
BRANCH  31  34
ATOM     32  C   UNL     1       0.269   7.548   2.647  0.00  0.00    +0.105 A 
ATOM     33  C   UNL     1      -0.302   7.526   1.403  0.00  0.00    +0.014 A 
ATOM     34  C   UNL     1      -1.675   7.382   1.213  0.00  0.00    -0.019 A 
ATOM     35  C   UNL     1      -2.307   6.649   2.209  0.00  0.00    -0.004 A 
ATOM     36  C   UNL     1      -1.668   6.404   3.420  0.00  0.00    +0.001 A 
ATOM     37  C   UNL     1      -0.388   6.893   3.656  0.00  0.00    +0.018 A 
BRANCH  32  39
ATOM     38  C   UNL     1       2.146   8.459   2.152  0.00  0.00    +0.182 C 
ATOM     39  S   UNL     1       1.846   8.301   2.851  0.00  0.00    +0.010 S 
ATOM     40  O   UNL     1       2.625   7.363   3.749  0.00  0.00    -0.169 OA
ATOM     41  O   UNL     1       1.618   9.531   3.706  0.00  0.00    -0.169 OA
ENDBRANCH  32  39
ENDBRANCH  31  34
ENDBRANCH  27  31
ENDBRANCH  24  27
ENDBRANCH   1  25
TORSDOF 7
ENDMDL
MODEL 9
REMARK VINA RESULT:      -9.0      3.215      5.119
REMARK  Name = 
REMARK  7 active torsions:
REMARK  status: ('A' for Active; 'I' for Inactive)
REMARK    1  A    between atoms: S_2  and  C_5
REMARK    2  A    between atoms: C_9  and  C_10
REMARK    3  A    between atoms: C_10  and  CA_11
REMARK    4  A    between atoms: CA_11  and  N_12
REMARK    5  A    between atoms: CA_11  and  C_38
REMARK    6  A    between atoms: C_13  and  C_15
REMARK    7  A    between atoms: C_26  and  C_28
REMARK                            x       y       z     vdW  Elec       q    Type
REMARK                         _______ _______ _______ _____ _____    ______ ____
ROOT
ATOM      1  C   UNL     1       1.685   6.611  -2.754  0.00  0.00    +0.076 A 
ATOM      2  C   UNL     1       0.796   6.006  -3.623  0.00  0.00    +0.059 A 
ATOM      3 CL   UNL     1      -0.748   5.365  -3.099  0.00  0.00    -0.082 Cl
ATOM      4  C   UNL     1       1.149   5.797  -4.933  0.00  0.00    -0.012 A 
ATOM      5  C   UNL     1       0.634   4.652  -5.745  0.00  0.00    +0.048 C 
ATOM      6  C   UNL     1       1.866   3.900  -6.219  0.00  0.00    +0.099 C 
ATOM      7  N   UNL     1       2.714   4.734  -7.058  0.00  0.00    -0.272 N 
ATOM      8  C   UNL     1       2.685   6.171  -6.790  0.00  0.00    +0.120 C 
ATOM      9  C   UNL     1       2.755   4.380  -8.446  0.00  0.00    +0.249 C 
ATOM     10  O   UNL     1       3.898   4.446  -8.991  0.00  0.00    -0.270 OA
ATOM     11  C   UNL     1       2.269   6.461  -5.395  0.00  0.00    -0.005 A 
ATOM     12  C   UNL     1       3.135   7.083  -4.532  0.00  0.00    +0.009 A 
ATOM     13  C   UNL     1       2.957   6.984  -3.171  0.00  0.00    +0.063 A 
ATOM     14 CL   UNL     1       4.276   7.203  -2.025  0.00  0.00    -0.082 Cl
ENDROOT
BRANCH   9  15
ATOM     15  C   UNL     1       1.635   4.866  -9.262  0.00  0.00    +0.057 A 
ATOM     16  C   UNL     1       1.252   4.216 -10.426  0.00  0.00    +0.042 A 
ATOM     17  C   UNL     1       0.607   4.881 -11.461  0.00  0.00    +0.146 A 
ATOM     18  C   UNL     1       0.540   6.268 -11.406  0.00  0.00    +0.038 A 
ATOM     19  C   UNL     1       0.660   6.751 -12.704  0.00  0.00    +0.044 A 
ATOM     20  C   UNL     1       0.545   5.615 -13.495  0.00  0.00    +0.180 A 
ATOM     21  C   UNL     1       0.651   6.851 -10.153  0.00  0.00    +0.003 A 
ATOM     22  O   UNL     1       0.475   4.562 -12.729  0.00  0.00    -0.450 OA
ATOM     23  C   UNL     1       1.109   6.136  -9.066  0.00  0.00    +0.005 A 
ENDBRANCH   9  15
BRANCH   1  25
ATOM     24  N   UNL     1       0.813   7.221  -0.451  0.00  0.00    -0.191 NA
ATOM     25  C   UNL     1       1.524   6.386  -1.329  0.00  0.00    +0.267 C 
ATOM     26  O   UNL     1       1.862   5.245  -0.890  0.00  0.00    -0.268 OA
BRANCH  24  27
ATOM     27  CA  UNL     1      -0.266   6.508   0.463  0.00  0.00    +0.202 C 
BRANCH  27  28
ATOM     28  C   UNL     1      -1.512   7.197  -0.304  0.00  0.00    +0.385 C 
ATOM     29  OXT UNL     1      -1.312   8.334  -1.007  0.00  0.00    -0.244 OA
ATOM     30  O   UNL     1      -2.353   6.293  -0.550  0.00  0.00    -0.244 OA
ENDBRANCH  27  28
BRANCH  27  31
ATOM     31  C   UNL     1      -0.144   7.660   1.630  0.00  0.00    +0.060 C 
BRANCH  31  34
ATOM     32  C   UNL     1       3.425   8.510   1.827  0.00  0.00    +0.105 A 
ATOM     33  C   UNL     1       2.186   7.981   2.070  0.00  0.00    +0.014 A 
ATOM     34  C   UNL     1       1.034   8.459   1.449  0.00  0.00    -0.019 A 
ATOM     35  C   UNL     1       1.090   9.808   1.120  0.00  0.00    -0.004 A 
ATOM     36  C   UNL     1       2.306  10.483   1.110  0.00  0.00    +0.001 A 
ATOM     37  C   UNL     1       3.486   9.819   1.425  0.00  0.00    +0.018 A 
BRANCH  32  39
ATOM     38  C   UNL     1       5.476   7.991   2.175  0.00  0.00    +0.182 C 
ATOM     39  S   UNL     1       4.851   7.532   2.153  0.00  0.00    +0.010 S 
ATOM     40  O   UNL     1       4.827   6.431   1.115  0.00  0.00    -0.169 OA
ATOM     41  O   UNL     1       4.580   6.816   3.461  0.00  0.00    -0.169 OA
ENDBRANCH  32  39
ENDBRANCH  31  34
ENDBRANCH  27  31
ENDBRANCH  24  27
ENDBRANCH   1  25
TORSDOF 7
ENDMDL
