MODEL 1
REMARK VINA RESULT:      -7.0      0.000      0.000
REMARK  Name = 
REMARK  6 active torsions:
REMARK  status: ('A' for Active; 'I' for Inactive)
REMARK    1  A    between atoms: C_2  and  N_3
REMARK    2  A    between atoms: C_5  and  C_6
REMARK    3  A    between atoms: C_6  and  C_7
REMARK    4  A    between atoms: C_7  and  N_8
REMARK    5  A    between atoms: C_14  and  C_15
REMARK    6  A    between atoms: C_14  and  C_21
REMARK                            x       y       z     vdW  Elec       q    Type
REMARK                         _______ _______ _______ _____ _____    ______ ____
ROOT
ATOM      1  N   UNL     1       2.813   6.675  -4.299  0.00  0.00    -0.279 N 
ATOM      2  C   UNL     1       2.049   6.661  -5.491  0.00  0.00    +0.232 C 
ATOM      3  O   UNL     1       2.263   7.345  -6.537  0.00  0.00    -0.274 OA
ATOM      4  C   UNL     1       0.939   5.704  -5.407  0.00  0.00    +0.108 C 
ATOM      5  C   UNL     1       1.461   4.735  -4.188  0.00  0.00    +0.037 C 
ATOM      6  C   UNL     1       1.993   6.025  -3.306  0.00  0.00    +0.095 C 
ENDROOT
BRANCH   4   7
ATOM      7  C   UNL     1      -0.322   6.297  -5.124  0.00  0.00    -0.011 A 
ATOM      8  C   UNL     1      -0.371   7.608  -4.657  0.00  0.00    -0.004 A 
ATOM      9  C   UNL     1      -1.430   8.456  -4.958  0.00  0.00    -0.000 A 
ATOM     10  C   UNL     1      -2.661   7.827  -5.097  0.00  0.00    -0.000 A 
ATOM     11  C   UNL     1      -2.669   6.479  -5.434  0.00  0.00    -0.000 A 
ATOM     12  C   UNL     1      -1.462   5.900  -5.816  0.00  0.00    -0.004 A 
ENDBRANCH   4   7
BRANCH   4  13
ATOM     13  C   UNL     1       0.997   4.842  -6.633  0.00  0.00    -0.011 A 
ATOM     14  C   UNL     1       0.485   5.459  -7.768  0.00  0.00    -0.004 A 
ATOM     15  C   UNL     1       0.918   5.163  -9.045  0.00  0.00    -0.000 A 
ATOM     16  C   UNL     1       2.210   4.667  -9.173  0.00  0.00    -0.000 A 
ATOM     17  C   UNL     1       2.600   3.819  -8.145  0.00  0.00    -0.000 A 
ATOM     18  C   UNL     1       2.083   4.007  -6.876  0.00  0.00    -0.004 A 
ENDBRANCH   4  13
BRANCH   1  20
ATOM     19  C   UNL     1       4.977   7.785  -4.138  0.00  0.00    +0.023 C 
ATOM     20  C   UNL     1       3.503   7.909  -3.931  0.00  0.00    +0.093 C 
ENDBRANCH   1  20
BRANCH   5  21
ATOM     21  C   UNL     1       0.026   4.718  -3.370  0.00  0.00    +0.020 C 
BRANCH  21  22
ATOM     22  C   UNL     1       0.278   5.341  -2.040  0.00  0.00    +0.072 C 
BRANCH  22  23
ATOM     23  N   UNL     1      -0.841   5.313  -1.137  0.00  0.00    -0.268 NA
ATOM     24  C   UNL     1      -2.030   5.479  -1.898  0.00  0.00    +0.105 C 
ATOM     25  C   UNL     1      -2.675   6.816  -1.848  0.00  0.00    +0.159 C 
ATOM     26  O   UNL     1      -1.923   7.786  -1.208  0.00  0.00    -0.351 OA
ATOM     27  C   UNL     1      -1.666   7.297   0.077  0.00  0.00    +0.159 C 
ATOM     28  C   UNL     1      -0.659   6.206  -0.039  0.00  0.00    +0.105 C 
ENDBRANCH  22  23
ENDBRANCH  21  22
ENDBRANCH   5  21
TORSDOF 6
ENDMDL
MODEL 2
REMARK VINA RESULT:      -6.7      2.819      6.944
REMARK  Name = 
REMARK  6 active torsions:
REMARK  status: ('A' for Active; 'I' for Inactive)
REMARK    1  A    between atoms: C_2  and  N_3
REMARK    2  A    between atoms: C_5  and  C_6
REMARK    3  A    between atoms: C_6  and  C_7
REMARK    4  A    between atoms: C_7  and  N_8
REMARK    5  A    between atoms: C_14  and  C_15
REMARK    6  A    between atoms: C_14  and  C_21
REMARK                            x       y       z     vdW  Elec       q    Type
REMARK                         _______ _______ _______ _____ _____    ______ ____
ROOT
ATOM      1  N   UNL     1       2.804   5.313  -5.623  0.00  0.00    -0.279 N 
ATOM      2  C   UNL     1       1.486   5.044  -6.065  0.00  0.00    +0.232 C 
ATOM      3  O   UNL     1       0.742   4.086  -5.695  0.00  0.00    -0.274 OA
ATOM      4  C   UNL     1       1.026   6.054  -7.027  0.00  0.00    +0.108 C 
ATOM      5  C   UNL     1       2.057   7.287  -6.694  0.00  0.00    +0.037 C 
ATOM      6  C   UNL     1       3.344   6.261  -6.566  0.00  0.00    +0.095 C 
ENDROOT
BRANCH   4   7
ATOM      7  C   UNL     1       1.099   5.639  -8.385  0.00  0.00    -0.011 A 
ATOM      8  C   UNL     1       1.506   4.342  -8.684  0.00  0.00    -0.004 A 
ATOM      9  C   UNL     1       1.023   3.656  -9.791  0.00  0.00    -0.000 A 
ATOM     10  C   UNL     1       0.726   4.454 -10.889  0.00  0.00    -0.000 A 
ATOM     11  C   UNL     1       0.438   5.794 -10.661  0.00  0.00    -0.000 A 
ATOM     12  C   UNL     1       0.260   6.203  -9.343  0.00  0.00    -0.004 A 
ENDBRANCH   4   7
BRANCH   4  13
ATOM     13  C   UNL     1      -0.314   6.538  -6.560  0.00  0.00    -0.011 A 
ATOM     14  C   UNL     1      -1.349   5.652  -6.834  0.00  0.00    -0.004 A 
ATOM     15  C   UNL     1      -2.489   5.564  -6.059  0.00  0.00    -0.000 A 
ATOM     16  C   UNL     1      -2.377   5.951  -4.729  0.00  0.00    -0.000 A 
ATOM     17  C   UNL     1      -1.534   7.035  -4.518  0.00  0.00    -0.000 A 
ATOM     18  C   UNL     1      -0.453   7.228  -5.360  0.00  0.00    -0.004 A 
ENDBRANCH   4  13
BRANCH   1  20
ATOM     19  C   UNL     1       4.696   4.626  -4.248  0.00  0.00    +0.023 C 
ATOM     20  C   UNL     1       3.641   4.188  -5.210  0.00  0.00    +0.093 C 
ENDBRANCH   1  20
BRANCH   5  21
ATOM     21  C   UNL     1       2.427   7.617  -8.270  0.00  0.00    +0.020 C 
BRANCH  21  22
ATOM     22  C   UNL     1       3.809   7.110  -8.506  0.00  0.00    +0.072 C 
BRANCH  22  23
ATOM     23  N   UNL     1       4.052   6.614  -9.834  0.00  0.00    -0.268 NA
ATOM     24  C   UNL     1       4.786   5.401  -9.728  0.00  0.00    +0.105 C 
ATOM     25  C   UNL     1       6.236   5.468 -10.038  0.00  0.00    +0.159 C 
ATOM     26  O   UNL     1       6.723   6.753 -10.208  0.00  0.00    -0.351 OA
ATOM     27  C   UNL     1       5.959   7.326 -11.230  0.00  0.00    +0.159 C 
ATOM     28  C   UNL     1       4.605   7.619 -10.682  0.00  0.00    +0.105 C 
ENDBRANCH  22  23
ENDBRANCH  21  22
ENDBRANCH   5  21
TORSDOF 6
ENDMDL
MODEL 3
REMARK VINA RESULT:      -6.6      2.942      5.499
REMARK  Name = 
REMARK  6 active torsions:
REMARK  status: ('A' for Active; 'I' for Inactive)
REMARK    1  A    between atoms: C_2  and  N_3
REMARK    2  A    between atoms: C_5  and  C_6
REMARK    3  A    between atoms: C_6  and  C_7
REMARK    4  A    between atoms: C_7  and  N_8
REMARK    5  A    between atoms: C_14  and  C_15
REMARK    6  A    between atoms: C_14  and  C_21
REMARK                            x       y       z     vdW  Elec       q    Type
REMARK                         _______ _______ _______ _____ _____    ______ ____
ROOT
ATOM      1  N   UNL     1       1.584   5.172  -9.461  0.00  0.00    -0.279 N 
ATOM      2  C   UNL     1       2.941   4.956  -9.120  0.00  0.00    +0.232 C 
ATOM      3  O   UNL     1       3.674   3.993  -9.498  0.00  0.00    -0.274 OA
ATOM      4  C   UNL     1       3.456   6.029  -8.261  0.00  0.00    +0.108 C 
ATOM      5  C   UNL     1       2.370   7.220  -8.571  0.00  0.00    +0.037 C 
ATOM      6  C   UNL     1       1.103   6.163  -8.529  0.00  0.00    +0.095 C 
ENDROOT
BRANCH   4   7
ATOM      7  C   UNL     1       3.511   5.694  -6.879  0.00  0.00    -0.011 A 
ATOM      8  C   UNL     1       2.969   4.487  -6.447  0.00  0.00    -0.004 A 
ATOM      9  C   UNL     1       3.496   3.789  -5.367  0.00  0.00    -0.000 A 
ATOM     10  C   UNL     1       4.048   4.584  -4.371  0.00  0.00    -0.000 A 
ATOM     11  C   UNL     1       4.488   5.855  -4.721  0.00  0.00    -0.000 A 
ATOM     12  C   UNL     1       4.541   6.171  -6.075  0.00  0.00    -0.004 A 
ENDBRANCH   4   7
BRANCH   4  13
ATOM     13  C   UNL     1       4.739   6.512  -8.868  0.00  0.00    -0.011 A 
ATOM     14  C   UNL     1       5.817   5.668  -8.630  0.00  0.00    -0.004 A 
ATOM     15  C   UNL     1       6.890   5.556  -9.492  0.00  0.00    -0.000 A 
ATOM     16  C   UNL     1       6.657   5.856 -10.829  0.00  0.00    -0.000 A 
ATOM     17  C   UNL     1       5.770   6.906 -11.033  0.00  0.00    -0.000 A 
ATOM     18  C   UNL     1       4.758   7.128 -10.116  0.00  0.00    -0.004 A 
ENDBRANCH   4  13
BRANCH   1  20
ATOM     19  C   UNL     1      -0.100   4.227 -10.948  0.00  0.00    +0.023 C 
ATOM     20  C   UNL     1       0.743   4.009  -9.735  0.00  0.00    +0.093 C 
ENDBRANCH   1  20
BRANCH   5  21
ATOM     21  C   UNL     1       2.128   7.634  -6.991  0.00  0.00    +0.020 C 
BRANCH  21  22
ATOM     22  C   UNL     1       0.777   7.129  -6.613  0.00  0.00    +0.072 C 
BRANCH  22  23
ATOM     23  N   UNL     1       0.350   7.482  -5.286  0.00  0.00    -0.268 NA
ATOM     24  C   UNL     1       1.017   6.631  -4.362  0.00  0.00    +0.105 C 
ATOM     25  C   UNL     1       0.218   5.525  -3.776  0.00  0.00    +0.159 C 
ATOM     26  O   UNL     1      -1.029   5.356  -4.352  0.00  0.00    -0.351 OA
ATOM     27  C   UNL     1      -1.688   6.583  -4.223  0.00  0.00    +0.159 C 
ATOM     28  C   UNL     1      -1.072   7.539  -5.184  0.00  0.00    +0.105 C 
ENDBRANCH  22  23
ENDBRANCH  21  22
ENDBRANCH   5  21
TORSDOF 6
ENDMDL
MODEL 4
REMARK VINA RESULT:      -5.9      5.557      8.713
REMARK  Name = 
REMARK  6 active torsions:
REMARK  status: ('A' for Active; 'I' for Inactive)
REMARK    1  A    between atoms: C_2  and  N_3
REMARK    2  A    between atoms: C_5  and  C_6
REMARK    3  A    between atoms: C_6  and  C_7
REMARK    4  A    between atoms: C_7  and  N_8
REMARK    5  A    between atoms: C_14  and  C_15
REMARK    6  A    between atoms: C_14  and  C_21
REMARK                            x       y       z     vdW  Elec       q    Type
REMARK                         _______ _______ _______ _____ _____    ______ ____
ROOT
ATOM      1  N   UNL     1       1.222   9.136   0.644  0.00  0.00    -0.279 N 
ATOM      2  C   UNL     1       2.103   8.035   0.516  0.00  0.00    +0.232 C 
ATOM      3  O   UNL     1       1.789   6.807   0.528  0.00  0.00    -0.274 OA
ATOM      4  C   UNL     1       3.490   8.478   0.329  0.00  0.00    +0.108 C 
ATOM      5  C   UNL     1       3.255  10.019  -0.185  0.00  0.00    +0.037 C 
ATOM      6  C   UNL     1       2.062  10.275   0.926  0.00  0.00    +0.095 C 
ENDROOT
BRANCH   4   7
ATOM      7  C   UNL     1       4.285   8.417   1.507  0.00  0.00    -0.011 A 
ATOM      8  C   UNL     1       3.706   7.998   2.702  0.00  0.00    -0.004 A 
ATOM      9  C   UNL     1       4.429   7.308   3.667  0.00  0.00    -0.000 A 
ATOM     10  C   UNL     1       5.773   7.648   3.745  0.00  0.00    -0.000 A 
ATOM     11  C   UNL     1       6.373   8.194   2.617  0.00  0.00    -0.000 A 
ATOM     12  C   UNL     1       5.653   8.172   1.426  0.00  0.00    -0.004 A 
ENDBRANCH   4   7
BRANCH   4  13
ATOM     13  C   UNL     1       4.034   7.753  -0.866  0.00  0.00    -0.011 A 
ATOM     14  C   UNL     1       4.151   6.382  -0.675  0.00  0.00    -0.004 A 
ATOM     15  C   UNL     1       4.061   5.469  -1.708  0.00  0.00    -0.000 A 
ATOM     16  C   UNL     1       3.327   5.851  -2.824  0.00  0.00    -0.000 A 
ATOM     17  C   UNL     1       3.452   7.194  -3.158  0.00  0.00    -0.000 A 
ATOM     18  C   UNL     1       3.674   8.124  -2.158  0.00  0.00    -0.004 A 
ENDBRANCH   4  13
BRANCH   1  20
ATOM     19  C   UNL     1       0.274   9.118   2.890  0.00  0.00    +0.023 C 
ATOM     20  C   UNL     1       0.002   8.961   1.430  0.00  0.00    +0.093 C 
ENDBRANCH   1  20
BRANCH   5  21
ATOM     21  C   UNL     1       4.383  10.696   0.813  0.00  0.00    +0.020 C 
BRANCH  21  22
ATOM     22  C   UNL     1       4.245  12.175   0.682  0.00  0.00    +0.072 C 
BRANCH  22  23
ATOM     23  N   UNL     1       5.126  12.782  -0.278  0.00  0.00    -0.268 NA
ATOM     24  C   UNL     1       6.082  13.564   0.426  0.00  0.00    +0.105 C 
ATOM     25  C   UNL     1       5.883  15.035   0.414  0.00  0.00    +0.159 C 
ATOM     26  O   UNL     1       4.677  15.441  -0.132  0.00  0.00    -0.351 OA
ATOM     27  C   UNL     1       4.637  14.912  -1.426  0.00  0.00    +0.159 C 
ATOM     28  C   UNL     1       4.404  13.444  -1.315  0.00  0.00    +0.105 C 
ENDBRANCH  22  23
ENDBRANCH  21  22
ENDBRANCH   5  21
TORSDOF 6
ENDMDL
MODEL 5
REMARK VINA RESULT:      -5.5      2.687      5.704
REMARK  Name = 
REMARK  6 active torsions:
REMARK  status: ('A' for Active; 'I' for Inactive)
REMARK    1  A    between atoms: C_2  and  N_3
REMARK    2  A    between atoms: C_5  and  C_6
REMARK    3  A    between atoms: C_6  and  C_7
REMARK    4  A    between atoms: C_7  and  N_8
REMARK    5  A    between atoms: C_14  and  C_15
REMARK    6  A    between atoms: C_14  and  C_21
REMARK                            x       y       z     vdW  Elec       q    Type
REMARK                         _______ _______ _______ _____ _____    ______ ____
ROOT
ATOM      1  N   UNL     1       3.915   6.745  -5.167  0.00  0.00    -0.279 N 
ATOM      2  C   UNL     1       4.591   6.596  -3.931  0.00  0.00    +0.232 C 
ATOM      3  O   UNL     1       5.835   6.426  -3.762  0.00  0.00    -0.274 OA
ATOM      4  C   UNL     1       3.662   6.693  -2.797  0.00  0.00    +0.108 C 
ATOM      5  C   UNL     1       2.398   7.468  -3.500  0.00  0.00    +0.037 C 
ATOM      6  C   UNL     1       2.517   6.555  -4.870  0.00  0.00    +0.095 C 
ENDROOT
BRANCH   4   7
ATOM      7  C   UNL     1       3.286   5.437  -2.244  0.00  0.00    -0.011 A 
ATOM      8  C   UNL     1       4.216   4.402  -2.204  0.00  0.00    -0.004 A 
ATOM      9  C   UNL     1       4.216   3.452  -1.190  0.00  0.00    -0.000 A 
ATOM     10  C   UNL     1       2.961   3.146  -0.677  0.00  0.00    -0.000 A 
ATOM     11  C   UNL     1       1.955   4.095  -0.807  0.00  0.00    -0.000 A 
ATOM     12  C   UNL     1       2.316   5.365  -1.249  0.00  0.00    -0.004 A 
ENDBRANCH   4   7
BRANCH   4  13
ATOM     13  C   UNL     1       4.235   7.688  -1.834  0.00  0.00    -0.011 A 
ATOM     14  C   UNL     1       3.558   8.901  -1.822  0.00  0.00    -0.004 A 
ATOM     15  C   UNL     1       3.493   9.716  -0.709  0.00  0.00    -0.000 A 
ATOM     16  C   UNL     1       3.625   9.100   0.530  0.00  0.00    -0.000 A 
ATOM     17  C   UNL     1       4.533   8.049   0.551  0.00  0.00    -0.000 A 
ATOM     18  C   UNL     1       4.720   7.291  -0.591  0.00  0.00    -0.004 A 
ENDBRANCH   4  13
BRANCH   1  20
ATOM     19  C   UNL     1       3.443   5.249  -7.032  0.00  0.00    +0.023 C 
ATOM     20  C   UNL     1       4.472   6.086  -6.346  0.00  0.00    +0.093 C 
ENDBRANCH   1  20
BRANCH   5  21
ATOM     21  C   UNL     1       1.234   6.469  -2.888  0.00  0.00    +0.020 C 
BRANCH  21  22
ATOM     22  C   UNL     1       0.180   6.340  -3.933  0.00  0.00    +0.072 C 
BRANCH  22  23
ATOM     23  N   UNL     1      -1.119   6.821  -3.545  0.00  0.00    -0.268 NA
ATOM     24  C   UNL     1      -1.212   6.756  -2.128  0.00  0.00    +0.105 C 
ATOM     25  C   UNL     1      -2.017   5.645  -1.562  0.00  0.00    +0.159 C 
ATOM     26  O   UNL     1      -2.420   4.702  -2.492  0.00  0.00    -0.351 OA
ATOM     27  C   UNL     1      -3.136   5.400  -3.470  0.00  0.00    +0.159 C 
ATOM     28  C   UNL     1      -2.162   6.183  -4.281  0.00  0.00    +0.105 C 
ENDBRANCH  22  23
ENDBRANCH  21  22
ENDBRANCH   5  21
TORSDOF 6
ENDMDL
MODEL 6
REMARK VINA RESULT:      -5.5      3.297      5.989
REMARK  Name = 
REMARK  6 active torsions:
REMARK  status: ('A' for Active; 'I' for Inactive)
REMARK    1  A    between atoms: C_2  and  N_3
REMARK    2  A    between atoms: C_5  and  C_6
REMARK    3  A    between atoms: C_6  and  C_7
REMARK    4  A    between atoms: C_7  and  N_8
REMARK    5  A    between atoms: C_14  and  C_15
REMARK    6  A    between atoms: C_14  and  C_21
REMARK                            x       y       z     vdW  Elec       q    Type
REMARK                         _______ _______ _______ _____ _____    ______ ____
ROOT
ATOM      1  N   UNL     1      -0.356   5.797  -7.558  0.00  0.00    -0.279 N 
ATOM      2  C   UNL     1       0.282   5.504  -8.788  0.00  0.00    +0.232 C 
ATOM      3  O   UNL     1      -0.077   4.638  -9.641  0.00  0.00    -0.274 OA
ATOM      4  C   UNL     1       1.448   6.369  -9.007  0.00  0.00    +0.108 C 
ATOM      5  C   UNL     1       1.111   7.606  -7.982  0.00  0.00    +0.037 C 
ATOM      6  C   UNL     1       0.598   6.572  -6.802  0.00  0.00    +0.095 C 
ENDROOT
BRANCH   4   7
ATOM      7  C   UNL     1       2.695   5.750  -8.715  0.00  0.00    -0.011 A 
ATOM      8  C   UNL     1       2.734   4.386  -8.440  0.00  0.00    -0.004 A 
ATOM      9  C   UNL     1       3.828   3.598  -8.777  0.00  0.00    -0.000 A 
ATOM     10  C   UNL     1       5.054   4.250  -8.728  0.00  0.00    -0.000 A 
ATOM     11  C   UNL     1       5.062   5.633  -8.866  0.00  0.00    -0.000 A 
ATOM     12  C   UNL     1       3.877   6.252  -9.252  0.00  0.00    -0.004 A 
ENDBRANCH   4   7
BRANCH   4  13
ATOM     13  C   UNL     1       1.315   6.960 -10.378  0.00  0.00    -0.011 A 
ATOM     14  C   UNL     1       2.144   6.363 -11.321  0.00  0.00    -0.004 A 
ATOM     15  C   UNL     1       1.830   6.299 -12.665  0.00  0.00    -0.000 A 
ATOM     16  C   UNL     1       0.481   6.334 -12.999  0.00  0.00    -0.000 A 
ATOM     17  C   UNL     1      -0.285   7.169 -12.195  0.00  0.00    -0.000 A 
ATOM     18  C   UNL     1       0.078   7.360 -10.874  0.00  0.00    -0.004 A 
ENDBRANCH   4  13
BRANCH   1  20
ATOM     19  C   UNL     1      -2.314   5.236  -6.219  0.00  0.00    +0.023 C 
ATOM     20  C   UNL     1      -1.075   4.723  -6.876  0.00  0.00    +0.093 C 
ENDBRANCH   1  20
BRANCH   5  21
ATOM     21  C   UNL     1       2.620   7.680  -7.316  0.00  0.00    +0.020 C 
BRANCH  21  22
ATOM     22  C   UNL     1       2.493   7.221  -5.903  0.00  0.00    +0.072 C 
BRANCH  22  23
ATOM     23  N   UNL     1       3.705   7.292  -5.133  0.00  0.00    -0.268 NA
ATOM     24  C   UNL     1       4.535   6.200  -5.506  0.00  0.00    +0.105 C 
ATOM     25  C   UNL     1       4.603   5.058  -4.560  0.00  0.00    +0.159 C 
ATOM     26  O   UNL     1       3.696   5.129  -3.517  0.00  0.00    -0.351 OA
ATOM     27  C   UNL     1       3.942   6.343  -2.867  0.00  0.00    +0.159 C 
ATOM     28  C   UNL     1       3.440   7.441  -3.739  0.00  0.00    +0.105 C 
ENDBRANCH  22  23
ENDBRANCH  21  22
ENDBRANCH   5  21
TORSDOF 6
ENDMDL
MODEL 7
REMARK VINA RESULT:      -5.2      8.756     12.443
REMARK  Name = 
REMARK  6 active torsions:
REMARK  status: ('A' for Active; 'I' for Inactive)
REMARK    1  A    between atoms: C_2  and  N_3
REMARK    2  A    between atoms: C_5  and  C_6
REMARK    3  A    between atoms: C_6  and  C_7
REMARK    4  A    between atoms: C_7  and  N_8
REMARK    5  A    between atoms: C_14  and  C_15
REMARK    6  A    between atoms: C_14  and  C_21
REMARK                            x       y       z     vdW  Elec       q    Type
REMARK                         _______ _______ _______ _____ _____    ______ ____
ROOT
ATOM      1  N   UNL     1      -0.988   8.266 -17.361  0.00  0.00    -0.279 N 
ATOM      2  C   UNL     1      -0.091   9.307 -17.703  0.00  0.00    +0.232 C 
ATOM      3  O   UNL     1      -0.122  10.022 -18.749  0.00  0.00    -0.274 OA
ATOM      4  C   UNL     1       0.920   9.509 -16.657  0.00  0.00    +0.108 C 
ATOM      5  C   UNL     1       0.179   8.803 -15.373  0.00  0.00    +0.037 C 
ATOM      6  C   UNL     1      -0.348   7.538 -16.292  0.00  0.00    +0.095 C 
ENDROOT
BRANCH   4   7
ATOM      7  C   UNL     1       2.182   8.919 -16.944  0.00  0.00    -0.011 A 
ATOM      8  C   UNL     1       2.291   8.019 -18.000  0.00  0.00    -0.004 A 
ATOM      9  C   UNL     1       3.455   7.902 -18.750  0.00  0.00    -0.000 A 
ATOM     10  C   UNL     1       4.629   8.138 -18.046  0.00  0.00    -0.000 A 
ATOM     11  C   UNL     1       4.556   8.927 -16.904  0.00  0.00    -0.000 A 
ATOM     12  C   UNL     1       3.362   9.597 -16.656  0.00  0.00    -0.004 A 
ENDBRANCH   4   7
BRANCH   4  13
ATOM     13  C   UNL     1       0.940  10.972 -16.332  0.00  0.00    -0.011 A 
ATOM     14  C   UNL     1       0.083  11.728 -17.123  0.00  0.00    -0.004 A 
ATOM     15  C   UNL     1      -0.502  12.901 -16.690  0.00  0.00    -0.000 A 
ATOM     16  C   UNL     1      -0.679  13.048 -15.319  0.00  0.00    -0.000 A 
ATOM     17  C   UNL     1       0.350  12.517 -14.551  0.00  0.00    -0.000 A 
ATOM     18  C   UNL     1       1.047  11.417 -15.017  0.00  0.00    -0.004 A 
ENDBRANCH   4  13
BRANCH   1  20
ATOM     19  C   UNL     1      -2.749   6.680 -17.930  0.00  0.00    +0.023 C 
ATOM     20  C   UNL     1      -1.616   7.507 -18.441  0.00  0.00    +0.093 C 
ENDBRANCH   1  20
BRANCH   5  21
ATOM     21  C   UNL     1       1.499   7.943 -14.878  0.00  0.00    +0.020 C 
BRANCH  21  22
ATOM     22  C   UNL     1       1.012   6.919 -13.911  0.00  0.00    +0.072 C 
BRANCH  22  23
ATOM     23  N   UNL     1       1.065   7.316 -12.530  0.00  0.00    -0.268 NA
ATOM     24  C   UNL     1       2.014   6.492 -11.866  0.00  0.00    +0.105 C 
ATOM     25  C   UNL     1       1.474   5.410 -11.005  0.00  0.00    +0.159 C 
ATOM     26  O   UNL     1       0.106   5.229 -11.111  0.00  0.00    -0.351 OA
ATOM     27  C   UNL     1      -0.476   6.462 -10.802  0.00  0.00    +0.159 C 
ATOM     28  C   UNL     1      -0.235   7.384 -11.947  0.00  0.00    +0.105 C 
ENDBRANCH  22  23
ENDBRANCH  21  22
ENDBRANCH   5  21
TORSDOF 6
ENDMDL
MODEL 8
REMARK VINA RESULT:      -5.0      9.956     12.799
REMARK  Name = 
REMARK  6 active torsions:
REMARK  status: ('A' for Active; 'I' for Inactive)
REMARK    1  A    between atoms: C_2  and  N_3
REMARK    2  A    between atoms: C_5  and  C_6
REMARK    3  A    between atoms: C_6  and  C_7
REMARK    4  A    between atoms: C_7  and  N_8
REMARK    5  A    between atoms: C_14  and  C_15
REMARK    6  A    between atoms: C_14  and  C_21
REMARK                            x       y       z     vdW  Elec       q    Type
REMARK                         _______ _______ _______ _____ _____    ______ ____
ROOT
ATOM      1  N   UNL     1       7.425  15.114  -3.446  0.00  0.00    -0.279 N 
ATOM      2  C   UNL     1       6.281  14.609  -2.782  0.00  0.00    +0.232 C 
ATOM      3  O   UNL     1       5.308  13.991  -3.310  0.00  0.00    -0.274 OA
ATOM      4  C   UNL     1       6.346  14.858  -1.337  0.00  0.00    +0.108 C 
ATOM      5  C   UNL     1       7.956  15.109  -1.140  0.00  0.00    +0.037 C 
ATOM      6  C   UNL     1       8.047  16.020  -2.512  0.00  0.00    +0.095 C 
ENDROOT
BRANCH   4   7
ATOM      7  C   UNL     1       5.569  15.968  -0.902  0.00  0.00    -0.011 A 
ATOM      8  C   UNL     1       4.817  16.682  -1.830  0.00  0.00    -0.004 A 
ATOM      9  C   UNL     1       3.613  17.287  -1.491  0.00  0.00    -0.000 A 
ATOM     10  C   UNL     1       3.539  17.750  -0.184  0.00  0.00    -0.000 A 
ATOM     11  C   UNL     1       4.366  17.159   0.764  0.00  0.00    -0.000 A 
ATOM     12  C   UNL     1       5.059  16.010   0.392  0.00  0.00    -0.004 A 
ENDBRANCH   4   7
BRANCH   4  13
ATOM     13  C   UNL     1       6.073  13.557  -0.646  0.00  0.00    -0.011 A 
ATOM     14  C   UNL     1       6.978  13.267   0.368  0.00  0.00    -0.004 A 
ATOM     15  C   UNL     1       6.651  12.503   1.472  0.00  0.00    -0.000 A 
ATOM     16  C   UNL     1       5.314  12.478   1.848  0.00  0.00    -0.000 A 
ATOM     17  C   UNL     1       4.421  12.490   0.783  0.00  0.00    -0.000 A 
ATOM     18  C   UNL     1       4.771  13.136  -0.389  0.00  0.00    -0.004 A 
ENDBRANCH   4  13
BRANCH   1  20
ATOM     19  C   UNL     1       6.750  16.924  -4.932  0.00  0.00    +0.023 C 
ATOM     20  C   UNL     1       7.290  15.535  -4.840  0.00  0.00    +0.093 C 
ENDBRANCH   1  20
BRANCH   5  21
ATOM     21  C   UNL     1       7.797  16.461  -0.205  0.00  0.00    +0.020 C 
BRANCH  21  22
ATOM     22  C   UNL     1       9.145  17.090  -0.119  0.00  0.00    +0.072 C 
BRANCH  22  23
ATOM     23  N   UNL     1       9.808  16.929   1.146  0.00  0.00    -0.268 NA
ATOM     24  C   UNL     1      11.124  16.450   0.902  0.00  0.00    +0.105 C 
ATOM     25  C   UNL     1      11.371  15.010   1.167  0.00  0.00    +0.159 C 
ATOM     26  O   UNL     1      10.228  14.278   1.442  0.00  0.00    -0.351 OA
ATOM     27  C   UNL     1       9.621  14.900   2.539  0.00  0.00    +0.159 C 
ATOM     28  C   UNL     1       9.018  16.178   2.067  0.00  0.00    +0.105 C 
ENDBRANCH  22  23
ENDBRANCH  21  22
ENDBRANCH   5  21
TORSDOF 6
ENDMDL
MODEL 9
REMARK VINA RESULT:      -4.9      3.294      6.423
REMARK  Name = 
REMARK  6 active torsions:
REMARK  status: ('A' for Active; 'I' for Inactive)
REMARK    1  A    between atoms: C_2  and  N_3
REMARK    2  A    between atoms: C_5  and  C_6
REMARK    3  A    between atoms: C_6  and  C_7
REMARK    4  A    between atoms: C_7  and  N_8
REMARK    5  A    between atoms: C_14  and  C_15
REMARK    6  A    between atoms: C_14  and  C_21
REMARK                            x       y       z     vdW  Elec       q    Type
REMARK                         _______ _______ _______ _____ _____    ______ ____
ROOT
ATOM      1  N   UNL     1       4.566   5.656  -7.478  0.00  0.00    -0.279 N 
ATOM      2  C   UNL     1       3.965   5.577  -6.198  0.00  0.00    +0.232 C 
ATOM      3  O   UNL     1       4.274   4.778  -5.263  0.00  0.00    -0.274 OA
ATOM      4  C   UNL     1       2.910   6.585  -6.037  0.00  0.00    +0.108 C 
ATOM      5  C   UNL     1       3.323   7.653  -7.213  0.00  0.00    +0.037 C 
ATOM      6  C   UNL     1       3.662   6.442  -8.282  0.00  0.00    +0.095 C 
ENDROOT
BRANCH   4   7
ATOM      7  C   UNL     1       1.591   6.079  -6.205  0.00  0.00    -0.011 A 
ATOM      8  C   UNL     1       1.393   4.705  -6.301  0.00  0.00    -0.004 A 
ATOM      9  C   UNL     1       0.238   4.093  -5.830  0.00  0.00    -0.000 A 
ATOM     10  C   UNL     1      -0.912   4.868  -5.921  0.00  0.00    -0.000 A 
ATOM     11  C   UNL     1      -0.765   6.249  -5.961  0.00  0.00    -0.000 A 
ATOM     12  C   UNL     1       0.497   6.773  -5.697  0.00  0.00    -0.004 A 
ENDBRANCH   4   7
BRANCH   4  13
ATOM     13  C   UNL     1       3.175   7.308  -4.751  0.00  0.00    -0.011 A 
ATOM     14  C   UNL     1       2.476   6.788  -3.668  0.00  0.00    -0.004 A 
ATOM     15  C   UNL     1       2.939   6.861  -2.369  0.00  0.00    -0.000 A 
ATOM     16  C   UNL     1       4.315   6.957  -2.195  0.00  0.00    -0.000 A 
ATOM     17  C   UNL     1       4.959   7.727  -3.155  0.00  0.00    -0.000 A 
ATOM     18  C   UNL     1       4.446   7.781  -4.439  0.00  0.00    -0.004 A 
ENDBRANCH   4  13
BRANCH   1  20
ATOM     19  C   UNL     1       4.250   3.892  -9.130  0.00  0.00    +0.023 C 
ATOM     20  C   UNL     1       5.132   4.439  -8.056  0.00  0.00    +0.093 C 
ENDBRANCH   1  20
BRANCH   5  21
ATOM     21  C   UNL     1       1.798   7.818  -7.824  0.00  0.00    +0.020 C 
BRANCH  21  22
ATOM     22  C   UNL     1       1.792   7.158  -9.161  0.00  0.00    +0.072 C 
BRANCH  22  23
ATOM     23  N   UNL     1       0.493   6.769  -9.638  0.00  0.00    -0.268 NA
ATOM     24  C   UNL     1       0.336   5.374  -9.414  0.00  0.00    +0.105 C 
ATOM     25  C   UNL     1       0.474   4.487 -10.597  0.00  0.00    +0.159 C 
ATOM     26  O   UNL     1       0.926   5.127 -11.738  0.00  0.00    -0.351 OA
ATOM     27  C   UNL     1       0.023   6.167 -11.985  0.00  0.00    +0.159 C 
ATOM     28  C   UNL     1       0.256   7.229 -10.967  0.00  0.00    +0.105 C 
ENDBRANCH  22  23
ENDBRANCH  21  22
ENDBRANCH   5  21
TORSDOF 6
ENDMDL
