MODEL 1
REMARK VINA RESULT:      -6.5      0.000      0.000
REMARK  Name = 
REMARK  11 active torsions:
REMARK  status: ('A' for Active; 'I' for Inactive)
REMARK    1  A    between atoms: N_4  and  C_5
REMARK    2  A    between atoms: N_4  and  C_10
REMARK    3  A    between atoms: C_5  and  C_6
REMARK    4  A    between atoms: C_6  and  C_8
REMARK    5  A    between atoms: C_13  and  C_14
REMARK    6  A    between atoms: N_16  and  C_17
REMARK    7  A    between atoms: C_17  and  C_18
REMARK    8  A    between atoms: C_22  and  C_23
REMARK    9  A    between atoms: N_25  and  C_26
REMARK   10  A    between atoms: C_26  and  C_27
REMARK   11  A    between atoms: C_27  and  C_29
REMARK                            x       y       z     vdW  Elec       q    Type
REMARK                         _______ _______ _______ _____ _____    ______ ____
ROOT
ATOM      1  C   UNL     1       2.503   6.348  -2.477  0.00  0.00    +0.065 A 
ATOM      2  C   UNL     1       3.103   6.600  -3.696  0.00  0.00    +0.049 A 
ATOM      3  I   UNL     1       5.054   7.380  -3.796  0.00  0.00    -0.041 I 
ATOM      4  C   UNL     1       2.522   6.079  -4.845  0.00  0.00    +0.067 A 
ATOM      5  C   UNL     1       1.172   5.827  -4.844  0.00  0.00    +0.040 A 
ATOM      6  I   UNL     1       0.263   5.017  -6.571  0.00  0.00    -0.042 I 
ATOM      7  C   UNL     1       0.586   5.577  -3.615  0.00  0.00    +0.067 A 
ATOM      8  C   UNL     1       1.141   6.132  -2.471  0.00  0.00    +0.049 A 
ATOM      9  I   UNL     1      -0.017   6.445  -0.729  0.00  0.00    -0.041 I 
ENDROOT
BRANCH   1  12
ATOM     10  C   UNL     1       3.775   4.454  -0.949  0.00  0.00    +0.095 C 
ATOM     11  C   UNL     1       3.955   5.637  -0.661  0.00  0.00    +0.230 C 
ATOM     12  N   UNL     1       3.149   6.662  -1.250  0.00  0.00    -0.255 N 
ATOM     13  O   UNL     1       5.042   6.002  -0.121  0.00  0.00    -0.275 OA
BRANCH  12  14
ATOM     14  C   UNL     1       3.360   8.079  -0.971  0.00  0.00    +0.134 C 
BRANCH  14  15
ATOM     15  C   UNL     1       2.881   8.155   0.644  0.00  0.00    +0.205 C 
ATOM     16  O   UNL     1       2.013   9.409   0.360  0.00  0.00    -0.218 OA
BRANCH  15  17
ATOM     17  C   UNL     1       4.210   9.117   1.026  0.00  0.00    +0.217 C 
ATOM     18  O   UNL     1       3.927  10.277   0.285  0.00  0.00    -0.218 OA
ENDBRANCH  15  17
ENDBRANCH  14  15
ENDBRANCH  12  14
ENDBRANCH   1  12
BRANCH   4  19
ATOM     19  C   UNL     1       3.391   5.777  -5.990  0.00  0.00    +0.266 C 
ATOM     20  N   UNL     1       3.393   6.667  -7.113  0.00  0.00    -0.199 NA
ATOM     21  O   UNL     1       4.463   5.112  -5.849  0.00  0.00    -0.268 OA
BRANCH  20  22
ATOM     22  C   UNL     1       3.744   6.083  -8.406  0.00  0.00    +0.151 C 
BRANCH  22  23
ATOM     23  C   UNL     1       3.163   7.334  -9.376  0.00  0.00    +0.206 C 
ATOM     24  O   UNL     1       2.195   7.798  -8.257  0.00  0.00    -0.218 OA
BRANCH  23  25
ATOM     25  C   UNL     1       1.981   6.326 -10.025  0.00  0.00    +0.217 C 
ATOM     26  O   UNL     1       0.858   7.149  -9.844  0.00  0.00    -0.218 OA
ENDBRANCH  23  25
ENDBRANCH  22  23
ENDBRANCH  20  22
ENDBRANCH   4  19
BRANCH   7  27
ATOM     27  C   UNL     1      -0.866   5.360  -3.572  0.00  0.00    +0.266 C 
ATOM     28  N   UNL     1      -1.781   6.097  -4.370  0.00  0.00    -0.199 NA
ATOM     29  O   UNL     1      -1.349   4.750  -2.585  0.00  0.00    -0.268 OA
BRANCH  28  30
ATOM     30  C   UNL     1      -2.921   6.796  -3.779  0.00  0.00    +0.151 C 
BRANCH  30  31
ATOM     31  C   UNL     1      -2.389   8.175  -3.402  0.00  0.00    +0.205 C 
ATOM     32  O   UNL     1      -1.695   8.646  -4.529  0.00  0.00    -0.218 OA
ENDBRANCH  30  31
ENDBRANCH  28  30
ENDBRANCH   7  27
TORSDOF 11
ENDMDL
MODEL 2
REMARK VINA RESULT:      -6.4      1.492      2.004
REMARK  Name = 
REMARK  11 active torsions:
REMARK  status: ('A' for Active; 'I' for Inactive)
REMARK    1  A    between atoms: N_4  and  C_5
REMARK    2  A    between atoms: N_4  and  C_10
REMARK    3  A    between atoms: C_5  and  C_6
REMARK    4  A    between atoms: C_6  and  C_8
REMARK    5  A    between atoms: C_13  and  C_14
REMARK    6  A    between atoms: N_16  and  C_17
REMARK    7  A    between atoms: C_17  and  C_18
REMARK    8  A    between atoms: C_22  and  C_23
REMARK    9  A    between atoms: N_25  and  C_26
REMARK   10  A    between atoms: C_26  and  C_27
REMARK   11  A    between atoms: C_27  and  C_29
REMARK                            x       y       z     vdW  Elec       q    Type
REMARK                         _______ _______ _______ _____ _____    ______ ____
ROOT
ATOM      1  C   UNL     1       2.553   6.504  -2.365  0.00  0.00    +0.065 A 
ATOM      2  C   UNL     1       3.003   6.986  -3.579  0.00  0.00    +0.049 A 
ATOM      3  I   UNL     1       4.950   7.754  -3.780  0.00  0.00    -0.041 I 
ATOM      4  C   UNL     1       2.264   6.706  -4.722  0.00  0.00    +0.067 A 
ATOM      5  C   UNL     1       0.917   6.471  -4.594  0.00  0.00    +0.040 A 
ATOM      6  I   UNL     1      -0.229   6.024  -6.312  0.00  0.00    -0.042 I 
ATOM      7  C   UNL     1       0.482   5.988  -3.372  0.00  0.00    +0.067 A 
ATOM      8  C   UNL     1       1.196   6.303  -2.223  0.00  0.00    +0.049 A 
ATOM      9  I   UNL     1       0.277   6.277  -0.319  0.00  0.00    -0.041 I 
ENDROOT
BRANCH   1  12
ATOM     10  C   UNL     1       3.601   4.263  -1.174  0.00  0.00    +0.095 C 
ATOM     11  C   UNL     1       4.018   5.359  -0.799  0.00  0.00    +0.230 C 
ATOM     12  N   UNL     1       3.358   6.565  -1.195  0.00  0.00    -0.255 N 
ATOM     13  O   UNL     1       5.200   5.471  -0.354  0.00  0.00    -0.275 OA
BRANCH  12  14
ATOM     14  C   UNL     1       3.847   7.885  -0.811  0.00  0.00    +0.134 C 
BRANCH  14  15
ATOM     15  C   UNL     1       3.000   8.128   0.626  0.00  0.00    +0.205 C 
ATOM     16  O   UNL     1       2.976   9.661   0.390  0.00  0.00    -0.218 OA
BRANCH  15  17
ATOM     17  C   UNL     1       4.439   8.247   1.493  0.00  0.00    +0.217 C 
ATOM     18  O   UNL     1       4.339   7.128   2.337  0.00  0.00    -0.218 OA
ENDBRANCH  15  17
ENDBRANCH  14  15
ENDBRANCH  12  14
ENDBRANCH   1  12
BRANCH   4  19
ATOM     19  C   UNL     1       2.971   6.628  -6.007  0.00  0.00    +0.266 C 
ATOM     20  N   UNL     1       3.277   5.339  -6.554  0.00  0.00    -0.199 NA
ATOM     21  O   UNL     1       2.873   7.551  -6.873  0.00  0.00    -0.268 OA
BRANCH  20  22
ATOM     22  C   UNL     1       4.440   5.265  -7.437  0.00  0.00    +0.151 C 
BRANCH  22  23
ATOM     23  C   UNL     1       3.602   5.224  -8.898  0.00  0.00    +0.206 C 
ATOM     24  O   UNL     1       3.801   3.690  -9.009  0.00  0.00    -0.218 OA
BRANCH  23  25
ATOM     25  C   UNL     1       5.022   5.502  -9.759  0.00  0.00    +0.217 C 
ATOM     26  O   UNL     1       5.956   5.258  -8.740  0.00  0.00    -0.218 OA
ENDBRANCH  23  25
ENDBRANCH  22  23
ENDBRANCH  20  22
ENDBRANCH   4  19
BRANCH   7  27
ATOM     27  C   UNL     1      -0.959   5.781  -3.183  0.00  0.00    +0.266 C 
ATOM     28  N   UNL     1      -1.902   6.842  -3.198  0.00  0.00    -0.199 NA
ATOM     29  O   UNL     1      -1.343   4.698  -2.672  0.00  0.00    -0.268 OA
BRANCH  28  30
ATOM     30  C   UNL     1      -2.848   7.042  -2.102  0.00  0.00    +0.151 C 
BRANCH  30  31
ATOM     31  C   UNL     1      -4.207   6.652  -2.674  0.00  0.00    +0.205 C 
ATOM     32  O   UNL     1      -3.988   5.499  -3.445  0.00  0.00    -0.218 OA
ENDBRANCH  30  31
ENDBRANCH  28  30
ENDBRANCH   7  27
TORSDOF 11
ENDMDL
MODEL 3
REMARK VINA RESULT:      -6.4      2.215      5.954
REMARK  Name = 
REMARK  11 active torsions:
REMARK  status: ('A' for Active; 'I' for Inactive)
REMARK    1  A    between atoms: N_4  and  C_5
REMARK    2  A    between atoms: N_4  and  C_10
REMARK    3  A    between atoms: C_5  and  C_6
REMARK    4  A    between atoms: C_6  and  C_8
REMARK    5  A    between atoms: C_13  and  C_14
REMARK    6  A    between atoms: N_16  and  C_17
REMARK    7  A    between atoms: C_17  and  C_18
REMARK    8  A    between atoms: C_22  and  C_23
REMARK    9  A    between atoms: N_25  and  C_26
REMARK   10  A    between atoms: C_26  and  C_27
REMARK   11  A    between atoms: C_27  and  C_29
REMARK                            x       y       z     vdW  Elec       q    Type
REMARK                         _______ _______ _______ _____ _____    ______ ____
ROOT
ATOM      1  C   UNL     1       2.236   6.262  -3.748  0.00  0.00    +0.065 A 
ATOM      2  C   UNL     1       1.164   5.686  -3.095  0.00  0.00    +0.049 A 
ATOM      3  I   UNL     1       1.323   5.079  -1.087  0.00  0.00    -0.041 I 
ATOM      4  C   UNL     1      -0.093   5.763  -3.681  0.00  0.00    +0.067 A 
ATOM      5  C   UNL     1      -0.176   5.890  -5.046  0.00  0.00    +0.040 A 
ATOM      6  I   UNL     1      -2.074   6.028  -5.965  0.00  0.00    -0.042 I 
ATOM      7  C   UNL     1       0.906   6.469  -5.685  0.00  0.00    +0.067 A 
ATOM      8  C   UNL     1       2.170   6.356  -5.122  0.00  0.00    +0.049 A 
ATOM      9  I   UNL     1       3.917   6.519  -6.302  0.00  0.00    -0.041 I 
ENDROOT
BRANCH   1  12
ATOM     10  C   UNL     1       4.089   4.238  -3.651  0.00  0.00    +0.095 C 
ATOM     11  C   UNL     1       4.455   5.365  -3.319  0.00  0.00    +0.230 C 
ATOM     12  N   UNL     1       3.501   6.411  -3.115  0.00  0.00    -0.255 N 
ATOM     13  O   UNL     1       5.664   5.714  -3.479  0.00  0.00    -0.275 OA
BRANCH  12  14
ATOM     14  C   UNL     1       3.896   7.772  -2.767  0.00  0.00    +0.134 C 
BRANCH  14  15
ATOM     15  C   UNL     1       3.307   7.876  -1.191  0.00  0.00    +0.205 C 
ATOM     16  O   UNL     1       3.714   9.370  -1.103  0.00  0.00    -0.218 OA
BRANCH  15  17
ATOM     17  C   UNL     1       4.797   7.397  -0.568  0.00  0.00    +0.217 C 
ATOM     18  O   UNL     1       4.397   6.448   0.388  0.00  0.00    -0.218 OA
ENDBRANCH  15  17
ENDBRANCH  14  15
ENDBRANCH  12  14
ENDBRANCH   1  12
BRANCH   4  19
ATOM     19  C   UNL     1      -1.273   5.755  -2.806  0.00  0.00    +0.266 C 
ATOM     20  N   UNL     1      -1.853   7.005  -2.411  0.00  0.00    -0.199 NA
ATOM     21  O   UNL     1      -2.083   4.779  -2.798  0.00  0.00    -0.268 OA
BRANCH  20  22
ATOM     22  C   UNL     1      -2.572   7.016  -1.139  0.00  0.00    +0.151 C 
BRANCH  22  23
ATOM     23  C   UNL     1      -1.233   7.194  -0.132  0.00  0.00    +0.206 C 
ATOM     24  O   UNL     1      -1.814   6.174   0.881  0.00  0.00    -0.218 OA
BRANCH  23  25
ATOM     25  C   UNL     1      -1.970   8.470   0.681  0.00  0.00    +0.217 C 
ATOM     26  O   UNL     1      -0.885   9.359   0.739  0.00  0.00    -0.218 OA
ENDBRANCH  23  25
ENDBRANCH  22  23
ENDBRANCH  20  22
ENDBRANCH   4  19
BRANCH   7  27
ATOM     27  C   UNL     1       0.874   6.567  -7.150  0.00  0.00    +0.266 C 
ATOM     28  N   UNL     1       0.753   5.434  -7.998  0.00  0.00    -0.199 NA
ATOM     29  O   UNL     1       1.289   7.625  -7.686  0.00  0.00    -0.268 OA
BRANCH  28  30
ATOM     30  C   UNL     1       1.703   5.181  -9.079  0.00  0.00    +0.151 C 
BRANCH  30  31
ATOM     31  C   UNL     1       2.408   3.885  -8.693  0.00  0.00    +0.205 C 
ATOM     32  O   UNL     1       3.743   4.030  -9.104  0.00  0.00    -0.218 OA
ENDBRANCH  30  31
ENDBRANCH  28  30
ENDBRANCH   7  27
TORSDOF 11
ENDMDL
MODEL 4
REMARK VINA RESULT:      -5.7      3.760      7.577
REMARK  Name = 
REMARK  11 active torsions:
REMARK  status: ('A' for Active; 'I' for Inactive)
REMARK    1  A    between atoms: N_4  and  C_5
REMARK    2  A    between atoms: N_4  and  C_10
REMARK    3  A    between atoms: C_5  and  C_6
REMARK    4  A    between atoms: C_6  and  C_8
REMARK    5  A    between atoms: C_13  and  C_14
REMARK    6  A    between atoms: N_16  and  C_17
REMARK    7  A    between atoms: C_17  and  C_18
REMARK    8  A    between atoms: C_22  and  C_23
REMARK    9  A    between atoms: N_25  and  C_26
REMARK   10  A    between atoms: C_26  and  C_27
REMARK   11  A    between atoms: C_27  and  C_29
REMARK                            x       y       z     vdW  Elec       q    Type
REMARK                         _______ _______ _______ _____ _____    ______ ____
ROOT
ATOM      1  C   UNL     1       2.468   8.287   0.875  0.00  0.00    +0.065 A 
ATOM      2  C   UNL     1       1.343   8.406   1.667  0.00  0.00    +0.049 A 
ATOM      3  I   UNL     1       1.387   9.539   3.439  0.00  0.00    -0.041 I 
ATOM      4  C   UNL     1       0.117   8.008   1.148  0.00  0.00    +0.067 A 
ATOM      5  C   UNL     1       0.099   7.052   0.162  0.00  0.00    +0.040 A 
ATOM      6  I   UNL     1      -1.749   6.440  -0.659  0.00  0.00    -0.042 I 
ATOM      7  C   UNL     1       1.234   6.945  -0.623  0.00  0.00    +0.067 A 
ATOM      8  C   UNL     1       2.465   7.304  -0.091  0.00  0.00    +0.049 A 
ATOM      9  I   UNL     1       4.267   6.516  -0.869  0.00  0.00    -0.041 I 
ENDROOT
BRANCH   1  12
ATOM     10  C   UNL     1       3.498  10.512  -0.362  0.00  0.00    +0.095 C 
ATOM     11  C   UNL     1       4.031  10.140   0.682  0.00  0.00    +0.230 C 
ATOM     12  N   UNL     1       3.710   8.868   1.252  0.00  0.00    -0.255 N 
ATOM     13  O   UNL     1       4.598  10.982   1.442  0.00  0.00    -0.275 OA
BRANCH  12  14
ATOM     14  C   UNL     1       4.284   8.409   2.513  0.00  0.00    +0.134 C 
BRANCH  14  15
ATOM     15  C   UNL     1       5.821   7.939   2.005  0.00  0.00    +0.205 C 
ATOM     16  O   UNL     1       5.738   6.640   2.850  0.00  0.00    -0.218 OA
BRANCH  15  17
ATOM     17  C   UNL     1       6.534   8.769   3.286  0.00  0.00    +0.217 C 
ATOM     18  O   UNL     1       7.408   9.628   2.598  0.00  0.00    -0.218 OA
ENDBRANCH  15  17
ENDBRANCH  14  15
ENDBRANCH  12  14
ENDBRANCH   1  12
BRANCH   4  19
ATOM     19  C   UNL     1      -1.098   8.666   1.647  0.00  0.00    +0.266 C 
ATOM     20  N   UNL     1      -1.513   8.426   2.998  0.00  0.00    -0.199 NA
ATOM     21  O   UNL     1      -1.493   9.773   1.169  0.00  0.00    -0.268 OA
BRANCH  20  22
ATOM     22  C   UNL     1      -2.942   8.560   3.273  0.00  0.00    +0.151 C 
BRANCH  22  23
ATOM     23  C   UNL     1      -3.422   7.061   2.670  0.00  0.00    +0.206 C 
ATOM     24  O   UNL     1      -4.598   6.992   3.678  0.00  0.00    -0.218 OA
BRANCH  23  25
ATOM     25  C   UNL     1      -2.407   6.263   3.750  0.00  0.00    +0.217 C 
ATOM     26  O   UNL     1      -2.990   4.987   3.708  0.00  0.00    -0.218 OA
ENDBRANCH  23  25
ENDBRANCH  22  23
ENDBRANCH  20  22
ENDBRANCH   4  19
BRANCH   7  27
ATOM     27  C   UNL     1       1.269   5.895  -1.648  0.00  0.00    +0.266 C 
ATOM     28  N   UNL     1       1.142   6.166  -3.036  0.00  0.00    -0.199 NA
ATOM     29  O   UNL     1       1.077   4.705  -1.290  0.00  0.00    -0.268 OA
BRANCH  28  30
ATOM     30  C   UNL     1       0.148   5.483  -3.862  0.00  0.00    +0.151 C 
BRANCH  30  31
ATOM     31  C   UNL     1       0.692   5.561  -5.285  0.00  0.00    +0.205 C 
ATOM     32  O   UNL     1       1.225   4.293  -5.568  0.00  0.00    -0.218 OA
ENDBRANCH  30  31
ENDBRANCH  28  30
ENDBRANCH   7  27
TORSDOF 11
ENDMDL
MODEL 5
REMARK VINA RESULT:      -5.6      1.673      2.073
REMARK  Name = 
REMARK  11 active torsions:
REMARK  status: ('A' for Active; 'I' for Inactive)
REMARK    1  A    between atoms: N_4  and  C_5
REMARK    2  A    between atoms: N_4  and  C_10
REMARK    3  A    between atoms: C_5  and  C_6
REMARK    4  A    between atoms: C_6  and  C_8
REMARK    5  A    between atoms: C_13  and  C_14
REMARK    6  A    between atoms: N_16  and  C_17
REMARK    7  A    between atoms: C_17  and  C_18
REMARK    8  A    between atoms: C_22  and  C_23
REMARK    9  A    between atoms: N_25  and  C_26
REMARK   10  A    between atoms: C_26  and  C_27
REMARK   11  A    between atoms: C_27  and  C_29
REMARK                            x       y       z     vdW  Elec       q    Type
REMARK                         _______ _______ _______ _____ _____    ______ ____
ROOT
ATOM      1  C   UNL     1       2.071   5.888  -2.402  0.00  0.00    +0.065 A 
ATOM      2  C   UNL     1       2.397   5.785  -3.740  0.00  0.00    +0.049 A 
ATOM      3  I   UNL     1       4.347   5.270  -4.338  0.00  0.00    -0.041 I 
ATOM      4  C   UNL     1       1.371   5.752  -4.676  0.00  0.00    +0.067 A 
ATOM      5  C   UNL     1       0.172   6.344  -4.360  0.00  0.00    +0.040 A 
ATOM      6  I   UNL     1      -1.413   6.293  -5.755  0.00  0.00    -0.042 I 
ATOM      7  C   UNL     1      -0.140   6.439  -3.015  0.00  0.00    +0.067 A 
ATOM      8  C   UNL     1       0.885   6.515  -2.082  0.00  0.00    +0.049 A 
ATOM      9  I   UNL     1       0.575   7.382  -0.178  0.00  0.00    -0.041 I 
ENDROOT
BRANCH   1  12
ATOM     10  C   UNL     1       2.344   3.539  -1.005  0.00  0.00    +0.095 C 
ATOM     11  C   UNL     1       3.230   4.385  -0.882  0.00  0.00    +0.230 C 
ATOM     12  N   UNL     1       3.046   5.712  -1.381  0.00  0.00    -0.255 N 
ATOM     13  O   UNL     1       4.420   4.027  -0.630  0.00  0.00    -0.275 OA
BRANCH  12  14
ATOM     14  C   UNL     1       4.088   6.731  -1.298  0.00  0.00    +0.134 C 
BRANCH  14  15
ATOM     15  C   UNL     1       3.849   7.296   0.272  0.00  0.00    +0.205 C 
ATOM     16  O   UNL     1       4.027   8.764  -0.195  0.00  0.00    -0.218 OA
BRANCH  15  17
ATOM     17  C   UNL     1       5.495   7.164   0.604  0.00  0.00    +0.217 C 
ATOM     18  O   UNL     1       5.625   8.053   1.685  0.00  0.00    -0.218 OA
ENDBRANCH  15  17
ENDBRANCH  14  15
ENDBRANCH  12  14
ENDBRANCH   1  12
BRANCH   4  19
ATOM     19  C   UNL     1       1.603   5.041  -5.940  0.00  0.00    +0.266 C 
ATOM     20  N   UNL     1       2.293   5.716  -6.999  0.00  0.00    -0.199 NA
ATOM     21  O   UNL     1       1.697   3.776  -5.979  0.00  0.00    -0.268 OA
BRANCH  20  22
ATOM     22  C   UNL     1       1.989   5.275  -8.359  0.00  0.00    +0.151 C 
BRANCH  22  23
ATOM     23  C   UNL     1       2.698   6.570  -9.172  0.00  0.00    +0.206 C 
ATOM     24  O   UNL     1       1.778   7.580  -8.439  0.00  0.00    -0.218 OA
BRANCH  23  25
ATOM     25  C   UNL     1       1.591   6.429 -10.433  0.00  0.00    +0.217 C 
ATOM     26  O   UNL     1       2.484   6.233 -11.498  0.00  0.00    -0.218 OA
ENDBRANCH  23  25
ENDBRANCH  22  23
ENDBRANCH  20  22
ENDBRANCH   4  19
BRANCH   7  27
ATOM     27  C   UNL     1      -1.387   7.118  -2.641  0.00  0.00    +0.266 C 
ATOM     28  N   UNL     1      -2.428   6.479  -1.916  0.00  0.00    -0.199 NA
ATOM     29  O   UNL     1      -1.695   8.176  -3.246  0.00  0.00    -0.268 OA
BRANCH  28  30
ATOM     30  C   UNL     1      -3.806   6.468  -2.404  0.00  0.00    +0.151 C 
BRANCH  30  31
ATOM     31  C   UNL     1      -3.829   5.411  -3.504  0.00  0.00    +0.205 C 
ATOM     32  O   UNL     1      -2.964   4.390  -3.081  0.00  0.00    -0.218 OA
ENDBRANCH  30  31
ENDBRANCH  28  30
ENDBRANCH   7  27
TORSDOF 11
ENDMDL
MODEL 6
REMARK VINA RESULT:      -5.6      5.370      9.815
REMARK  Name = 
REMARK  11 active torsions:
REMARK  status: ('A' for Active; 'I' for Inactive)
REMARK    1  A    between atoms: N_4  and  C_5
REMARK    2  A    between atoms: N_4  and  C_10
REMARK    3  A    between atoms: C_5  and  C_6
REMARK    4  A    between atoms: C_6  and  C_8
REMARK    5  A    between atoms: C_13  and  C_14
REMARK    6  A    between atoms: N_16  and  C_17
REMARK    7  A    between atoms: C_17  and  C_18
REMARK    8  A    between atoms: C_22  and  C_23
REMARK    9  A    between atoms: N_25  and  C_26
REMARK   10  A    between atoms: C_26  and  C_27
REMARK   11  A    between atoms: C_27  and  C_29
REMARK                            x       y       z     vdW  Elec       q    Type
REMARK                         _______ _______ _______ _____ _____    ______ ____
ROOT
ATOM      1  C   UNL     1       2.140   5.834 -12.232  0.00  0.00    +0.065 A 
ATOM      2  C   UNL     1       3.518   5.904 -12.176  0.00  0.00    +0.049 A 
ATOM      3  I   UNL     1       4.656   6.186 -13.922  0.00  0.00    -0.041 I 
ATOM      4  C   UNL     1       4.126   6.067 -10.938  0.00  0.00    +0.067 A 
ATOM      5  C   UNL     1       3.469   5.621  -9.817  0.00  0.00    +0.040 A 
ATOM      6  I   UNL     1       4.361   5.870  -7.918  0.00  0.00    -0.042 I 
ATOM      7  C   UNL     1       2.088   5.556  -9.890  0.00  0.00    +0.067 A 
ATOM      8  C   UNL     1       1.480   5.352 -11.121  0.00  0.00    +0.049 A 
ATOM      9  I   UNL     1      -0.457   4.516 -11.264  0.00  0.00    -0.041 I 
ENDROOT
BRANCH   1  12
ATOM     10  C   UNL     1       2.053   3.710 -13.971  0.00  0.00    +0.095 C 
ATOM     11  C   UNL     1       1.291   4.653 -14.181  0.00  0.00    +0.230 C 
ATOM     12  N   UNL     1       1.441   5.885 -13.470  0.00  0.00    -0.255 N 
ATOM     13  O   UNL     1       0.178   4.455 -14.757  0.00  0.00    -0.275 OA
BRANCH  12  14
ATOM     14  C   UNL     1       0.530   7.010 -13.655  0.00  0.00    +0.134 C 
BRANCH  14  15
ATOM     15  C   UNL     1       1.269   7.803 -14.945  0.00  0.00    +0.205 C 
ATOM     16  O   UNL     1       0.789   9.180 -14.416  0.00  0.00    -0.218 OA
BRANCH  15  17
ATOM     17  C   UNL     1      -0.120   7.639 -15.884  0.00  0.00    +0.217 C 
ATOM     18  O   UNL     1       0.383   6.931 -16.989  0.00  0.00    -0.218 OA
ENDBRANCH  15  17
ENDBRANCH  14  15
ENDBRANCH  12  14
ENDBRANCH   1  12
BRANCH   4  19
ATOM     19  C   UNL     1       5.424   6.752 -10.883  0.00  0.00    +0.266 C 
ATOM     20  N   UNL     1       6.614   6.010 -11.179  0.00  0.00    -0.199 NA
ATOM     21  O   UNL     1       5.522   8.000 -11.094  0.00  0.00    -0.268 OA
BRANCH  20  22
ATOM     22  C   UNL     1       7.849   6.484 -10.558  0.00  0.00    +0.151 C 
BRANCH  22  23
ATOM     23  C   UNL     1       8.910   5.977 -11.765  0.00  0.00    +0.206 C 
ATOM     24  O   UNL     1       8.181   6.847 -12.821  0.00  0.00    -0.218 OA
BRANCH  23  25
ATOM     25  C   UNL     1       7.925   4.660 -12.124  0.00  0.00    +0.217 C 
ATOM     26  O   UNL     1       7.876   4.788 -13.521  0.00  0.00    -0.218 OA
ENDBRANCH  23  25
ENDBRANCH  22  23
ENDBRANCH  20  22
ENDBRANCH   4  19
BRANCH   7  27
ATOM     27  C   UNL     1       1.358   5.029  -8.730  0.00  0.00    +0.266 C 
ATOM     28  N   UNL     1       0.466   5.816  -7.956  0.00  0.00    -0.199 NA
ATOM     29  O   UNL     1       1.767   3.964  -8.201  0.00  0.00    -0.268 OA
BRANCH  28  30
ATOM     30  C   UNL     1       0.601   5.924  -6.504  0.00  0.00    +0.151 C 
BRANCH  30  31
ATOM     31  C   UNL     1      -0.829   5.991  -5.976  0.00  0.00    +0.205 C 
ATOM     32  O   UNL     1      -1.572   5.085  -6.749  0.00  0.00    -0.218 OA
ENDBRANCH  30  31
ENDBRANCH  28  30
ENDBRANCH   7  27
TORSDOF 11
ENDMDL
MODEL 7
REMARK VINA RESULT:      -5.5      4.851      9.835
REMARK  Name = 
REMARK  11 active torsions:
REMARK  status: ('A' for Active; 'I' for Inactive)
REMARK    1  A    between atoms: N_4  and  C_5
REMARK    2  A    between atoms: N_4  and  C_10
REMARK    3  A    between atoms: C_5  and  C_6
REMARK    4  A    between atoms: C_6  and  C_8
REMARK    5  A    between atoms: C_13  and  C_14
REMARK    6  A    between atoms: N_16  and  C_17
REMARK    7  A    between atoms: C_17  and  C_18
REMARK    8  A    between atoms: C_22  and  C_23
REMARK    9  A    between atoms: N_25  and  C_26
REMARK   10  A    between atoms: C_26  and  C_27
REMARK   11  A    between atoms: C_27  and  C_29
REMARK                            x       y       z     vdW  Elec       q    Type
REMARK                         _______ _______ _______ _____ _____    ______ ____
ROOT
ATOM      1  C   UNL     1       4.753   6.175 -11.516  0.00  0.00    +0.065 A 
ATOM      2  C   UNL     1       4.287   5.526 -10.390  0.00  0.00    +0.049 A 
ATOM      3  I   UNL     1       5.552   5.177  -8.746  0.00  0.00    -0.041 I 
ATOM      4  C   UNL     1       2.917   5.354 -10.238  0.00  0.00    +0.067 A 
ATOM      5  C   UNL     1       2.130   5.313 -11.363  0.00  0.00    +0.040 A 
ATOM      6  I   UNL     1       0.041   5.071 -11.164  0.00  0.00    -0.042 I 
ATOM      7  C   UNL     1       2.611   5.968 -12.484  0.00  0.00    +0.067 A 
ATOM      8  C   UNL     1       3.981   6.104 -12.657  0.00  0.00    +0.049 A 
ATOM      9  I   UNL     1       4.822   6.385 -14.577  0.00  0.00    -0.041 I 
ENDROOT
BRANCH   1  12
ATOM     10  C   UNL     1       5.598   8.727 -10.956  0.00  0.00    +0.095 C 
ATOM     11  C   UNL     1       6.458   7.861 -11.113  0.00  0.00    +0.230 C 
ATOM     12  N   UNL     1       6.112   6.576 -11.637  0.00  0.00    -0.255 N 
ATOM     13  O   UNL     1       7.572   7.955 -10.515  0.00  0.00    -0.275 OA
BRANCH  12  14
ATOM     14  C   UNL     1       7.092   5.506 -11.795  0.00  0.00    +0.134 C 
BRANCH  14  15
ATOM     15  C   UNL     1       8.006   6.104 -13.079  0.00  0.00    +0.205 C 
ATOM     16  O   UNL     1       7.992   4.719 -13.776  0.00  0.00    -0.218 OA
BRANCH  15  17
ATOM     17  C   UNL     1       9.439   5.727 -12.277  0.00  0.00    +0.217 C 
ATOM     18  O   UNL     1       8.945   5.079 -11.133  0.00  0.00    -0.218 OA
ENDBRANCH  15  17
ENDBRANCH  14  15
ENDBRANCH  12  14
ENDBRANCH   1  12
BRANCH   4  19
ATOM     19  C   UNL     1       2.370   5.273  -8.877  0.00  0.00    +0.266 C 
ATOM     20  N   UNL     1       1.735   6.428  -8.315  0.00  0.00    -0.199 NA
ATOM     21  O   UNL     1       1.976   4.170  -8.388  0.00  0.00    -0.268 OA
BRANCH  20  22
ATOM     22  C   UNL     1       1.757   6.538  -6.857  0.00  0.00    +0.151 C 
BRANCH  22  23
ATOM     23  C   UNL     1       0.159   6.082  -6.579  0.00  0.00    +0.206 C 
ATOM     24  O   UNL     1      -0.026   7.226  -5.549  0.00  0.00    -0.218 OA
BRANCH  23  25
ATOM     25  C   UNL     1       0.638   5.021  -5.362  0.00  0.00    +0.217 C 
ATOM     26  O   UNL     1      -0.312   5.355  -4.384  0.00  0.00    -0.218 OA
ENDBRANCH  23  25
ENDBRANCH  22  23
ENDBRANCH  20  22
ENDBRANCH   4  19
BRANCH   7  27
ATOM     27  C   UNL     1       1.821   5.895 -13.720  0.00  0.00    +0.266 C 
ATOM     28  N   UNL     1       1.263   7.039 -14.349  0.00  0.00    -0.199 NA
ATOM     29  O   UNL     1       1.345   4.782 -14.058  0.00  0.00    -0.268 OA
BRANCH  28  30
ATOM     30  C   UNL     1      -0.158   7.113 -14.682  0.00  0.00    +0.151 C 
BRANCH  30  31
ATOM     31  C   UNL     1      -0.206   7.711 -16.085  0.00  0.00    +0.205 C 
ATOM     32  O   UNL     1       0.596   6.885 -16.888  0.00  0.00    -0.218 OA
ENDBRANCH  30  31
ENDBRANCH  28  30
ENDBRANCH   7  27
TORSDOF 11
ENDMDL
MODEL 8
REMARK VINA RESULT:      -5.2      2.013      6.800
REMARK  Name = 
REMARK  11 active torsions:
REMARK  status: ('A' for Active; 'I' for Inactive)
REMARK    1  A    between atoms: N_4  and  C_5
REMARK    2  A    between atoms: N_4  and  C_10
REMARK    3  A    between atoms: C_5  and  C_6
REMARK    4  A    between atoms: C_6  and  C_8
REMARK    5  A    between atoms: C_13  and  C_14
REMARK    6  A    between atoms: N_16  and  C_17
REMARK    7  A    between atoms: C_17  and  C_18
REMARK    8  A    between atoms: C_22  and  C_23
REMARK    9  A    between atoms: N_25  and  C_26
REMARK   10  A    between atoms: C_26  and  C_27
REMARK   11  A    between atoms: C_27  and  C_29
REMARK                            x       y       z     vdW  Elec       q    Type
REMARK                         _______ _______ _______ _____ _____    ______ ____
ROOT
ATOM      1  C   UNL     1       1.166   5.903  -5.909  0.00  0.00    +0.065 A 
ATOM      2  C   UNL     1       2.233   5.419  -5.178  0.00  0.00    +0.049 A 
ATOM      3  I   UNL     1       4.100   5.086  -6.086  0.00  0.00    -0.041 I 
ATOM      4  C   UNL     1       2.145   5.419  -3.791  0.00  0.00    +0.067 A 
ATOM      5  C   UNL     1       0.902   5.362  -3.210  0.00  0.00    +0.040 A 
ATOM      6  I   UNL     1       0.735   5.379  -1.104  0.00  0.00    -0.042 I 
ATOM      7  C   UNL     1      -0.157   5.850  -3.956  0.00  0.00    +0.067 A 
ATOM      8  C   UNL     1      -0.088   5.812  -5.342  0.00  0.00    +0.049 A 
ATOM      9  I   UNL     1      -1.838   5.815  -6.529  0.00  0.00    -0.041 I 
ENDROOT
BRANCH   1  12
ATOM     10  C   UNL     1       1.928   8.323  -6.959  0.00  0.00    +0.095 C 
ATOM     11  C   UNL     1       1.876   7.359  -7.722  0.00  0.00    +0.230 C 
ATOM     12  N   UNL     1       1.265   6.133  -7.309  0.00  0.00    -0.255 N 
ATOM     13  O   UNL     1       2.639   7.307  -8.734  0.00  0.00    -0.275 OA
BRANCH  12  14
ATOM     14  C   UNL     1       1.225   4.953  -8.166  0.00  0.00    +0.134 C 
BRANCH  14  15
ATOM     15  C   UNL     1       0.435   5.574  -9.519  0.00  0.00    +0.205 C 
ATOM     16  O   UNL     1      -0.323   4.237  -9.730  0.00  0.00    -0.218 OA
BRANCH  15  17
ATOM     17  C   UNL     1       1.688   5.065 -10.524  0.00  0.00    +0.217 C 
ATOM     18  O   UNL     1       1.025   4.980 -11.760  0.00  0.00    -0.218 OA
ENDBRANCH  15  17
ENDBRANCH  14  15
ENDBRANCH  12  14
ENDBRANCH   1  12
BRANCH   4  19
ATOM     19  C   UNL     1       3.386   5.529  -3.014  0.00  0.00    +0.266 C 
ATOM     20  N   UNL     1       3.585   6.680  -2.182  0.00  0.00    -0.199 NA
ATOM     21  O   UNL     1       4.025   4.498  -2.639  0.00  0.00    -0.268 OA
BRANCH  20  22
ATOM     22  C   UNL     1       4.971   7.067  -1.926  0.00  0.00    +0.151 C 
BRANCH  22  23
ATOM     23  C   UNL     1       4.756   7.616  -0.347  0.00  0.00    +0.206 C 
ATOM     24  O   UNL     1       4.085   6.280   0.064  0.00  0.00    -0.218 OA
BRANCH  23  25
ATOM     25  C   UNL     1       3.262   8.281  -0.746  0.00  0.00    +0.217 C 
ATOM     26  O   UNL     1       3.600   9.643  -0.694  0.00  0.00    -0.218 OA
ENDBRANCH  23  25
ENDBRANCH  22  23
ENDBRANCH  20  22
ENDBRANCH   4  19
BRANCH   7  27
ATOM     27  C   UNL     1      -1.507   5.751  -3.388  0.00  0.00    +0.266 C 
ATOM     28  N   UNL     1      -2.240   6.880  -2.936  0.00  0.00    -0.199 NA
ATOM     29  O   UNL     1      -1.904   4.628  -2.984  0.00  0.00    -0.268 OA
BRANCH  28  30
ATOM     30  C   UNL     1      -2.810   6.935  -1.591  0.00  0.00    +0.151 C 
BRANCH  30  31
ATOM     31  C   UNL     1      -1.868   7.833  -0.796  0.00  0.00    +0.205 C 
ATOM     32  O   UNL     1      -2.255   7.712   0.548  0.00  0.00    -0.218 OA
ENDBRANCH  30  31
ENDBRANCH  28  30
ENDBRANCH   7  27
TORSDOF 11
ENDMDL
MODEL 9
REMARK VINA RESULT:      -5.2      1.122      4.676
REMARK  Name = 
REMARK  11 active torsions:
REMARK  status: ('A' for Active; 'I' for Inactive)
REMARK    1  A    between atoms: N_4  and  C_5
REMARK    2  A    between atoms: N_4  and  C_10
REMARK    3  A    between atoms: C_5  and  C_6
REMARK    4  A    between atoms: C_6  and  C_8
REMARK    5  A    between atoms: C_13  and  C_14
REMARK    6  A    between atoms: N_16  and  C_17
REMARK    7  A    between atoms: C_17  and  C_18
REMARK    8  A    between atoms: C_22  and  C_23
REMARK    9  A    between atoms: N_25  and  C_26
REMARK   10  A    between atoms: C_26  and  C_27
REMARK   11  A    between atoms: C_27  and  C_29
REMARK                            x       y       z     vdW  Elec       q    Type
REMARK                         _______ _______ _______ _____ _____    ______ ____
ROOT
ATOM      1  C   UNL     1       2.811   7.047  -2.221  0.00  0.00    +0.065 A 
ATOM      2  C   UNL     1       1.641   6.342  -2.018  0.00  0.00    +0.049 A 
ATOM      3  I   UNL     1       0.705   6.325  -0.135  0.00  0.00    -0.041 I 
ATOM      4  C   UNL     1       0.943   5.878  -3.125  0.00  0.00    +0.067 A 
ATOM      5  C   UNL     1       1.636   5.634  -4.286  0.00  0.00    +0.040 A 
ATOM      6  I   UNL     1       0.599   4.944  -5.993  0.00  0.00    -0.042 I 
ATOM      7  C   UNL     1       2.807   6.349  -4.474  0.00  0.00    +0.067 A 
ATOM      8  C   UNL     1       3.527   6.778  -3.368  0.00  0.00    +0.049 A 
ATOM      9  I   UNL     1       5.598   7.185  -3.497  0.00  0.00    -0.041 I 
ENDROOT
BRANCH   1  12
ATOM     10  C   UNL     1       4.406   5.767  -0.388  0.00  0.00    +0.095 C 
ATOM     11  C   UNL     1       4.429   6.997  -0.406  0.00  0.00    +0.230 C 
ATOM     12  N   UNL     1       3.461   7.734  -1.158  0.00  0.00    -0.255 N 
ATOM     13  O   UNL     1       5.478   7.618  -0.056  0.00  0.00    -0.275 OA
BRANCH  12  14
ATOM     14  C   UNL     1       3.482   9.191  -1.244  0.00  0.00    +0.134 C 
BRANCH  14  15
ATOM     15  C   UNL     1       3.374   9.603   0.387  0.00  0.00    +0.205 C 
ATOM     16  O   UNL     1       1.838   9.387   0.374  0.00  0.00    -0.218 OA
BRANCH  15  17
ATOM     17  C   UNL     1       3.186  11.231  -0.003  0.00  0.00    +0.217 C 
ATOM     18  O   UNL     1       3.989  11.328  -1.151  0.00  0.00    -0.218 OA
ENDBRANCH  15  17
ENDBRANCH  14  15
ENDBRANCH  12  14
ENDBRANCH   1  12
BRANCH   4  19
ATOM     19  C   UNL     1      -0.512   5.715  -3.015  0.00  0.00    +0.266 C 
ATOM     20  N   UNL     1      -1.358   6.354  -3.980  0.00  0.00    -0.199 NA
ATOM     21  O   UNL     1      -1.023   4.687  -2.474  0.00  0.00    -0.268 OA
BRANCH  20  22
ATOM     22  C   UNL     1      -2.710   6.692  -3.539  0.00  0.00    +0.151 C 
BRANCH  22  23
ATOM     23  C   UNL     1      -3.124   7.678  -4.841  0.00  0.00    +0.206 C 
ATOM     24  O   UNL     1      -2.613   6.620  -5.852  0.00  0.00    -0.218 OA
BRANCH  23  25
ATOM     25  C   UNL     1      -1.613   8.419  -4.804  0.00  0.00    +0.217 C 
ATOM     26  O   UNL     1      -1.943   9.572  -4.073  0.00  0.00    -0.218 OA
ENDBRANCH  23  25
ENDBRANCH  22  23
ENDBRANCH  20  22
ENDBRANCH   4  19
BRANCH   7  27
ATOM     27  C   UNL     1       3.601   6.071  -5.677  0.00  0.00    +0.266 C 
ATOM     28  N   UNL     1       3.612   6.925  -6.811  0.00  0.00    -0.199 NA
ATOM     29  O   UNL     1       4.026   4.900  -5.854  0.00  0.00    -0.268 OA
BRANCH  28  30
ATOM     30  C   UNL     1       3.327   6.420  -8.153  0.00  0.00    +0.151 C 
BRANCH  30  31
ATOM     31  C   UNL     1       2.119   7.219  -8.630  0.00  0.00    +0.205 C 
ATOM     32  O   UNL     1       2.115   8.405  -7.878  0.00  0.00    -0.218 OA
ENDBRANCH  30  31
ENDBRANCH  28  30
ENDBRANCH   7  27
TORSDOF 11
ENDMDL
