MODEL 1
REMARK VINA RESULT:      -7.6      0.000      0.000
REMARK  Name = 
REMARK  3 active torsions:
REMARK  status: ('A' for Active; 'I' for Inactive)
REMARK    1  A    between atoms: C_11  and  C_12
REMARK    2  A    between atoms: C_11  and  C_17
REMARK    3  A    between atoms: C_13  and  C_14
REMARK                            x       y       z     vdW  Elec       q    Type
REMARK                         _______ _______ _______ _____ _____    ______ ____
ROOT
ATOM      1  O   UNL     1       2.259   3.320  -6.467  0.00  0.00    -0.224 OA
ATOM      2  C   UNL     1       2.432   3.988  -7.523  0.00  0.00    +0.427 C 
ATOM      3  O   UNL     1       3.067   5.216  -7.514  0.00  0.00    -0.416 OA
ATOM      4  C   UNL     1       2.723   6.277  -8.381  0.00  0.00    +0.297 C 
ATOM      5  C   UNL     1       1.601   5.925  -9.274  0.00  0.00    +0.050 A 
ATOM      6  C   UNL     1       1.471   4.613  -9.674  0.00  0.00    +0.077 A 
ATOM      7  C   UNL     1       0.744   4.306 -10.809  0.00  0.00    +0.017 A 
ATOM      8  C   UNL     1       0.124   5.312 -11.521  0.00  0.00    +0.013 A 
ATOM      9  C   UNL     1      -0.069   6.532 -10.897  0.00  0.00    +0.058 A 
ATOM     10 CL   UNL     1      -0.972   7.784 -11.702  0.00  0.00    -0.082 Cl
ATOM     11  C   UNL     1       0.749   6.843  -9.840  0.00  0.00    +0.013 A 
ATOM     12  N   UNL     1       1.841   3.580  -8.752  0.00  0.00    -0.143 NA
ENDROOT
BRANCH   4  13
ATOM     13  C   UNL     1       2.402   7.466  -7.490  0.00  0.00    +0.446 C 
ATOM     14  F   UNL     1       2.449   8.658  -8.160  0.00  0.00    -0.165 F 
ATOM     15  F   UNL     1       3.391   7.504  -6.522  0.00  0.00    -0.165 F 
ATOM     16  F   UNL     1       1.211   7.239  -6.843  0.00  0.00    -0.165 F 
ENDBRANCH   4  13
BRANCH   4  17
ATOM     17  C   UNL     1       3.928   6.602  -9.163  0.00  0.00    -0.040 C 
ATOM     18  C   UNL     1       4.863   6.820  -9.883  0.00  0.00    -0.088 C 
BRANCH  18  19
ATOM     19  C   UNL     1       5.715   6.759 -11.083  0.00  0.00    +0.064 C 
ATOM     20  C   UNL     1       7.157   7.009 -10.805  0.00  0.00    +0.014 C 
ATOM     21  C   UNL     1       6.385   8.109 -11.418  0.00  0.00    +0.014 C 
ENDBRANCH  18  19
ENDBRANCH   4  17
TORSDOF 3
ENDMDL
MODEL 2
REMARK VINA RESULT:      -7.2      3.693      6.128
REMARK  Name = 
REMARK  3 active torsions:
REMARK  status: ('A' for Active; 'I' for Inactive)
REMARK    1  A    between atoms: C_11  and  C_12
REMARK    2  A    between atoms: C_11  and  C_17
REMARK    3  A    between atoms: C_13  and  C_14
REMARK                            x       y       z     vdW  Elec       q    Type
REMARK                         _______ _______ _______ _____ _____    ______ ____
ROOT
ATOM      1  O   UNL     1       2.520   3.174  -8.729  0.00  0.00    -0.224 OA
ATOM      2  C   UNL     1       2.263   3.924  -7.747  0.00  0.00    +0.427 C 
ATOM      3  O   UNL     1       1.581   5.117  -7.899  0.00  0.00    -0.416 OA
ATOM      4  C   UNL     1       1.834   6.264  -7.114  0.00  0.00    +0.297 C 
ATOM      5  C   UNL     1       2.918   6.042  -6.137  0.00  0.00    +0.050 A 
ATOM      6  C   UNL     1       3.078   4.777  -5.614  0.00  0.00    +0.077 A 
ATOM      7  C   UNL     1       3.752   4.603  -4.421  0.00  0.00    +0.017 A 
ATOM      8  C   UNL     1       4.292   5.694  -3.771  0.00  0.00    +0.013 A 
ATOM      9  C   UNL     1       4.470   6.863  -4.491  0.00  0.00    +0.058 A 
ATOM     10 CL   UNL     1       5.278   8.219  -3.756  0.00  0.00    -0.082 Cl
ATOM     11  C   UNL     1       3.700   7.043  -5.613  0.00  0.00    +0.013 A 
ATOM     12  N   UNL     1       2.801   3.652  -6.458  0.00  0.00    -0.143 NA
ENDROOT
BRANCH   4  13
ATOM     13  C   UNL     1       2.157   7.383  -8.091  0.00  0.00    +0.446 C 
ATOM     14  F   UNL     1       1.928   8.627  -7.566  0.00  0.00    -0.165 F 
ATOM     15  F   UNL     1       1.290   7.229  -9.159  0.00  0.00    -0.165 F 
ATOM     16  F   UNL     1       3.430   7.210  -8.575  0.00  0.00    -0.165 F 
ENDBRANCH   4  13
BRANCH   4  17
ATOM     17  C   UNL     1       0.575   6.602  -6.428  0.00  0.00    -0.040 C 
ATOM     18  C   UNL     1      -0.399   6.862  -5.777  0.00  0.00    -0.088 C 
BRANCH  18  19
ATOM     19  C   UNL     1      -1.263   6.988  -4.591  0.00  0.00    +0.064 C 
ATOM     20  C   UNL     1      -2.694   7.244  -4.920  0.00  0.00    +0.014 C 
ATOM     21  C   UNL     1      -1.892   8.391  -4.449  0.00  0.00    +0.014 C 
ENDBRANCH  18  19
ENDBRANCH   4  17
TORSDOF 3
ENDMDL
MODEL 3
REMARK VINA RESULT:      -6.9      3.578      5.828
REMARK  Name = 
REMARK  3 active torsions:
REMARK  status: ('A' for Active; 'I' for Inactive)
REMARK    1  A    between atoms: C_11  and  C_12
REMARK    2  A    between atoms: C_11  and  C_17
REMARK    3  A    between atoms: C_13  and  C_14
REMARK                            x       y       z     vdW  Elec       q    Type
REMARK                         _______ _______ _______ _____ _____    ______ ____
ROOT
ATOM      1  O   UNL     1       4.604   6.747  -4.844  0.00  0.00    -0.224 OA
ATOM      2  C   UNL     1       3.501   6.961  -5.418  0.00  0.00    +0.427 C 
ATOM      3  O   UNL     1       2.302   6.536  -4.876  0.00  0.00    -0.416 OA
ATOM      4  C   UNL     1       1.205   6.106  -5.654  0.00  0.00    +0.297 C 
ATOM      5  C   UNL     1       1.498   6.144  -7.100  0.00  0.00    +0.050 A 
ATOM      6  C   UNL     1       2.360   7.114  -7.566  0.00  0.00    +0.077 A 
ATOM      7  C   UNL     1       2.337   7.474  -8.900  0.00  0.00    +0.017 A 
ATOM      8  C   UNL     1       1.472   6.840  -9.769  0.00  0.00    +0.013 A 
ATOM      9  C   UNL     1       0.924   5.630  -9.380  0.00  0.00    +0.058 A 
ATOM     10 CL   UNL     1      -0.058   4.725 -10.497  0.00  0.00    -0.082 Cl
ATOM     11  C   UNL     1       0.868   5.359  -8.036  0.00  0.00    +0.013 A 
ATOM     12  N   UNL     1       3.452   7.513  -6.729  0.00  0.00    -0.143 NA
ENDROOT
BRANCH   4  13
ATOM     13  C   UNL     1       0.866   4.704  -5.170  0.00  0.00    +0.446 C 
ATOM     14  F   UNL     1      -0.380   4.296  -5.563  0.00  0.00    -0.165 F 
ATOM     15  F   UNL     1       0.857   4.763  -3.787  0.00  0.00    -0.165 F 
ATOM     16  F   UNL     1       1.872   3.843  -5.533  0.00  0.00    -0.165 F 
ENDBRANCH   4  13
BRANCH   4  17
ATOM     17  C   UNL     1       0.073   6.990  -5.328  0.00  0.00    -0.040 C 
ATOM     18  C   UNL     1      -0.873   7.642  -4.984  0.00  0.00    -0.088 C 
BRANCH  18  19
ATOM     19  C   UNL     1      -2.106   7.997  -4.258  0.00  0.00    +0.064 C 
ATOM     20  C   UNL     1      -2.104   7.565  -2.832  0.00  0.00    +0.014 C 
ATOM     21  C   UNL     1      -2.902   6.763  -3.782  0.00  0.00    +0.014 C 
ENDBRANCH  18  19
ENDBRANCH   4  17
TORSDOF 3
ENDMDL
MODEL 4
REMARK VINA RESULT:      -6.8      6.154      8.340
REMARK  Name = 
REMARK  3 active torsions:
REMARK  status: ('A' for Active; 'I' for Inactive)
REMARK    1  A    between atoms: C_11  and  C_12
REMARK    2  A    between atoms: C_11  and  C_17
REMARK    3  A    between atoms: C_13  and  C_14
REMARK                            x       y       z     vdW  Elec       q    Type
REMARK                         _______ _______ _______ _____ _____    ______ ____
ROOT
ATOM      1  O   UNL     1       4.871   4.030  -0.737  0.00  0.00    -0.224 OA
ATOM      2  C   UNL     1       4.074   4.951  -1.069  0.00  0.00    +0.427 C 
ATOM      3  O   UNL     1       3.925   5.346  -2.385  0.00  0.00    -0.416 OA
ATOM      4  C   UNL     1       3.661   6.678  -2.773  0.00  0.00    +0.297 C 
ATOM      5  C   UNL     1       3.586   7.591  -1.615  0.00  0.00    +0.050 A 
ATOM      6  C   UNL     1       3.112   7.094  -0.420  0.00  0.00    +0.077 A 
ATOM      7  C   UNL     1       2.619   7.957   0.540  0.00  0.00    +0.017 A 
ATOM      8  C   UNL     1       2.633   9.318   0.313  0.00  0.00    +0.013 A 
ATOM      9  C   UNL     1       3.459   9.807  -0.684  0.00  0.00    +0.058 A 
ATOM     10 CL   UNL     1       3.618  11.526  -0.912  0.00  0.00    -0.082 Cl
ATOM     11  C   UNL     1       3.837   8.941  -1.680  0.00  0.00    +0.013 A 
ATOM     12  N   UNL     1       3.408   5.733  -0.084  0.00  0.00    -0.143 NA
ENDROOT
BRANCH   4  13
ATOM     13  C   UNL     1       4.766   7.065  -3.743  0.00  0.00    +0.446 C 
ATOM     14  F   UNL     1       4.356   7.978  -4.677  0.00  0.00    -0.165 F 
ATOM     15  F   UNL     1       5.104   5.909  -4.426  0.00  0.00    -0.165 F 
ATOM     16  F   UNL     1       5.875   7.456  -3.034  0.00  0.00    -0.165 F 
ENDBRANCH   4  13
BRANCH   4  17
ATOM     17  C   UNL     1       2.386   6.668  -3.510  0.00  0.00    -0.040 C 
ATOM     18  C   UNL     1       1.403   6.686  -4.198  0.00  0.00    -0.088 C 
BRANCH  18  19
ATOM     19  C   UNL     1       0.562   6.921  -5.385  0.00  0.00    +0.064 C 
ATOM     20  C   UNL     1      -0.828   7.344  -5.057  0.00  0.00    +0.014 C 
ATOM     21  C   UNL     1      -0.630   5.944  -5.484  0.00  0.00    +0.014 C 
ENDBRANCH  18  19
ENDBRANCH   4  17
TORSDOF 3
ENDMDL
MODEL 5
REMARK VINA RESULT:      -6.4      4.836      6.675
REMARK  Name = 
REMARK  3 active torsions:
REMARK  status: ('A' for Active; 'I' for Inactive)
REMARK    1  A    between atoms: C_11  and  C_12
REMARK    2  A    between atoms: C_11  and  C_17
REMARK    3  A    between atoms: C_13  and  C_14
REMARK                            x       y       z     vdW  Elec       q    Type
REMARK                         _______ _______ _______ _____ _____    ______ ____
ROOT
ATOM      1  O   UNL     1       3.638   6.379  -7.913  0.00  0.00    -0.224 OA
ATOM      2  C   UNL     1       3.142   6.754  -6.814  0.00  0.00    +0.427 C 
ATOM      3  O   UNL     1       3.792   6.544  -5.612  0.00  0.00    -0.416 OA
ATOM      4  C   UNL     1       3.118   6.277  -4.400  0.00  0.00    +0.297 C 
ATOM      5  C   UNL     1       1.653   6.228  -4.575  0.00  0.00    +0.050 A 
ATOM      6  C   UNL     1       1.083   7.031  -5.540  0.00  0.00    +0.077 A 
ATOM      7  C   UNL     1      -0.258   7.354  -5.466  0.00  0.00    +0.017 A 
ATOM      8  C   UNL     1      -1.032   6.846  -4.442  0.00  0.00    +0.013 A 
ATOM      9  C   UNL     1      -0.554   5.752  -3.741  0.00  0.00    +0.058 A 
ATOM     10 CL   UNL     1      -1.555   4.989  -2.539  0.00  0.00    -0.082 Cl
ATOM     11  C   UNL     1       0.801   5.530  -3.753  0.00  0.00    +0.013 A 
ATOM     12  N   UNL     1       1.818   7.270  -6.747  0.00  0.00    -0.143 NA
ENDROOT
BRANCH   4  13
ATOM     13  C   UNL     1       3.682   4.963  -3.882  0.00  0.00    +0.446 C 
ATOM     14  F   UNL     1       3.373   4.735  -2.568  0.00  0.00    -0.165 F 
ATOM     15  F   UNL     1       5.059   5.073  -3.962  0.00  0.00    -0.165 F 
ATOM     16  F   UNL     1       3.307   3.945  -4.724  0.00  0.00    -0.165 F 
ENDBRANCH   4  13
BRANCH   4  17
ATOM     17  C   UNL     1       3.494   7.341  -3.454  0.00  0.00    -0.040 C 
ATOM     18  C   UNL     1       3.787   8.137  -2.605  0.00  0.00    -0.088 C 
BRANCH  18  19
ATOM     19  C   UNL     1       3.969   8.702  -1.256  0.00  0.00    +0.064 C 
ATOM     20  C   UNL     1       4.326   7.685  -0.227  0.00  0.00    +0.014 C 
ATOM     21  C   UNL     1       2.934   8.178  -0.238  0.00  0.00    +0.014 C 
ENDBRANCH  18  19
ENDBRANCH   4  17
TORSDOF 3
ENDMDL
MODEL 6
REMARK VINA RESULT:      -6.4      3.610      4.827
REMARK  Name = 
REMARK  3 active torsions:
REMARK  status: ('A' for Active; 'I' for Inactive)
REMARK    1  A    between atoms: C_11  and  C_12
REMARK    2  A    between atoms: C_11  and  C_17
REMARK    3  A    between atoms: C_13  and  C_14
REMARK                            x       y       z     vdW  Elec       q    Type
REMARK                         _______ _______ _______ _____ _____    ______ ____
ROOT
ATOM      1  O   UNL     1      -1.263   5.408  -7.433  0.00  0.00    -0.224 OA
ATOM      2  C   UNL     1      -0.079   5.838  -7.358  0.00  0.00    +0.427 C 
ATOM      3  O   UNL     1       0.896   5.450  -8.260  0.00  0.00    -0.416 OA
ATOM      4  C   UNL     1       2.255   5.286  -7.914  0.00  0.00    +0.297 C 
ATOM      5  C   UNL     1       2.503   5.557  -6.484  0.00  0.00    +0.050 A 
ATOM      6  C   UNL     1       1.720   6.498  -5.851  0.00  0.00    +0.077 A 
ATOM      7  C   UNL     1       2.163   7.095  -4.687  0.00  0.00    +0.017 A 
ATOM      8  C   UNL     1       3.375   6.725  -4.143  0.00  0.00    +0.013 A 
ATOM      9  C   UNL     1       3.939   5.529  -4.553  0.00  0.00    +0.058 A 
ATOM     10 CL   UNL     1       5.394   4.951  -3.792  0.00  0.00    -0.082 Cl
ATOM     11  C   UNL     1       3.550   5.025  -5.769  0.00  0.00    +0.013 A 
ATOM     12  N   UNL     1       0.348   6.620  -6.249  0.00  0.00    -0.143 NA
ENDROOT
BRANCH   4  13
ATOM     13  C   UNL     1       2.625   3.865  -8.306  0.00  0.00    +0.446 C 
ATOM     14  F   UNL     1       3.923   3.751  -8.725  0.00  0.00    -0.165 F 
ATOM     15  F   UNL     1       1.820   3.538  -9.384  0.00  0.00    -0.165 F 
ATOM     16  F   UNL     1       2.295   3.011  -7.281  0.00  0.00    -0.165 F 
ENDBRANCH   4  13
BRANCH   4  17
ATOM     17  C   UNL     1       3.029   6.211  -8.760  0.00  0.00    -0.040 C 
ATOM     18  C   UNL     1       3.696   6.879  -9.501  0.00  0.00    -0.088 C 
BRANCH  18  19
ATOM     19  C   UNL     1       4.697   7.200 -10.534  0.00  0.00    +0.064 C 
ATOM     20  C   UNL     1       5.033   6.048 -11.417  0.00  0.00    +0.014 C 
ATOM     21  C   UNL     1       6.011   6.407 -10.370  0.00  0.00    +0.014 C 
ENDBRANCH  18  19
ENDBRANCH   4  17
TORSDOF 3
ENDMDL
MODEL 7
REMARK VINA RESULT:      -6.3      3.591      4.926
REMARK  Name = 
REMARK  3 active torsions:
REMARK  status: ('A' for Active; 'I' for Inactive)
REMARK    1  A    between atoms: C_11  and  C_12
REMARK    2  A    between atoms: C_11  and  C_17
REMARK    3  A    between atoms: C_13  and  C_14
REMARK                            x       y       z     vdW  Elec       q    Type
REMARK                         _______ _______ _______ _____ _____    ______ ____
ROOT
ATOM      1  O   UNL     1       0.558   7.487  -9.001  0.00  0.00    -0.224 OA
ATOM      2  C   UNL     1       1.722   7.201  -8.606  0.00  0.00    +0.427 C 
ATOM      3  O   UNL     1       2.443   6.158  -9.157  0.00  0.00    -0.416 OA
ATOM      4  C   UNL     1       3.340   5.356  -8.417  0.00  0.00    +0.297 C 
ATOM      5  C   UNL     1       3.398   5.750  -6.996  0.00  0.00    +0.050 A 
ATOM      6  C   UNL     1       3.207   7.077  -6.677  0.00  0.00    +0.077 A 
ATOM      7  C   UNL     1       3.665   7.571  -5.471  0.00  0.00    +0.017 A 
ATOM      8  C   UNL     1       4.284   6.726  -4.573  0.00  0.00    +0.013 A 
ATOM      9  C   UNL     1       4.108   5.362  -4.730  0.00  0.00    +0.058 A 
ATOM     10 CL   UNL     1       4.751   4.263  -3.542  0.00  0.00    -0.082 Cl
ATOM     11  C   UNL     1       3.758   4.903  -5.975  0.00  0.00    +0.013 A 
ATOM     12  N   UNL     1       2.287   7.841  -7.468  0.00  0.00    -0.143 NA
ENDROOT
BRANCH   4  13
ATOM     13  C   UNL     1       2.875   3.920  -8.600  0.00  0.00    +0.446 C 
ATOM     14  F   UNL     1       2.404   3.364  -7.441  0.00  0.00    -0.165 F 
ATOM     15  F   UNL     1       3.993   3.194  -8.974  0.00  0.00    -0.165 F 
ATOM     16  F   UNL     1       1.985   3.860  -9.645  0.00  0.00    -0.165 F 
ENDBRANCH   4  13
BRANCH   4  17
ATOM     17  C   UNL     1       4.663   5.493  -9.050  0.00  0.00    -0.040 C 
ATOM     18  C   UNL     1       5.782   5.604  -9.467  0.00  0.00    -0.088 C 
BRANCH  18  19
ATOM     19  C   UNL     1       7.241   5.810  -9.446  0.00  0.00    +0.064 C 
ATOM     20  C   UNL     1       7.702   6.904 -10.347  0.00  0.00    +0.014 C 
ATOM     21  C   UNL     1       7.912   5.515 -10.805  0.00  0.00    +0.014 C 
ENDBRANCH  18  19
ENDBRANCH   4  17
TORSDOF 3
ENDMDL
MODEL 8
REMARK VINA RESULT:      -6.2      5.859      7.652
REMARK  Name = 
REMARK  3 active torsions:
REMARK  status: ('A' for Active; 'I' for Inactive)
REMARK    1  A    between atoms: C_11  and  C_12
REMARK    2  A    between atoms: C_11  and  C_17
REMARK    3  A    between atoms: C_13  and  C_14
REMARK                            x       y       z     vdW  Elec       q    Type
REMARK                         _______ _______ _______ _____ _____    ______ ____
ROOT
ATOM      1  O   UNL     1       4.750   5.615  -5.685  0.00  0.00    -0.224 OA
ATOM      2  C   UNL     1       3.956   6.253  -4.940  0.00  0.00    +0.427 C 
ATOM      3  O   UNL     1       4.216   6.451  -3.597  0.00  0.00    -0.416 OA
ATOM      4  C   UNL     1       3.210   6.496  -2.607  0.00  0.00    +0.297 C 
ATOM      5  C   UNL     1       1.862   6.287  -3.173  0.00  0.00    +0.050 A 
ATOM      6  C   UNL     1       1.616   6.730  -4.455  0.00  0.00    +0.077 A 
ATOM      7  C   UNL     1       0.317   6.958  -4.869  0.00  0.00    +0.017 A 
ATOM      8  C   UNL     1      -0.732   6.711  -4.008  0.00  0.00    +0.013 A 
ATOM      9  C   UNL     1      -0.499   5.907  -2.906  0.00  0.00    +0.058 A 
ATOM     10 CL   UNL     1      -1.823   5.451  -1.870  0.00  0.00    -0.082 Cl
ATOM     11  C   UNL     1       0.795   5.795  -2.461  0.00  0.00    +0.013 A 
ATOM     12  N   UNL     1       2.678   6.664  -5.414  0.00  0.00    -0.143 NA
ENDROOT
BRANCH   4  13
ATOM     13  C   UNL     1       3.576   5.435  -1.581  0.00  0.00    +0.446 C 
ATOM     14  F   UNL     1       2.678   5.364  -0.550  0.00  0.00    -0.165 F 
ATOM     15  F   UNL     1       4.788   5.823  -1.038  0.00  0.00    -0.165 F 
ATOM     16  F   UNL     1       3.783   4.237  -2.220  0.00  0.00    -0.165 F 
ENDBRANCH   4  13
BRANCH   4  17
ATOM     17  C   UNL     1       3.303   7.814  -1.958  0.00  0.00    -0.040 C 
ATOM     18  C   UNL     1       3.433   8.841  -1.350  0.00  0.00    -0.088 C 
BRANCH  18  19
ATOM     19  C   UNL     1       3.775   9.743  -0.236  0.00  0.00    +0.064 C 
ATOM     20  C   UNL     1       2.599  10.464   0.329  0.00  0.00    +0.014 C 
ATOM     21  C   UNL     1       3.501  11.228  -0.557  0.00  0.00    +0.014 C 
ENDBRANCH  18  19
ENDBRANCH   4  17
TORSDOF 3
ENDMDL
MODEL 9
REMARK VINA RESULT:      -6.1      3.222      4.270
REMARK  Name = 
REMARK  3 active torsions:
REMARK  status: ('A' for Active; 'I' for Inactive)
REMARK    1  A    between atoms: C_11  and  C_12
REMARK    2  A    between atoms: C_11  and  C_17
REMARK    3  A    between atoms: C_13  and  C_14
REMARK                            x       y       z     vdW  Elec       q    Type
REMARK                         _______ _______ _______ _____ _____    ______ ____
ROOT
ATOM      1  O   UNL     1       0.184   4.640 -10.321  0.00  0.00    -0.224 OA
ATOM      2  C   UNL     1       1.053   5.419  -9.841  0.00  0.00    +0.427 C 
ATOM      3  O   UNL     1       2.380   5.356 -10.225  0.00  0.00    -0.416 OA
ATOM      4  C   UNL     1       3.457   5.625  -9.352  0.00  0.00    +0.297 C 
ATOM      5  C   UNL     1       2.999   5.956  -7.988  0.00  0.00    +0.050 A 
ATOM      6  C   UNL     1       1.791   6.605  -7.843  0.00  0.00    +0.077 A 
ATOM      7  C   UNL     1       1.519   7.308  -6.686  0.00  0.00    +0.017 A 
ATOM      8  C   UNL     1       2.446   7.334  -5.664  0.00  0.00    +0.013 A 
ATOM      9  C   UNL     1       3.444   6.375  -5.660  0.00  0.00    +0.058 A 
ATOM     10 CL   UNL     1       4.549   6.279  -4.318  0.00  0.00    -0.082 Cl
ATOM     11  C   UNL     1       3.757   5.777  -6.855  0.00  0.00    +0.013 A 
ATOM     12  N   UNL     1       0.737   6.293  -8.763  0.00  0.00    -0.143 NA
ENDROOT
BRANCH   4  13
ATOM     13  C   UNL     1       4.344   4.390  -9.380  0.00  0.00    +0.446 C 
ATOM     14  F   UNL     1       5.489   4.544  -8.646  0.00  0.00    -0.165 F 
ATOM     15  F   UNL     1       4.727   4.217 -10.698  0.00  0.00    -0.165 F 
ATOM     16  F   UNL     1       3.602   3.290  -9.025  0.00  0.00    -0.165 F 
ENDBRANCH   4  13
BRANCH   4  17
ATOM     17  C   UNL     1       4.214   6.747  -9.934  0.00  0.00    -0.040 C 
ATOM     18  C   UNL     1       4.893   7.588 -10.454  0.00  0.00    -0.088 C 
BRANCH  18  19
ATOM     19  C   UNL     1       6.021   8.175 -11.198  0.00  0.00    +0.064 C 
ATOM     20  C   UNL     1       6.669   7.225 -12.146  0.00  0.00    +0.014 C 
ATOM     21  C   UNL     1       7.373   7.501 -10.877  0.00  0.00    +0.014 C 
ENDBRANCH  18  19
ENDBRANCH   4  17
TORSDOF 3
ENDMDL
