MODEL 1
REMARK VINA RESULT:      -9.1      0.000      0.000
REMARK  Name = 
REMARK  4 active torsions:
REMARK  status: ('A' for Active; 'I' for Inactive)
REMARK    1  A    between atoms: C_2  and  C_3
REMARK    2  A    between atoms: C_2  and  C_21
REMARK    3  A    between atoms: C_5  and  C_6
REMARK    4  A    between atoms: C_16  and  C_17
REMARK                            x       y       z     vdW  Elec       q    Type
REMARK                         _______ _______ _______ _____ _____    ______ ____
ROOT
ATOM      1  C   UNL     1       3.354   5.676  -9.004  0.00  0.00    +0.012 A 
ATOM      2  C   UNL     1       4.499   5.504  -9.735  0.00  0.00    +0.016 A 
ATOM      3  C   UNL     1       5.698   5.606  -9.089  0.00  0.00    +0.001 A 
ATOM      4  C   UNL     1       6.833   6.020  -9.775  0.00  0.00    +0.000 A 
ATOM      5  C   UNL     1       6.791   6.037 -11.164  0.00  0.00    +0.005 A 
ATOM      6  C   UNL     1       5.613   5.774 -11.849  0.00  0.00    +0.089 A 
ATOM      7  C   UNL     1       4.460   5.802 -11.091  0.00  0.00    +0.085 A 
ATOM      8  N   UNL     1       3.251   6.009 -11.668  0.00  0.00    -0.241 NA
ATOM      9  C   UNL     1       2.186   6.367 -10.907  0.00  0.00    +0.152 A 
ATOM     10  C   UNL     1       2.187   6.065  -9.547  0.00  0.00    +0.021 A 
ENDROOT
BRANCH   6  11
ATOM     11  C   UNL     1       5.542   5.391 -13.265  0.00  0.00    +0.420 C 
ATOM     12  F   UNL     1       4.653   4.367 -13.518  0.00  0.00    -0.166 F 
ATOM     13  F   UNL     1       6.796   5.020 -13.719  0.00  0.00    -0.166 F 
ATOM     14  F   UNL     1       5.108   6.472 -14.013  0.00  0.00    -0.166 F 
ENDBRANCH   6  11
BRANCH   9  15
ATOM     15  C   UNL     1       0.868   6.596 -11.579  0.00  0.00    +0.435 C 
ATOM     16  F   UNL     1       0.024   7.379 -10.837  0.00  0.00    -0.164 F 
ATOM     17  F   UNL     1       0.285   5.378 -11.858  0.00  0.00    -0.164 F 
ATOM     18  F   UNL     1       1.171   7.219 -12.788  0.00  0.00    -0.164 F 
ENDBRANCH   9  15
BRANCH   1  20
ATOM     19  O   UNL     1       2.235   3.920  -8.014  0.00  0.00    -0.217 OA
ATOM     20  C   UNL     1       3.340   4.894  -7.574  0.00  0.00    +0.190 C 
BRANCH  20  21
ATOM     21  C   UNL     1       2.175   6.014  -6.894  0.00  0.00    +0.107 C 
ATOM     22  N   UNL     1       1.938   5.183  -5.580  0.00  0.00    -0.217 NA
ATOM     23  C   UNL     1       3.038   4.420  -5.243  0.00  0.00    +0.089 C 
ATOM     24  C   UNL     1       4.300   5.094  -4.849  0.00  0.00    +0.019 C 
ATOM     25  C   UNL     1       4.487   6.207  -5.837  0.00  0.00    +0.003 C 
ATOM     26  C   UNL     1       3.299   6.976  -6.178  0.00  0.00    +0.020 C 
ENDBRANCH  20  21
ENDBRANCH   1  20
TORSDOF 4
ENDMDL
MODEL 2
REMARK VINA RESULT:      -9.0      4.633      7.369
REMARK  Name = 
REMARK  4 active torsions:
REMARK  status: ('A' for Active; 'I' for Inactive)
REMARK    1  A    between atoms: C_2  and  C_3
REMARK    2  A    between atoms: C_2  and  C_21
REMARK    3  A    between atoms: C_5  and  C_6
REMARK    4  A    between atoms: C_16  and  C_17
REMARK                            x       y       z     vdW  Elec       q    Type
REMARK                         _______ _______ _______ _____ _____    ______ ____
ROOT
ATOM      1  C   UNL     1       2.305   6.444  -6.327  0.00  0.00    +0.012 A 
ATOM      2  C   UNL     1       3.100   6.263  -5.228  0.00  0.00    +0.016 A 
ATOM      3  C   UNL     1       4.262   5.562  -5.380  0.00  0.00    +0.001 A 
ATOM      4  C   UNL     1       4.801   4.853  -4.313  0.00  0.00    +0.000 A 
ATOM      5  C   UNL     1       4.310   5.112  -3.039  0.00  0.00    +0.005 A 
ATOM      6  C   UNL     1       3.225   5.956  -2.846  0.00  0.00    +0.089 A 
ATOM      7  C   UNL     1       2.496   6.263  -3.977  0.00  0.00    +0.085 A 
ATOM      8  N   UNL     1       1.209   6.680  -3.886  0.00  0.00    -0.241 NA
ATOM      9  C   UNL     1       0.407   6.656  -4.979  0.00  0.00    +0.152 A 
ATOM     10  C   UNL     1       0.982   6.674  -6.248  0.00  0.00    +0.021 A 
ENDROOT
BRANCH   6  11
ATOM     11  C   UNL     1       2.881   6.589  -1.566  0.00  0.00    +0.420 C 
ATOM     12  F   UNL     1       1.594   6.326  -1.147  0.00  0.00    -0.166 F 
ATOM     13  F   UNL     1       3.054   7.959  -1.654  0.00  0.00    -0.166 F 
ATOM     14  F   UNL     1       3.717   6.104  -0.574  0.00  0.00    -0.166 F 
ENDBRANCH   6  11
BRANCH   9  15
ATOM     15  C   UNL     1      -1.011   7.116  -4.839  0.00  0.00    +0.435 C 
ATOM     16  F   UNL     1      -1.134   8.479  -4.890  0.00  0.00    -0.164 F 
ATOM     17  F   UNL     1      -1.533   6.622  -3.663  0.00  0.00    -0.164 F 
ATOM     18  F   UNL     1      -1.698   6.526  -5.900  0.00  0.00    -0.164 F 
ENDBRANCH   9  15
BRANCH   1  20
ATOM     19  O   UNL     1       2.236   8.134  -7.893  0.00  0.00    -0.217 OA
ATOM     20  C   UNL     1       3.104   6.884  -7.677  0.00  0.00    +0.190 C 
BRANCH  20  21
ATOM     21  C   UNL     1       2.067   5.906  -8.696  0.00  0.00    +0.107 C 
ATOM     22  N   UNL     1       2.648   6.454 -10.050  0.00  0.00    -0.217 NA
ATOM     23  C   UNL     1       3.955   6.880  -9.920  0.00  0.00    +0.089 C 
ATOM     24  C   UNL     1       5.018   5.891  -9.611  0.00  0.00    +0.019 C 
ATOM     25  C   UNL     1       4.449   5.012  -8.538  0.00  0.00    +0.003 C 
ATOM     26  C   UNL     1       3.063   4.598  -8.705  0.00  0.00    +0.020 C 
ENDBRANCH  20  21
ENDBRANCH   1  20
TORSDOF 4
ENDMDL
MODEL 3
REMARK VINA RESULT:      -9.0      2.113      4.185
REMARK  Name = 
REMARK  4 active torsions:
REMARK  status: ('A' for Active; 'I' for Inactive)
REMARK    1  A    between atoms: C_2  and  C_3
REMARK    2  A    between atoms: C_2  and  C_21
REMARK    3  A    between atoms: C_5  and  C_6
REMARK    4  A    between atoms: C_16  and  C_17
REMARK                            x       y       z     vdW  Elec       q    Type
REMARK                         _______ _______ _______ _____ _____    ______ ____
ROOT
ATOM      1  C   UNL     1       2.403   6.327  -9.190  0.00  0.00    +0.012 A 
ATOM      2  C   UNL     1       1.558   6.024 -10.223  0.00  0.00    +0.016 A 
ATOM      3  C   UNL     1       0.442   5.286  -9.947  0.00  0.00    +0.001 A 
ATOM      4  C   UNL     1      -0.120   4.471 -10.922  0.00  0.00    +0.000 A 
ATOM      5  C   UNL     1       0.286   4.647 -12.240  0.00  0.00    +0.005 A 
ATOM      6  C   UNL     1       1.315   5.519 -12.562  0.00  0.00    +0.089 A 
ATOM      7  C   UNL     1       2.091   5.949 -11.504  0.00  0.00    +0.085 A 
ATOM      8  N   UNL     1       3.348   6.414 -11.703  0.00  0.00    -0.241 NA
ATOM      9  C   UNL     1       4.211   6.514 -10.661  0.00  0.00    +0.152 A 
ATOM     10  C   UNL     1       3.707   6.609  -9.366  0.00  0.00    +0.021 A 
ENDROOT
BRANCH   6  11
ATOM     11  C   UNL     1       1.557   6.062 -13.906  0.00  0.00    +0.420 C 
ATOM     12  F   UNL     1       2.811   5.775 -14.401  0.00  0.00    -0.166 F 
ATOM     13  F   UNL     1       1.377   7.434 -13.902  0.00  0.00    -0.166 F 
ATOM     14  F   UNL     1       0.654   5.504 -14.795  0.00  0.00    -0.166 F 
ENDBRANCH   6  11
BRANCH   9  15
ATOM     15  C   UNL     1       5.594   7.023 -10.920  0.00  0.00    +0.435 C 
ATOM     16  F   UNL     1       6.500   6.598  -9.984  0.00  0.00    -0.164 F 
ATOM     17  F   UNL     1       5.566   8.399 -10.982  0.00  0.00    -0.164 F 
ATOM     18  F   UNL     1       5.937   6.539 -12.182  0.00  0.00    -0.164 F 
ENDBRANCH   9  15
BRANCH   1  20
ATOM     19  O   UNL     1       2.284   8.241  -7.911  0.00  0.00    -0.217 OA
ATOM     20  C   UNL     1       1.660   6.840  -7.834  0.00  0.00    +0.190 C 
BRANCH  20  21
ATOM     21  C   UNL     1       2.956   6.245  -6.814  0.00  0.00    +0.107 C 
ATOM     22  N   UNL     1       2.369   6.844  -5.484  0.00  0.00    -0.217 NA
ATOM     23  C   UNL     1       0.995   6.972  -5.533  0.00  0.00    +0.089 C 
ATOM     24  C   UNL     1       0.152   5.753  -5.612  0.00  0.00    +0.019 C 
ATOM     25  C   UNL     1       0.818   4.868  -6.624  0.00  0.00    +0.003 C 
ATOM     26  C   UNL     1       2.269   4.775  -6.549  0.00  0.00    +0.020 C 
ENDBRANCH  20  21
ENDBRANCH   1  20
TORSDOF 4
ENDMDL
MODEL 4
REMARK VINA RESULT:      -8.9      4.796      8.246
REMARK  Name = 
REMARK  4 active torsions:
REMARK  status: ('A' for Active; 'I' for Inactive)
REMARK    1  A    between atoms: C_2  and  C_3
REMARK    2  A    between atoms: C_2  and  C_21
REMARK    3  A    between atoms: C_5  and  C_6
REMARK    4  A    between atoms: C_16  and  C_17
REMARK                            x       y       z     vdW  Elec       q    Type
REMARK                         _______ _______ _______ _____ _____    ______ ____
ROOT
ATOM      1  C   UNL     1       1.160   5.837  -6.753  0.00  0.00    +0.012 A 
ATOM      2  C   UNL     1       0.007   5.617  -6.048  0.00  0.00    +0.016 A 
ATOM      3  C   UNL     1      -1.170   5.559  -6.738  0.00  0.00    +0.001 A 
ATOM      4  C   UNL     1      -2.364   5.918  -6.125  0.00  0.00    +0.000 A 
ATOM      5  C   UNL     1      -2.379   6.044  -4.741  0.00  0.00    +0.005 A 
ATOM      6  C   UNL     1      -1.210   5.944  -4.000  0.00  0.00    +0.089 A 
ATOM      7  C   UNL     1      -0.035   6.020  -4.719  0.00  0.00    +0.085 A 
ATOM      8  N   UNL     1       1.127   6.381  -4.122  0.00  0.00    -0.241 NA
ATOM      9  C   UNL     1       2.185   6.776  -4.873  0.00  0.00    +0.152 A 
ATOM     10  C   UNL     1       2.265   6.373  -6.204  0.00  0.00    +0.021 A 
ENDROOT
BRANCH   6  11
ATOM     11  C   UNL     1      -1.161   5.677  -2.555  0.00  0.00    +0.420 C 
ATOM     12  F   UNL     1      -0.948   6.806  -1.792  0.00  0.00    -0.166 F 
ATOM     13  F   UNL     1      -0.169   4.753  -2.278  0.00  0.00    -0.166 F 
ATOM     14  F   UNL     1      -2.375   5.155  -2.143  0.00  0.00    -0.166 F 
ENDBRANCH   6  11
BRANCH   9  15
ATOM     15  C   UNL     1       3.450   7.176  -4.179  0.00  0.00    +0.435 C 
ATOM     16  F   UNL     1       3.236   8.060  -3.155  0.00  0.00    -0.164 F 
ATOM     17  F   UNL     1       4.327   7.701  -5.104  0.00  0.00    -0.164 F 
ATOM     18  F   UNL     1       3.995   5.990  -3.690  0.00  0.00    -0.164 F 
ENDBRANCH   9  15
BRANCH   1  20
ATOM     19  O   UNL     1       2.553   4.216  -7.615  0.00  0.00    -0.217 OA
ATOM     20  C   UNL     1       1.301   4.954  -8.114  0.00  0.00    +0.190 C 
BRANCH  20  21
ATOM     21  C   UNL     1       2.261   6.191  -8.901  0.00  0.00    +0.107 C 
ATOM     22  N   UNL     1       2.595   5.319 -10.167  0.00  0.00    -0.217 NA
ATOM     23  C   UNL     1       1.622   4.374 -10.419  0.00  0.00    +0.089 C 
ATOM     24  C   UNL     1       0.261   4.816 -10.814  0.00  0.00    +0.019 C 
ATOM     25  C   UNL     1      -0.076   5.952  -9.894  0.00  0.00    +0.003 C 
ATOM     26  C   UNL     1       0.984   6.917  -9.641  0.00  0.00    +0.020 C 
ENDBRANCH  20  21
ENDBRANCH   1  20
TORSDOF 4
ENDMDL
MODEL 5
REMARK VINA RESULT:      -8.7      5.785      8.688
REMARK  Name = 
REMARK  4 active torsions:
REMARK  status: ('A' for Active; 'I' for Inactive)
REMARK    1  A    between atoms: C_2  and  C_3
REMARK    2  A    between atoms: C_2  and  C_21
REMARK    3  A    between atoms: C_5  and  C_6
REMARK    4  A    between atoms: C_16  and  C_17
REMARK                            x       y       z     vdW  Elec       q    Type
REMARK                         _______ _______ _______ _____ _____    ______ ____
ROOT
ATOM      1  C   UNL     1       1.163   5.600  -5.705  0.00  0.00    +0.012 A 
ATOM      2  C   UNL     1      -0.182   5.578  -5.454  0.00  0.00    +0.016 A 
ATOM      3  C   UNL     1      -1.038   5.629  -6.518  0.00  0.00    +0.001 A 
ATOM      4  C   UNL     1      -2.306   6.179  -6.375  0.00  0.00    +0.000 A 
ATOM      5  C   UNL     1      -2.787   6.395  -5.089  0.00  0.00    +0.005 A 
ATOM      6  C   UNL     1      -1.980   6.191  -3.978  0.00  0.00    +0.089 A 
ATOM      7  C   UNL     1      -0.629   6.067  -4.233  0.00  0.00    +0.085 A 
ATOM      8  N   UNL     1       0.289   6.312  -3.266  0.00  0.00    -0.241 NA
ATOM      9  C   UNL     1       1.589   6.517  -3.596  0.00  0.00    +0.152 A 
ATOM     10  C   UNL     1       2.071   6.021  -4.806  0.00  0.00    +0.021 A 
ENDROOT
BRANCH   6  11
ATOM     11  C   UNL     1      -2.479   6.015  -2.608  0.00  0.00    +0.420 C 
ATOM     12  F   UNL     1      -1.857   4.995  -1.919  0.00  0.00    -0.166 F 
ATOM     13  F   UNL     1      -3.843   5.776  -2.629  0.00  0.00    -0.166 F 
ATOM     14  F   UNL     1      -2.247   7.170  -1.882  0.00  0.00    -0.166 F 
ENDBRANCH   6  11
BRANCH   9  15
ATOM     15  C   UNL     1       2.573   6.792  -2.503  0.00  0.00    +0.435 C 
ATOM     16  F   UNL     1       3.245   7.973  -2.680  0.00  0.00    -0.164 F 
ATOM     17  F   UNL     1       3.455   5.737  -2.411  0.00  0.00    -0.164 F 
ATOM     18  F   UNL     1       1.822   6.833  -1.329  0.00  0.00    -0.164 F 
ENDBRANCH   9  15
BRANCH   1  20
ATOM     19  O   UNL     1       2.491   3.737  -5.985  0.00  0.00    -0.217 OA
ATOM     20  C   UNL     1       1.644   4.620  -6.914  0.00  0.00    +0.190 C 
BRANCH  20  21
ATOM     21  C   UNL     1       3.012   5.646  -7.297  0.00  0.00    +0.107 C 
ATOM     22  N   UNL     1       3.587   4.697  -8.411  0.00  0.00    -0.217 NA
ATOM     23  C   UNL     1       2.601   3.934  -9.003  0.00  0.00    +0.089 C 
ATOM     24  C   UNL     1       1.548   4.601  -9.809  0.00  0.00    +0.019 C 
ATOM     25  C   UNL     1       1.131   5.801  -9.012  0.00  0.00    +0.003 C 
ATOM     26  C   UNL     1       2.200   6.569  -8.389  0.00  0.00    +0.020 C 
ENDBRANCH  20  21
ENDBRANCH   1  20
TORSDOF 4
ENDMDL
MODEL 6
REMARK VINA RESULT:      -8.6      3.110      5.513
REMARK  Name = 
REMARK  4 active torsions:
REMARK  status: ('A' for Active; 'I' for Inactive)
REMARK    1  A    between atoms: C_2  and  C_3
REMARK    2  A    between atoms: C_2  and  C_21
REMARK    3  A    between atoms: C_5  and  C_6
REMARK    4  A    between atoms: C_16  and  C_17
REMARK                            x       y       z     vdW  Elec       q    Type
REMARK                         _______ _______ _______ _____ _____    ______ ____
ROOT
ATOM      1  C   UNL     1       4.441   6.233 -10.638  0.00  0.00    +0.012 A 
ATOM      2  C   UNL     1       3.505   5.742 -11.508  0.00  0.00    +0.016 A 
ATOM      3  C   UNL     1       3.801   5.742 -12.842  0.00  0.00    +0.001 A 
ATOM      4  C   UNL     1       2.786   5.828 -13.787  0.00  0.00    +0.000 A 
ATOM      5  C   UNL     1       1.479   5.614 -13.368  0.00  0.00    +0.005 A 
ATOM      6  C   UNL     1       1.175   5.446 -12.025  0.00  0.00    +0.089 A 
ATOM      7  C   UNL     1       2.169   5.804 -11.136  0.00  0.00    +0.085 A 
ATOM      8  N   UNL     1       1.875   6.117  -9.850  0.00  0.00    -0.241 NA
ATOM      9  C   UNL     1       2.780   6.780  -9.087  0.00  0.00    +0.152 A 
ATOM     10  C   UNL     1       4.130   6.720  -9.424  0.00  0.00    +0.021 A 
ENDROOT
BRANCH   6  11
ATOM     11  C   UNL     1      -0.067   4.843 -11.521  0.00  0.00    +0.420 C 
ATOM     12  F   UNL     1       0.134   3.922 -10.515  0.00  0.00    -0.166 F 
ATOM     13  F   UNL     1      -0.752   4.235 -12.559  0.00  0.00    -0.166 F 
ATOM     14  F   UNL     1      -0.872   5.833 -10.984  0.00  0.00    -0.166 F 
ENDBRANCH   6  11
BRANCH   9  15
ATOM     15  C   UNL     1       2.418   7.116  -7.674  0.00  0.00    +0.435 C 
ATOM     16  F   UNL     1       3.496   7.080  -6.828  0.00  0.00    -0.164 F 
ATOM     17  F   UNL     1       1.430   6.257  -7.243  0.00  0.00    -0.164 F 
ATOM     18  F   UNL     1       1.883   8.402  -7.724  0.00  0.00    -0.164 F 
ENDBRANCH   9  15
BRANCH   1  20
ATOM     19  O   UNL     1       6.224   5.395  -9.442  0.00  0.00    -0.217 OA
ATOM     20  C   UNL     1       5.962   5.723 -10.920  0.00  0.00    +0.190 C 
BRANCH  20  21
ATOM     21  C   UNL     1       6.612   7.341 -10.745  0.00  0.00    +0.107 C 
ATOM     22  N   UNL     1       8.108   6.875 -10.617  0.00  0.00    -0.217 NA
ATOM     23  C   UNL     1       8.336   5.676 -11.261  0.00  0.00    +0.089 C 
ATOM     24  C   UNL     1       8.214   5.608 -12.739  0.00  0.00    +0.019 C 
ATOM     25  C   UNL     1       6.964   6.366 -13.075  0.00  0.00    +0.003 C 
ATOM     26  C   UNL     1       6.753   7.617 -12.360  0.00  0.00    +0.020 C 
ENDBRANCH  20  21
ENDBRANCH   1  20
TORSDOF 4
ENDMDL
MODEL 7
REMARK VINA RESULT:      -8.4      3.152      4.918
REMARK  Name = 
REMARK  4 active torsions:
REMARK  status: ('A' for Active; 'I' for Inactive)
REMARK    1  A    between atoms: C_2  and  C_3
REMARK    2  A    between atoms: C_2  and  C_21
REMARK    3  A    between atoms: C_5  and  C_6
REMARK    4  A    between atoms: C_16  and  C_17
REMARK                            x       y       z     vdW  Elec       q    Type
REMARK                         _______ _______ _______ _____ _____    ______ ____
ROOT
ATOM      1  C   UNL     1       1.365   5.955  -5.822  0.00  0.00    +0.012 A 
ATOM      2  C   UNL     1       1.740   5.870  -7.136  0.00  0.00    +0.016 A 
ATOM      3  C   UNL     1       3.005   6.261  -7.472  0.00  0.00    +0.001 A 
ATOM      4  C   UNL     1       3.275   6.751  -8.743  0.00  0.00    +0.000 A 
ATOM      5  C   UNL     1       2.323   6.559  -9.738  0.00  0.00    +0.005 A 
ATOM      6  C   UNL     1       1.083   6.008  -9.445  0.00  0.00    +0.089 A 
ATOM      7  C   UNL     1       0.751   5.956  -8.107  0.00  0.00    +0.085 A 
ATOM      8  N   UNL     1      -0.544   5.875  -7.712  0.00  0.00    -0.241 NA
ATOM      9  C   UNL     1      -0.884   6.160  -6.430  0.00  0.00    +0.152 A 
ATOM     10  C   UNL     1       0.083   6.064  -5.431  0.00  0.00    +0.021 A 
ENDROOT
BRANCH   6  11
ATOM     11  C   UNL     1       0.180   5.416 -10.441  0.00  0.00    +0.420 C 
ATOM     12  F   UNL     1      -0.451   4.271 -10.004  0.00  0.00    -0.166 F 
ATOM     13  F   UNL     1       0.878   5.130 -11.602  0.00  0.00    -0.166 F 
ATOM     14  F   UNL     1      -0.824   6.319 -10.745  0.00  0.00    -0.166 F 
ENDBRANCH   6  11
BRANCH   9  15
ATOM     15  C   UNL     1      -2.324   6.068  -6.031  0.00  0.00    +0.435 C 
ATOM     16  F   UNL     1      -3.114   5.538  -7.017  0.00  0.00    -0.164 F 
ATOM     17  F   UNL     1      -2.773   7.319  -5.666  0.00  0.00    -0.164 F 
ATOM     18  F   UNL     1      -2.344   5.253  -4.901  0.00  0.00    -0.164 F 
ENDBRANCH   9  15
BRANCH   1  20
ATOM     19  O   UNL     1       1.408   4.804  -3.826  0.00  0.00    -0.217 OA
ATOM     20  C   UNL     1       2.470   5.399  -4.763  0.00  0.00    +0.190 C 
BRANCH  20  21
ATOM     21  C   UNL     1       2.495   6.915  -3.884  0.00  0.00    +0.107 C 
ATOM     22  N   UNL     1       3.099   6.300  -2.569  0.00  0.00    -0.217 NA
ATOM     23  C   UNL     1       3.862   5.178  -2.822  0.00  0.00    +0.089 C 
ATOM     24  C   UNL     1       5.121   5.312  -3.597  0.00  0.00    +0.019 C 
ATOM     25  C   UNL     1       4.791   6.218  -4.746  0.00  0.00    +0.003 C 
ATOM     26  C   UNL     1       3.971   7.381  -4.439  0.00  0.00    +0.020 C 
ENDBRANCH  20  21
ENDBRANCH   1  20
TORSDOF 4
ENDMDL
MODEL 8
REMARK VINA RESULT:      -8.4      3.150      5.139
REMARK  Name = 
REMARK  4 active torsions:
REMARK  status: ('A' for Active; 'I' for Inactive)
REMARK    1  A    between atoms: C_2  and  C_3
REMARK    2  A    between atoms: C_2  and  C_21
REMARK    3  A    between atoms: C_5  and  C_6
REMARK    4  A    between atoms: C_16  and  C_17
REMARK                            x       y       z     vdW  Elec       q    Type
REMARK                         _______ _______ _______ _____ _____    ______ ____
ROOT
ATOM      1  C   UNL     1       2.983   6.042 -10.267  0.00  0.00    +0.012 A 
ATOM      2  C   UNL     1       4.151   6.061 -10.979  0.00  0.00    +0.016 A 
ATOM      3  C   UNL     1       4.091   5.827 -12.324  0.00  0.00    +0.001 A 
ATOM      4  C   UNL     1       5.175   5.267 -12.989  0.00  0.00    +0.000 A 
ATOM      5  C   UNL     1       6.400   5.229 -12.334  0.00  0.00    +0.005 A 
ATOM      6  C   UNL     1       6.515   5.621 -11.007  0.00  0.00    +0.089 A 
ATOM      7  C   UNL     1       5.329   5.746 -10.314  0.00  0.00    +0.085 A 
ATOM      8  N   UNL     1       5.301   5.675  -8.960  0.00  0.00    -0.241 NA
ATOM      9  C   UNL     1       4.128   5.463  -8.313  0.00  0.00    +0.152 A 
ATOM     10  C   UNL     1       2.931   5.787  -8.947  0.00  0.00    +0.021 A 
ENDROOT
BRANCH   6  11
ATOM     11  C   UNL     1       7.780   5.984 -10.354  0.00  0.00    +0.420 C 
ATOM     12  F   UNL     1       8.088   5.195  -9.266  0.00  0.00    -0.166 F 
ATOM     13  F   UNL     1       7.742   7.308  -9.954  0.00  0.00    -0.166 F 
ATOM     14  F   UNL     1       8.822   5.827 -11.252  0.00  0.00    -0.166 F 
ENDBRANCH   6  11
BRANCH   9  15
ATOM     15  C   UNL     1       4.137   5.382  -6.818  0.00  0.00    +0.435 C 
ATOM     16  F   UNL     1       5.338   4.954  -6.317  0.00  0.00    -0.164 F 
ATOM     17  F   UNL     1       3.113   4.558  -6.403  0.00  0.00    -0.164 F 
ATOM     18  F   UNL     1       3.859   6.675  -6.376  0.00  0.00    -0.164 F 
ENDBRANCH   9  15
BRANCH   1  20
ATOM     19  O   UNL     1       1.212   7.371  -9.626  0.00  0.00    -0.217 OA
ATOM     20  C   UNL     1       1.750   6.845 -10.965  0.00  0.00    +0.190 C 
BRANCH  20  21
ATOM     21  C   UNL     1       0.707   5.438 -10.908  0.00  0.00    +0.107 C 
ATOM     22  N   UNL     1      -0.629   6.251 -11.070  0.00  0.00    -0.217 NA
ATOM     23  C   UNL     1      -0.438   7.435 -11.753  0.00  0.00    +0.089 C 
ATOM     24  C   UNL     1      -0.034   7.395 -13.181  0.00  0.00    +0.019 C 
ATOM     25  C   UNL     1       1.035   6.347 -13.267  0.00  0.00    +0.003 C 
ATOM     26  C   UNL     1       0.802   5.120 -12.518  0.00  0.00    +0.020 C 
ENDBRANCH  20  21
ENDBRANCH   1  20
TORSDOF 4
ENDMDL
MODEL 9
REMARK VINA RESULT:      -8.4      3.146      4.270
REMARK  Name = 
REMARK  4 active torsions:
REMARK  status: ('A' for Active; 'I' for Inactive)
REMARK    1  A    between atoms: C_2  and  C_3
REMARK    2  A    between atoms: C_2  and  C_21
REMARK    3  A    between atoms: C_5  and  C_6
REMARK    4  A    between atoms: C_16  and  C_17
REMARK                            x       y       z     vdW  Elec       q    Type
REMARK                         _______ _______ _______ _____ _____    ______ ____
ROOT
ATOM      1  C   UNL     1       0.289   5.776  -7.047  0.00  0.00    +0.012 A 
ATOM      2  C   UNL     1       1.626   5.598  -6.817  0.00  0.00    +0.016 A 
ATOM      3  C   UNL     1       2.132   5.991  -5.611  0.00  0.00    +0.001 A 
ATOM      4  C   UNL     1       3.459   6.388  -5.500  0.00  0.00    +0.000 A 
ATOM      5  C   UNL     1       4.321   6.097  -6.550  0.00  0.00    +0.005 A 
ATOM      6  C   UNL     1       3.850   5.542  -7.732  0.00  0.00    +0.089 A 
ATOM      7  C   UNL     1       2.482   5.586  -7.911  0.00  0.00    +0.085 A 
ATOM      8  N   UNL     1       1.938   5.506  -9.150  0.00  0.00    -0.241 NA
ATOM      9  C   UNL     1       0.650   5.881  -9.354  0.00  0.00    +0.152 A 
ATOM     10  C   UNL     1      -0.237   5.885  -8.280  0.00  0.00    +0.021 A 
ENDROOT
BRANCH   6  11
ATOM     11  C   UNL     1       4.690   4.854  -8.721  0.00  0.00    +0.420 C 
ATOM     12  F   UNL     1       4.891   5.579  -9.877  0.00  0.00    -0.166 F 
ATOM     13  F   UNL     1       4.131   3.631  -9.048  0.00  0.00    -0.166 F 
ATOM     14  F   UNL     1       5.946   4.632  -8.182  0.00  0.00    -0.166 F 
ENDBRANCH   6  11
BRANCH   9  15
ATOM     15  C   UNL     1       0.085   5.787 -10.737  0.00  0.00    +0.435 C 
ATOM     16  F   UNL     1      -0.824   6.776 -11.006  0.00  0.00    -0.164 F 
ATOM     17  F   UNL     1      -0.481   4.542 -10.911  0.00  0.00    -0.164 F 
ATOM     18  F   UNL     1       1.181   5.889 -11.593  0.00  0.00    -0.164 F 
ENDBRANCH   9  15
BRANCH   1  20
ATOM     19  O   UNL     1      -1.730   4.708  -6.741  0.00  0.00    -0.217 OA
ATOM     20  C   UNL     1      -0.676   5.329  -5.813  0.00  0.00    +0.190 C 
BRANCH  20  21
ATOM     21  C   UNL     1      -1.499   6.877  -5.803  0.00  0.00    +0.107 C 
ATOM     22  N   UNL     1      -2.738   6.367  -4.979  0.00  0.00    -0.217 NA
ATOM     23  C   UNL     1      -2.417   5.302  -4.163  0.00  0.00    +0.089 C 
ATOM     24  C   UNL     1      -1.475   5.506  -3.034  0.00  0.00    +0.019 C 
ATOM     25  C   UNL     1      -0.356   6.336  -3.589  0.00  0.00    +0.003 C 
ATOM     26  C   UNL     1      -0.737   7.439  -4.459  0.00  0.00    +0.020 C 
ENDBRANCH  20  21
ENDBRANCH   1  20
TORSDOF 4
ENDMDL
