MODEL 1
REMARK VINA RESULT:      -7.1      0.000      0.000
REMARK  Name = 
REMARK  12 active torsions:
REMARK  status: ('A' for Active; 'I' for Inactive)
REMARK    1  A    between atoms: N_2  and  C_3
REMARK    2  A    between atoms: C_6  and  C_7
REMARK    3  A    between atoms: C_8  and  C_9
REMARK    4  A    between atoms: C_12  and  O_13
REMARK    5  A    between atoms: O_13  and  C_14
REMARK    6  A    between atoms: C_14  and  C_15
REMARK    7  A    between atoms: C_15  and  O_16
REMARK    8  A    between atoms: O_16  and  C_17
REMARK    9  A    between atoms: C_17  and  C_18
REMARK   10  A    between atoms: C_18  and  O_19
REMARK   11  A    between atoms: O_19  and  C_20
REMARK   12  A    between atoms: C_20  and  C_21
REMARK                            x       y       z     vdW  Elec       q    Type
REMARK                         _______ _______ _______ _____ _____    ______ ____
ROOT
ATOM      1  C   UNL     1       5.106   5.455  -9.230  0.00  0.00    +0.000 A 
ATOM      2  C   UNL     1       4.685   6.530 -10.002  0.00  0.00    +0.003 A 
ATOM      3  C   UNL     1       5.544   7.136 -10.886  0.00  0.00    +0.037 A 
ATOM      4  C   UNL     1       6.906   6.867 -10.861  0.00  0.00    +0.139 A 
ATOM      5  C   UNL     1       7.352   6.160  -9.751  0.00  0.00    +0.037 A 
ATOM      6  C   UNL     1       6.474   5.381  -9.008  0.00  0.00    +0.003 A 
ENDROOT
BRANCH   1   8
ATOM      7  C   UNL     1       3.306   5.770  -7.617  0.00  0.00    +0.000 C 
ATOM      8  C   UNL     1       4.131   4.953  -8.255  0.00  0.00    +0.000 C 
BRANCH   7  12
ATOM      9  C   UNL     1      -0.710   5.503  -6.685  0.00  0.00    +0.065 A 
ATOM     10  C   UNL     1       0.223   4.962  -5.809  0.00  0.00    +0.016 A 
ATOM     11  C   UNL     1       1.532   4.721  -6.210  0.00  0.00    +0.001 A 
ATOM     12  C   UNL     1       1.923   5.380  -7.369  0.00  0.00    +0.000 A 
ATOM     13  C   UNL     1       0.991   5.399  -8.391  0.00  0.00    +0.001 A 
ATOM     14  C   UNL     1      -0.345   5.467  -8.028  0.00  0.00    +0.016 A 
BRANCH   9  16
ATOM     15  C   UNL     1      -2.378   6.728  -5.310  0.00  0.00    +0.135 C 
ATOM     16  N   UNL     1      -2.062   5.683  -6.278  0.00  0.00    -0.236 NA
ENDBRANCH   9  16
ENDBRANCH   7  12
ENDBRANCH   1   8
BRANCH   4  17
ATOM     17  O   UNL     1       7.629   6.943 -12.042  0.00  0.00    -0.473 OA
BRANCH  17  18
ATOM     18  C   UNL     1       7.984   5.830 -12.825  0.00  0.00    +0.237 C 
BRANCH  18  19
ATOM     19  C   UNL     1       7.081   5.615 -14.007  0.00  0.00    +0.189 C 
BRANCH  19  20
ATOM     20  O   UNL     1       5.875   5.008 -13.674  0.00  0.00    -0.347 OA
BRANCH  20  21
ATOM     21  C   UNL     1       4.775   5.739 -14.084  0.00  0.00    +0.174 C 
BRANCH  21  22
ATOM     22  C   UNL     1       3.480   5.274 -13.486  0.00  0.00    +0.174 C 
BRANCH  22  23
ATOM     23  O   UNL     1       2.629   4.726 -14.427  0.00  0.00    -0.348 OA
BRANCH  23  24
ATOM     24  C   UNL     1       1.316   4.631 -13.997  0.00  0.00    +0.180 C 
BRANCH  24  25
ATOM     25  C   UNL     1       1.242   5.312 -12.646  0.00  0.00    +0.225 C 
ATOM     26  F   UNL     1       0.286   4.735 -11.839  0.00  0.00    -0.232 F 
ENDBRANCH  24  25
ENDBRANCH  23  24
ENDBRANCH  22  23
ENDBRANCH  21  22
ENDBRANCH  20  21
ENDBRANCH  19  20
ENDBRANCH  18  19
ENDBRANCH  17  18
ENDBRANCH   4  17
TORSDOF 12
ENDMDL
MODEL 2
REMARK VINA RESULT:      -7.0      2.685      5.242
REMARK  Name = 
REMARK  12 active torsions:
REMARK  status: ('A' for Active; 'I' for Inactive)
REMARK    1  A    between atoms: N_2  and  C_3
REMARK    2  A    between atoms: C_6  and  C_7
REMARK    3  A    between atoms: C_8  and  C_9
REMARK    4  A    between atoms: C_12  and  O_13
REMARK    5  A    between atoms: O_13  and  C_14
REMARK    6  A    between atoms: C_14  and  C_15
REMARK    7  A    between atoms: C_15  and  O_16
REMARK    8  A    between atoms: O_16  and  C_17
REMARK    9  A    between atoms: C_17  and  C_18
REMARK   10  A    between atoms: C_18  and  O_19
REMARK   11  A    between atoms: O_19  and  C_20
REMARK   12  A    between atoms: C_20  and  C_21
REMARK                            x       y       z     vdW  Elec       q    Type
REMARK                         _______ _______ _______ _____ _____    ______ ____
ROOT
ATOM      1  C   UNL     1       0.136   5.627  -7.784  0.00  0.00    +0.000 A 
ATOM      2  C   UNL     1       1.106   4.944  -7.061  0.00  0.00    +0.003 A 
ATOM      3  C   UNL     1       2.257   4.510  -7.672  0.00  0.00    +0.037 A 
ATOM      4  C   UNL     1       2.381   4.513  -9.055  0.00  0.00    +0.139 A 
ATOM      5  C   UNL     1       1.203   4.740  -9.757  0.00  0.00    +0.037 A 
ATOM      6  C   UNL     1       0.131   5.384  -9.151  0.00  0.00    +0.003 A 
ENDROOT
BRANCH   1   8
ATOM      7  C   UNL     1      -1.498   5.226  -6.020  0.00  0.00    +0.000 C 
ATOM      8  C   UNL     1      -1.090   5.956  -7.048  0.00  0.00    +0.000 C 
BRANCH   7  12
ATOM      9  C   UNL     1      -2.370   6.840  -2.319  0.00  0.00    +0.065 A 
ATOM     10  C   UNL     1      -2.947   5.629  -2.679  0.00  0.00    +0.016 A 
ATOM     11  C   UNL     1      -2.967   5.207  -4.003  0.00  0.00    +0.001 A 
ATOM     12  C   UNL     1      -2.077   5.863  -4.844  0.00  0.00    +0.000 A 
ATOM     13  C   UNL     1      -1.984   7.232  -4.666  0.00  0.00    +0.001 A 
ATOM     14  C   UNL     1      -2.131   7.714  -3.375  0.00  0.00    +0.016 A 
BRANCH   9  16
ATOM     15  C   UNL     1      -1.163   7.544  -0.263  0.00  0.00    +0.135 C 
ATOM     16  N   UNL     1      -2.415   7.287  -0.968  0.00  0.00    -0.236 NA
ENDBRANCH   9  16
ENDBRANCH   7  12
ENDBRANCH   1   8
BRANCH   4  17
ATOM     17  O   UNL     1       3.635   4.690  -9.619  0.00  0.00    -0.473 OA
BRANCH  17  18
ATOM     18  C   UNL     1       4.109   5.913 -10.126  0.00  0.00    +0.237 C 
BRANCH  18  19
ATOM     19  C   UNL     1       4.131   5.973 -11.627  0.00  0.00    +0.189 C 
BRANCH  19  20
ATOM     20  O   UNL     1       4.891   4.963 -12.206  0.00  0.00    -0.347 OA
BRANCH  20  21
ATOM     21  C   UNL     1       5.286   5.260 -13.497  0.00  0.00    +0.174 C 
BRANCH  21  22
ATOM     22  C   UNL     1       6.723   5.677 -13.612  0.00  0.00    +0.174 C 
BRANCH  22  23
ATOM     23  O   UNL     1       7.572   4.853 -12.897  0.00  0.00    -0.348 OA
BRANCH  23  24
ATOM     24  C   UNL     1       8.583   5.535 -12.242  0.00  0.00    +0.180 C 
BRANCH  24  25
ATOM     25  C   UNL     1       7.942   6.282 -11.091  0.00  0.00    +0.225 C 
ATOM     26  F   UNL     1       7.425   5.419 -10.150  0.00  0.00    -0.232 F 
ENDBRANCH  24  25
ENDBRANCH  23  24
ENDBRANCH  22  23
ENDBRANCH  21  22
ENDBRANCH  20  21
ENDBRANCH  19  20
ENDBRANCH  18  19
ENDBRANCH  17  18
ENDBRANCH   4  17
TORSDOF 12
ENDMDL
MODEL 3
REMARK VINA RESULT:      -7.0      5.169      9.512
REMARK  Name = 
REMARK  12 active torsions:
REMARK  status: ('A' for Active; 'I' for Inactive)
REMARK    1  A    between atoms: N_2  and  C_3
REMARK    2  A    between atoms: C_6  and  C_7
REMARK    3  A    between atoms: C_8  and  C_9
REMARK    4  A    between atoms: C_12  and  O_13
REMARK    5  A    between atoms: O_13  and  C_14
REMARK    6  A    between atoms: C_14  and  C_15
REMARK    7  A    between atoms: C_15  and  O_16
REMARK    8  A    between atoms: O_16  and  C_17
REMARK    9  A    between atoms: C_17  and  C_18
REMARK   10  A    between atoms: C_18  and  O_19
REMARK   11  A    between atoms: O_19  and  C_20
REMARK   12  A    between atoms: C_20  and  C_21
REMARK                            x       y       z     vdW  Elec       q    Type
REMARK                         _______ _______ _______ _____ _____    ______ ____
ROOT
ATOM      1  C   UNL     1      -0.258   5.656  -6.752  0.00  0.00    +0.000 A 
ATOM      2  C   UNL     1       0.104   6.726  -5.943  0.00  0.00    +0.003 A 
ATOM      3  C   UNL     1      -0.750   7.189  -4.972  0.00  0.00    +0.037 A 
ATOM      4  C   UNL     1      -2.077   6.780  -4.929  0.00  0.00    +0.139 A 
ATOM      5  C   UNL     1      -2.524   6.092  -6.050  0.00  0.00    +0.037 A 
ATOM      6  C   UNL     1      -1.624   5.451  -6.893  0.00  0.00    +0.003 A 
ENDROOT
BRANCH   1   8
ATOM      7  C   UNL     1       1.649   6.153  -8.185  0.00  0.00    +0.000 C 
ATOM      8  C   UNL     1       0.694   5.312  -7.814  0.00  0.00    +0.000 C 
BRANCH   7  12
ATOM      9  C   UNL     1       5.634   5.604  -9.129  0.00  0.00    +0.065 A 
ATOM     10  C   UNL     1       4.675   5.417 -10.117  0.00  0.00    +0.016 A 
ATOM     11  C   UNL     1       3.332   5.256  -9.796  0.00  0.00    +0.001 A 
ATOM     12  C   UNL     1       2.982   5.660  -8.513  0.00  0.00    +0.000 A 
ATOM     13  C   UNL     1       3.870   5.310  -7.511  0.00  0.00    +0.001 A 
ATOM     14  C   UNL     1       5.216   5.291  -7.838  0.00  0.00    +0.016 A 
BRANCH   9  16
ATOM     15  C   UNL     1       7.426   6.674 -10.479  0.00  0.00    +0.135 C 
ATOM     16  N   UNL     1       7.012   5.703  -9.471  0.00  0.00    -0.236 NA
ENDBRANCH   9  16
ENDBRANCH   7  12
ENDBRANCH   1   8
BRANCH   4  17
ATOM     17  O   UNL     1      -2.722   6.716  -3.703  0.00  0.00    -0.473 OA
BRANCH  17  18
ATOM     18  C   UNL     1      -2.854   5.542  -2.940  0.00  0.00    +0.237 C 
BRANCH  18  19
ATOM     19  C   UNL     1      -2.021   5.541  -1.690  0.00  0.00    +0.189 C 
BRANCH  19  20
ATOM     20  O   UNL     1      -0.780   4.935  -1.856  0.00  0.00    -0.347 OA
BRANCH  20  21
ATOM     21  C   UNL     1       0.227   5.571  -1.155  0.00  0.00    +0.174 C 
BRANCH  21  22
ATOM     22  C   UNL     1       1.604   5.292  -1.683  0.00  0.00    +0.174 C 
BRANCH  22  23
ATOM     23  O   UNL     1       1.682   5.426  -3.056  0.00  0.00    -0.348 OA
BRANCH  23  24
ATOM     24  C   UNL     1       2.977   5.575  -3.524  0.00  0.00    +0.180 C 
BRANCH  24  25
ATOM     25  C   UNL     1       3.214   7.060  -3.710  0.00  0.00    +0.225 C 
ATOM     26  F   UNL     1       3.173   7.417  -5.040  0.00  0.00    -0.232 F 
ENDBRANCH  24  25
ENDBRANCH  23  24
ENDBRANCH  22  23
ENDBRANCH  21  22
ENDBRANCH  20  21
ENDBRANCH  19  20
ENDBRANCH  18  19
ENDBRANCH  17  18
ENDBRANCH   4  17
TORSDOF 12
ENDMDL
MODEL 4
REMARK VINA RESULT:      -6.9      2.489      4.916
REMARK  Name = 
REMARK  12 active torsions:
REMARK  status: ('A' for Active; 'I' for Inactive)
REMARK    1  A    between atoms: N_2  and  C_3
REMARK    2  A    between atoms: C_6  and  C_7
REMARK    3  A    between atoms: C_8  and  C_9
REMARK    4  A    between atoms: C_12  and  O_13
REMARK    5  A    between atoms: O_13  and  C_14
REMARK    6  A    between atoms: C_14  and  C_15
REMARK    7  A    between atoms: C_15  and  O_16
REMARK    8  A    between atoms: O_16  and  C_17
REMARK    9  A    between atoms: C_17  and  C_18
REMARK   10  A    between atoms: C_18  and  O_19
REMARK   11  A    between atoms: O_19  and  C_20
REMARK   12  A    between atoms: C_20  and  C_21
REMARK                            x       y       z     vdW  Elec       q    Type
REMARK                         _______ _______ _______ _____ _____    ______ ____
ROOT
ATOM      1  C   UNL     1       0.302   5.498  -9.874  0.00  0.00    +0.000 A 
ATOM      2  C   UNL     1       0.284   4.535 -10.875  0.00  0.00    +0.003 A 
ATOM      3  C   UNL     1       0.600   4.867 -12.170  0.00  0.00    +0.037 A 
ATOM      4  C   UNL     1       0.702   6.194 -12.567  0.00  0.00    +0.139 A 
ATOM      5  C   UNL     1       0.227   7.126 -11.652  0.00  0.00    +0.037 A 
ATOM      6  C   UNL     1       0.128   6.807 -10.303  0.00  0.00    +0.003 A 
ENDROOT
BRANCH   1   8
ATOM      7  C   UNL     1       0.269   5.640  -7.441  0.00  0.00    +0.000 C 
ATOM      8  C   UNL     1      -0.145   5.047  -8.551  0.00  0.00    +0.000 C 
BRANCH   7  12
ATOM      9  C   UNL     1      -2.049   5.458  -4.027  0.00  0.00    +0.065 A 
ATOM     10  C   UNL     1      -2.653   5.264  -5.263  0.00  0.00    +0.016 A 
ATOM     11  C   UNL     1      -2.017   5.639  -6.441  0.00  0.00    +0.001 A 
ATOM     12  C   UNL     1      -0.649   5.853  -6.329  0.00  0.00    +0.000 A 
ATOM     13  C   UNL     1      -0.240   6.539  -5.199  0.00  0.00    +0.001 A 
ATOM     14  C   UNL     1      -0.960   6.324  -4.034  0.00  0.00    +0.016 A 
BRANCH   9  16
ATOM     15  C   UNL     1      -2.240   5.642  -1.555  0.00  0.00    +0.135 C 
ATOM     16  N   UNL     1      -2.740   5.129  -2.827  0.00  0.00    -0.236 NA
ENDBRANCH   9  16
ENDBRANCH   7  12
ENDBRANCH   1   8
BRANCH   4  17
ATOM     17  O   UNL     1       1.577   6.526 -13.590  0.00  0.00    -0.473 OA
BRANCH  17  18
ATOM     18  C   UNL     1       2.519   5.640 -14.142  0.00  0.00    +0.237 C 
BRANCH  18  19
ATOM     19  C   UNL     1       3.876   5.732 -13.503  0.00  0.00    +0.189 C 
BRANCH  19  20
ATOM     20  O   UNL     1       4.872   6.138 -14.385  0.00  0.00    -0.347 OA
BRANCH  20  21
ATOM     21  C   UNL     1       6.058   6.453 -13.748  0.00  0.00    +0.174 C 
BRANCH  21  22
ATOM     22  C   UNL     1       7.129   5.415 -13.910  0.00  0.00    +0.174 C 
BRANCH  22  23
ATOM     23  O   UNL     1       7.427   4.772 -12.723  0.00  0.00    -0.348 OA
BRANCH  23  24
ATOM     24  C   UNL     1       8.041   5.591 -11.790  0.00  0.00    +0.180 C 
BRANCH  24  25
ATOM     25  C   UNL     1       7.232   5.491 -10.512  0.00  0.00    +0.225 C 
ATOM     26  F   UNL     1       8.042   5.323  -9.411  0.00  0.00    -0.232 F 
ENDBRANCH  24  25
ENDBRANCH  23  24
ENDBRANCH  22  23
ENDBRANCH  21  22
ENDBRANCH  20  21
ENDBRANCH  19  20
ENDBRANCH  18  19
ENDBRANCH  17  18
ENDBRANCH   4  17
TORSDOF 12
ENDMDL
MODEL 5
REMARK VINA RESULT:      -6.8      5.192      9.185
REMARK  Name = 
REMARK  12 active torsions:
REMARK  status: ('A' for Active; 'I' for Inactive)
REMARK    1  A    between atoms: N_2  and  C_3
REMARK    2  A    between atoms: C_6  and  C_7
REMARK    3  A    between atoms: C_8  and  C_9
REMARK    4  A    between atoms: C_12  and  O_13
REMARK    5  A    between atoms: O_13  and  C_14
REMARK    6  A    between atoms: C_14  and  C_15
REMARK    7  A    between atoms: C_15  and  O_16
REMARK    8  A    between atoms: O_16  and  C_17
REMARK    9  A    between atoms: C_17  and  C_18
REMARK   10  A    between atoms: C_18  and  O_19
REMARK   11  A    between atoms: O_19  and  C_20
REMARK   12  A    between atoms: C_20  and  C_21
REMARK                            x       y       z     vdW  Elec       q    Type
REMARK                         _______ _______ _______ _____ _____    ______ ____
ROOT
ATOM      1  C   UNL     1       3.158   5.835  -6.594  0.00  0.00    +0.000 A 
ATOM      2  C   UNL     1       2.140   6.690  -6.997  0.00  0.00    +0.003 A 
ATOM      3  C   UNL     1       0.864   6.536  -6.512  0.00  0.00    +0.037 A 
ATOM      4  C   UNL     1       0.495   5.393  -5.814  0.00  0.00    +0.139 A 
ATOM      5  C   UNL     1       1.407   4.347  -5.862  0.00  0.00    +0.037 A 
ATOM      6  C   UNL     1       2.746   4.587  -6.148  0.00  0.00    +0.003 A 
ENDROOT
BRANCH   1   8
ATOM      7  C   UNL     1       4.992   5.107  -8.025  0.00  0.00    +0.000 C 
ATOM      8  C   UNL     1       4.455   6.039  -7.250  0.00  0.00    +0.000 C 
BRANCH   7  12
ATOM      9  C   UNL     1       6.983   5.294 -11.640  0.00  0.00    +0.065 A 
ATOM     10  C   UNL     1       7.697   5.502 -10.465  0.00  0.00    +0.016 A 
ATOM     11  C   UNL     1       7.047   5.783  -9.269  0.00  0.00    +0.001 A 
ATOM     12  C   UNL     1       5.692   5.477  -9.249  0.00  0.00    +0.000 A 
ATOM     13  C   UNL     1       4.986   5.809 -10.392  0.00  0.00    +0.001 A 
ATOM     14  C   UNL     1       5.655   5.706 -11.601  0.00  0.00    +0.016 A 
BRANCH   9  16
ATOM     15  C   UNL     1       7.068   5.549 -14.111  0.00  0.00    +0.135 C 
ATOM     16  N   UNL     1       7.667   5.071 -12.868  0.00  0.00    -0.236 NA
ENDBRANCH   9  16
ENDBRANCH   7  12
ENDBRANCH   1   8
BRANCH   4  17
ATOM     17  O   UNL     1      -0.488   5.488  -4.840  0.00  0.00    -0.473 OA
BRANCH  17  18
ATOM     18  C   UNL     1      -0.371   6.260  -3.671  0.00  0.00    +0.237 C 
BRANCH  18  19
ATOM     19  C   UNL     1      -0.628   5.484  -2.410  0.00  0.00    +0.189 C 
BRANCH  19  20
ATOM     20  O   UNL     1       0.490   4.797  -1.950  0.00  0.00    -0.347 OA
BRANCH  20  21
ATOM     21  C   UNL     1       1.587   5.618  -1.766  0.00  0.00    +0.174 C 
BRANCH  21  22
ATOM     22  C   UNL     1       2.897   4.965  -2.096  0.00  0.00    +0.174 C 
BRANCH  22  23
ATOM     23  O   UNL     1       3.703   5.763  -2.886  0.00  0.00    -0.348 OA
BRANCH  23  24
ATOM     24  C   UNL     1       3.189   7.031  -3.098  0.00  0.00    +0.180 C 
BRANCH  24  25
ATOM     25  C   UNL     1       4.369   7.968  -3.255  0.00  0.00    +0.225 C 
ATOM     26  F   UNL     1       4.829   7.990  -4.554  0.00  0.00    -0.232 F 
ENDBRANCH  24  25
ENDBRANCH  23  24
ENDBRANCH  22  23
ENDBRANCH  21  22
ENDBRANCH  20  21
ENDBRANCH  19  20
ENDBRANCH  18  19
ENDBRANCH  17  18
ENDBRANCH   4  17
TORSDOF 12
ENDMDL
MODEL 6
REMARK VINA RESULT:      -6.8      1.377      1.929
REMARK  Name = 
REMARK  12 active torsions:
REMARK  status: ('A' for Active; 'I' for Inactive)
REMARK    1  A    between atoms: N_2  and  C_3
REMARK    2  A    between atoms: C_6  and  C_7
REMARK    3  A    between atoms: C_8  and  C_9
REMARK    4  A    between atoms: C_12  and  O_13
REMARK    5  A    between atoms: O_13  and  C_14
REMARK    6  A    between atoms: C_14  and  C_15
REMARK    7  A    between atoms: C_15  and  O_16
REMARK    8  A    between atoms: O_16  and  C_17
REMARK    9  A    between atoms: C_17  and  C_18
REMARK   10  A    between atoms: C_18  and  O_19
REMARK   11  A    between atoms: O_19  and  C_20
REMARK   12  A    between atoms: C_20  and  C_21
REMARK                            x       y       z     vdW  Elec       q    Type
REMARK                         _______ _______ _______ _____ _____    ______ ____
ROOT
ATOM      1  C   UNL     1       3.461   5.483  -9.361  0.00  0.00    +0.000 A 
ATOM      2  C   UNL     1       3.889   6.584 -10.092  0.00  0.00    +0.003 A 
ATOM      3  C   UNL     1       5.220   6.756 -10.382  0.00  0.00    +0.037 A 
ATOM      4  C   UNL     1       6.196   5.991  -9.757  0.00  0.00    +0.139 A 
ATOM      5  C   UNL     1       5.760   5.243  -8.670  0.00  0.00    +0.037 A 
ATOM      6  C   UNL     1       4.418   4.908  -8.535  0.00  0.00    +0.003 A 
ENDROOT
BRANCH   1   8
ATOM      7  C   UNL     1       1.584   4.859  -7.936  0.00  0.00    +0.000 C 
ATOM      8  C   UNL     1       2.031   5.456  -9.032  0.00  0.00    +0.000 C 
BRANCH   7  12
ATOM      9  C   UNL     1      -1.424   5.805  -5.267  0.00  0.00    +0.065 A 
ATOM     10  C   UNL     1      -1.764   5.423  -6.558  0.00  0.00    +0.016 A 
ATOM     11  C   UNL     1      -0.822   5.420  -7.580  0.00  0.00    +0.001 A 
ATOM     12  C   UNL     1       0.502   5.452  -7.159  0.00  0.00    +0.000 A 
ATOM     13  C   UNL     1       0.777   6.313  -6.111  0.00  0.00    +0.001 A 
ATOM     14  C   UNL     1      -0.211   6.478  -5.154  0.00  0.00    +0.016 A 
BRANCH   9  16
ATOM     15  C   UNL     1      -2.053   5.499  -2.882  0.00  0.00    +0.135 C 
ATOM     16  N   UNL     1      -2.415   5.865  -4.247  0.00  0.00    -0.236 NA
ENDBRANCH   9  16
ENDBRANCH   7  12
ENDBRANCH   1   8
BRANCH   4  17
ATOM     17  O   UNL     1       7.369   5.707 -10.440  0.00  0.00    -0.473 OA
BRANCH  17  18
ATOM     18  C   UNL     1       7.870   6.478 -11.504  0.00  0.00    +0.237 C 
BRANCH  18  19
ATOM     19  C   UNL     1       8.232   5.666 -12.716  0.00  0.00    +0.189 C 
BRANCH  19  20
ATOM     20  O   UNL     1       7.206   4.829 -13.143  0.00  0.00    -0.347 OA
BRANCH  20  21
ATOM     21  C   UNL     1       6.182   5.512 -13.771  0.00  0.00    +0.174 C 
BRANCH  21  22
ATOM     22  C   UNL     1       4.814   4.984 -13.452  0.00  0.00    +0.174 C 
BRANCH  22  23
ATOM     23  O   UNL     1       3.811   5.877 -13.778  0.00  0.00    -0.348 OA
BRANCH  23  24
ATOM     24  C   UNL     1       2.537   5.373 -13.586  0.00  0.00    +0.180 C 
BRANCH  24  25
ATOM     25  C   UNL     1       1.616   6.558 -13.381  0.00  0.00    +0.225 C 
ATOM     26  F   UNL     1       1.179   6.642 -12.077  0.00  0.00    -0.232 F 
ENDBRANCH  24  25
ENDBRANCH  23  24
ENDBRANCH  22  23
ENDBRANCH  21  22
ENDBRANCH  20  21
ENDBRANCH  19  20
ENDBRANCH  18  19
ENDBRANCH  17  18
ENDBRANCH   4  17
TORSDOF 12
ENDMDL
MODEL 7
REMARK VINA RESULT:      -6.8      5.033      8.524
REMARK  Name = 
REMARK  12 active torsions:
REMARK  status: ('A' for Active; 'I' for Inactive)
REMARK    1  A    between atoms: N_2  and  C_3
REMARK    2  A    between atoms: C_6  and  C_7
REMARK    3  A    between atoms: C_8  and  C_9
REMARK    4  A    between atoms: C_12  and  O_13
REMARK    5  A    between atoms: O_13  and  C_14
REMARK    6  A    between atoms: C_14  and  C_15
REMARK    7  A    between atoms: C_15  and  O_16
REMARK    8  A    between atoms: O_16  and  C_17
REMARK    9  A    between atoms: C_17  and  C_18
REMARK   10  A    between atoms: C_18  and  O_19
REMARK   11  A    between atoms: O_19  and  C_20
REMARK   12  A    between atoms: C_20  and  C_21
REMARK                            x       y       z     vdW  Elec       q    Type
REMARK                         _______ _______ _______ _____ _____    ______ ____
ROOT
ATOM      1  C   UNL     1       4.019   5.685  -5.511  0.00  0.00    +0.000 A 
ATOM      2  C   UNL     1       4.293   4.850  -4.435  0.00  0.00    +0.003 A 
ATOM      3  C   UNL     1       4.197   5.316  -3.147  0.00  0.00    +0.037 A 
ATOM      4  C   UNL     1       4.070   6.674  -2.882  0.00  0.00    +0.139 A 
ATOM      5  C   UNL     1       4.296   7.514  -3.965  0.00  0.00    +0.037 A 
ATOM      6  C   UNL     1       4.169   7.043  -5.266  0.00  0.00    +0.003 A 
ENDROOT
BRANCH   1   8
ATOM      7  C   UNL     1       4.091   5.819  -7.944  0.00  0.00    +0.000 C 
ATOM      8  C   UNL     1       4.248   5.104  -6.839  0.00  0.00    +0.000 C 
BRANCH   7  12
ATOM      9  C   UNL     1       6.744   6.253 -11.080  0.00  0.00    +0.065 A 
ATOM     10  C   UNL     1       5.421   5.930 -11.356  0.00  0.00    +0.016 A 
ATOM     11  C   UNL     1       4.576   5.447 -10.363  0.00  0.00    +0.001 A 
ATOM     12  C   UNL     1       5.013   5.665  -9.062  0.00  0.00    +0.000 A 
ATOM     13  C   UNL     1       6.362   5.450  -8.839  0.00  0.00    +0.001 A 
ATOM     14  C   UNL     1       7.230   5.759  -9.874  0.00  0.00    +0.016 A 
BRANCH   9  16
ATOM     15  C   UNL     1       8.813   5.906 -12.413  0.00  0.00    +0.135 C 
ATOM     16  N   UNL     1       7.613   6.685 -12.122  0.00  0.00    -0.236 NA
ENDBRANCH   9  16
ENDBRANCH   7  12
ENDBRANCH   1   8
BRANCH   4  17
ATOM     17  O   UNL     1       3.375   7.077  -1.752  0.00  0.00    -0.473 OA
BRANCH  17  18
ATOM     18  C   UNL     1       2.372   6.316  -1.127  0.00  0.00    +0.237 C 
BRANCH  18  19
ATOM     19  C   UNL     1       1.048   6.367  -1.836  0.00  0.00    +0.189 C 
BRANCH  19  20
ATOM     20  O   UNL     1       0.658   5.139  -2.361  0.00  0.00    -0.347 OA
BRANCH  20  21
ATOM     21  C   UNL     1       0.534   5.159  -3.738  0.00  0.00    +0.174 C 
BRANCH  21  22
ATOM     22  C   UNL     1       0.537   6.538  -4.328  0.00  0.00    +0.174 C 
BRANCH  22  23
ATOM     23  O   UNL     1       0.599   6.523  -5.709  0.00  0.00    -0.348 OA
BRANCH  23  24
ATOM     24  C   UNL     1       0.376   5.273  -6.259  0.00  0.00    +0.180 C 
BRANCH  24  25
ATOM     25  C   UNL     1      -0.828   5.398  -7.170  0.00  0.00    +0.225 C 
ATOM     26  F   UNL     1      -2.003   5.142  -6.498  0.00  0.00    -0.232 F 
ENDBRANCH  24  25
ENDBRANCH  23  24
ENDBRANCH  22  23
ENDBRANCH  21  22
ENDBRANCH  20  21
ENDBRANCH  19  20
ENDBRANCH  18  19
ENDBRANCH  17  18
ENDBRANCH   4  17
TORSDOF 12
ENDMDL
MODEL 8
REMARK VINA RESULT:      -6.7      5.411      9.607
REMARK  Name = 
REMARK  12 active torsions:
REMARK  status: ('A' for Active; 'I' for Inactive)
REMARK    1  A    between atoms: N_2  and  C_3
REMARK    2  A    between atoms: C_6  and  C_7
REMARK    3  A    between atoms: C_8  and  C_9
REMARK    4  A    between atoms: C_12  and  O_13
REMARK    5  A    between atoms: O_13  and  C_14
REMARK    6  A    between atoms: C_14  and  C_15
REMARK    7  A    between atoms: C_15  and  O_16
REMARK    8  A    between atoms: O_16  and  C_17
REMARK    9  A    between atoms: C_17  and  C_18
REMARK   10  A    between atoms: C_18  and  O_19
REMARK   11  A    between atoms: O_19  and  C_20
REMARK   12  A    between atoms: C_20  and  C_21
REMARK                            x       y       z     vdW  Elec       q    Type
REMARK                         _______ _______ _______ _____ _____    ______ ____
ROOT
ATOM      1  C   UNL     1       3.206   5.679  -6.471  0.00  0.00    +0.000 A 
ATOM      2  C   UNL     1       2.290   6.720  -6.563  0.00  0.00    +0.003 A 
ATOM      3  C   UNL     1       1.019   6.579  -6.064  0.00  0.00    +0.037 A 
ATOM      4  C   UNL     1       0.531   5.335  -5.683  0.00  0.00    +0.139 A 
ATOM      5  C   UNL     1       1.306   4.249  -6.070  0.00  0.00    +0.037 A 
ATOM      6  C   UNL     1       2.655   4.409  -6.360  0.00  0.00    +0.003 A 
ENDROOT
BRANCH   1   8
ATOM      7  C   UNL     1       4.980   5.070  -8.028  0.00  0.00    +0.000 C 
ATOM      8  C   UNL     1       4.499   5.912  -7.124  0.00  0.00    +0.000 C 
BRANCH   7  12
ATOM      9  C   UNL     1       6.884   5.659 -11.646  0.00  0.00    +0.065 A 
ATOM     10  C   UNL     1       7.643   5.624 -10.483  0.00  0.00    +0.016 A 
ATOM     11  C   UNL     1       7.051   5.767  -9.233  0.00  0.00    +0.001 A 
ATOM     12  C   UNL     1       5.676   5.569  -9.207  0.00  0.00    +0.000 A 
ATOM     13  C   UNL     1       4.971   6.131 -10.257  0.00  0.00    +0.001 A 
ATOM     14  C   UNL     1       5.596   6.165 -11.493  0.00  0.00    +0.016 A 
BRANCH   9  16
ATOM     15  C   UNL     1       6.686   5.598 -14.123  0.00  0.00    +0.135 C 
ATOM     16  N   UNL     1       7.513   5.577 -12.920  0.00  0.00    -0.236 NA
ENDBRANCH   9  16
ENDBRANCH   7  12
ENDBRANCH   1   8
BRANCH   4  17
ATOM     17  O   UNL     1      -0.406   5.263  -4.664  0.00  0.00    -0.473 OA
BRANCH  17  18
ATOM     18  C   UNL     1      -1.592   6.018  -4.625  0.00  0.00    +0.237 C 
BRANCH  18  19
ATOM     19  C   UNL     1      -2.773   5.255  -4.093  0.00  0.00    +0.189 C 
BRANCH  19  20
ATOM     20  O   UNL     1      -2.639   4.898  -2.756  0.00  0.00    -0.347 OA
BRANCH  20  21
ATOM     21  C   UNL     1      -2.438   5.986  -1.927  0.00  0.00    +0.174 C 
BRANCH  21  22
ATOM     22  C   UNL     1      -1.404   5.757  -0.864  0.00  0.00    +0.174 C 
BRANCH  22  23
ATOM     23  O   UNL     1      -0.130   6.093  -1.284  0.00  0.00    -0.348 OA
BRANCH  23  24
ATOM     24  C   UNL     1       0.706   5.001  -1.442  0.00  0.00    +0.180 C 
BRANCH  24  25
ATOM     25  C   UNL     1       2.022   5.525  -1.981  0.00  0.00    +0.225 C 
ATOM     26  F   UNL     1       1.831   6.564  -2.865  0.00  0.00    -0.232 F 
ENDBRANCH  24  25
ENDBRANCH  23  24
ENDBRANCH  22  23
ENDBRANCH  21  22
ENDBRANCH  20  21
ENDBRANCH  19  20
ENDBRANCH  18  19
ENDBRANCH  17  18
ENDBRANCH   4  17
TORSDOF 12
ENDMDL
MODEL 9
REMARK VINA RESULT:      -6.7      4.397      7.804
REMARK  Name = 
REMARK  12 active torsions:
REMARK  status: ('A' for Active; 'I' for Inactive)
REMARK    1  A    between atoms: N_2  and  C_3
REMARK    2  A    between atoms: C_6  and  C_7
REMARK    3  A    between atoms: C_8  and  C_9
REMARK    4  A    between atoms: C_12  and  O_13
REMARK    5  A    between atoms: O_13  and  C_14
REMARK    6  A    between atoms: C_14  and  C_15
REMARK    7  A    between atoms: C_15  and  O_16
REMARK    8  A    between atoms: O_16  and  C_17
REMARK    9  A    between atoms: C_17  and  C_18
REMARK   10  A    between atoms: C_18  and  O_19
REMARK   11  A    between atoms: O_19  and  C_20
REMARK   12  A    between atoms: C_20  and  C_21
REMARK                            x       y       z     vdW  Elec       q    Type
REMARK                         _______ _______ _______ _____ _____    ______ ____
ROOT
ATOM      1  C   UNL     1       4.377   5.669  -5.971  0.00  0.00    +0.000 A 
ATOM      2  C   UNL     1       4.485   4.884  -4.830  0.00  0.00    +0.003 A 
ATOM      3  C   UNL     1       3.812   5.222  -3.682  0.00  0.00    +0.037 A 
ATOM      4  C   UNL     1       3.212   6.467  -3.541  0.00  0.00    +0.139 A 
ATOM      5  C   UNL     1       3.551   7.402  -4.511  0.00  0.00    +0.037 A 
ATOM      6  C   UNL     1       4.031   6.996  -5.750  0.00  0.00    +0.003 A 
ENDROOT
BRANCH   1   8
ATOM      7  C   UNL     1       4.692   4.997  -8.292  0.00  0.00    +0.000 C 
ATOM      8  C   UNL     1       5.215   5.262  -7.104  0.00  0.00    +0.000 C 
BRANCH   7  12
ATOM      9  C   UNL     1       6.740   5.312 -11.866  0.00  0.00    +0.065 A 
ATOM     10  C   UNL     1       7.395   5.633 -10.683  0.00  0.00    +0.016 A 
ATOM     11  C   UNL     1       6.687   5.871  -9.510  0.00  0.00    +0.001 A 
ATOM     12  C   UNL     1       5.376   5.411  -9.511  0.00  0.00    +0.000 A 
ATOM     13  C   UNL     1       4.666   5.629 -10.679  0.00  0.00    +0.001 A 
ATOM     14  C   UNL     1       5.373   5.571 -11.869  0.00  0.00    +0.016 A 
BRANCH   9  16
ATOM     15  C   UNL     1       6.942   5.683 -14.315  0.00  0.00    +0.135 C 
ATOM     16  N   UNL     1       7.476   5.136 -13.072  0.00  0.00    -0.236 NA
ENDBRANCH   9  16
ENDBRANCH   7  12
ENDBRANCH   1   8
BRANCH   4  17
ATOM     17  O   UNL     1       2.080   6.583  -2.749  0.00  0.00    -0.473 OA
BRANCH  17  18
ATOM     18  C   UNL     1       0.894   5.856  -2.954  0.00  0.00    +0.237 C 
BRANCH  18  19
ATOM     19  C   UNL     1       0.095   6.331  -4.135  0.00  0.00    +0.189 C 
BRANCH  19  20
ATOM     20  O   UNL     1      -0.280   5.303  -4.994  0.00  0.00    -0.347 OA
BRANCH  20  21
ATOM     21  C   UNL     1       0.780   4.804  -5.729  0.00  0.00    +0.174 C 
BRANCH  21  22
ATOM     22  C   UNL     1       0.724   5.152  -7.187  0.00  0.00    +0.174 C 
BRANCH  22  23
ATOM     23  O   UNL     1       0.966   6.492  -7.422  0.00  0.00    -0.348 OA
BRANCH  23  24
ATOM     24  C   UNL     1       1.524   6.744  -8.664  0.00  0.00    +0.180 C 
BRANCH  24  25
ATOM     25  C   UNL     1       0.822   5.840  -9.657  0.00  0.00    +0.225 C 
ATOM     26  F   UNL     1      -0.402   6.351 -10.031  0.00  0.00    -0.232 F 
ENDBRANCH  24  25
ENDBRANCH  23  24
ENDBRANCH  22  23
ENDBRANCH  21  22
ENDBRANCH  20  21
ENDBRANCH  19  20
ENDBRANCH  18  19
ENDBRANCH  17  18
ENDBRANCH   4  17
TORSDOF 12
ENDMDL
