MODEL 1
REMARK VINA RESULT:      -6.1      0.000      0.000
REMARK  Name = 
REMARK  1 active torsions:
REMARK  status: ('A' for Active; 'I' for Inactive)
REMARK    1  A    between atoms: C_3  and  C_4
REMARK                            x       y       z     vdW  Elec       q    Type
REMARK                         _______ _______ _______ _____ _____    ______ ____
ROOT
ATOM      1  C   UNL     1       2.046   3.823  -7.043  0.00  0.00    +0.020 C 
ATOM      2  C   UNL     1       2.479   5.399  -6.837  0.00  0.00    +0.089 C 
ATOM      3  N   UNL     1       3.383   5.467  -8.117  0.00  0.00    -0.268 NA
ATOM      4  C   UNL     1       3.756   4.237  -8.585  0.00  0.00    +0.090 C 
ATOM      5  C   UNL     1       2.956   6.507  -8.942  0.00  0.00    +0.105 C 
ATOM      6  C   UNL     1       2.530   7.700  -8.136  0.00  0.00    +0.160 C 
ATOM      7  O   UNL     1       1.404   7.418  -7.345  0.00  0.00    -0.349 OA
ATOM      8  C   UNL     1       1.064   5.962  -7.703  0.00  0.00    +0.152 C 
ENDROOT
BRANCH   8   9
ATOM      9  C   UNL     1       0.126   5.743  -6.381  0.00  0.00    +0.006 A 
ATOM     10  C   UNL     1       0.009   6.824  -5.546  0.00  0.00    -0.002 A 
ATOM     11  C   UNL     1      -1.056   6.778  -4.650  0.00  0.00    -0.000 A 
ATOM     12  C   UNL     1      -2.289   6.617  -5.273  0.00  0.00    -0.000 A 
ATOM     13  C   UNL     1      -2.303   5.691  -6.310  0.00  0.00    -0.000 A 
ATOM     14  C   UNL     1      -1.098   5.283  -6.875  0.00  0.00    -0.002 A 
ENDBRANCH   8   9
TORSDOF 1
ENDMDL
MODEL 2
REMARK VINA RESULT:      -5.9      1.250      2.482
REMARK  Name = 
REMARK  1 active torsions:
REMARK  status: ('A' for Active; 'I' for Inactive)
REMARK    1  A    between atoms: C_3  and  C_4
REMARK                            x       y       z     vdW  Elec       q    Type
REMARK                         _______ _______ _______ _____ _____    ______ ____
ROOT
ATOM      1  C   UNL     1       1.772   7.305  -8.088  0.00  0.00    +0.020 C 
ATOM      2  C   UNL     1       1.444   5.701  -7.906  0.00  0.00    +0.089 C 
ATOM      3  N   UNL     1       2.946   5.253  -7.848  0.00  0.00    -0.268 NA
ATOM      4  C   UNL     1       3.812   6.188  -8.347  0.00  0.00    +0.090 C 
ATOM      5  C   UNL     1       3.180   4.537  -6.674  0.00  0.00    +0.105 C 
ATOM      6  C   UNL     1       2.015   3.654  -6.335  0.00  0.00    +0.160 C 
ATOM      7  O   UNL     1       0.861   4.402  -6.045  0.00  0.00    -0.349 OA
ATOM      8  C   UNL     1       1.335   5.860  -6.165  0.00  0.00    +0.152 C 
ENDROOT
BRANCH   8   9
ATOM      9  C   UNL     1      -0.183   6.457  -6.280  0.00  0.00    +0.006 A 
ATOM     10  C   UNL     1      -1.189   5.526  -6.326  0.00  0.00    -0.002 A 
ATOM     11  C   UNL     1      -2.466   6.007  -6.047  0.00  0.00    -0.000 A 
ATOM     12  C   UNL     1      -2.555   6.634  -4.809  0.00  0.00    -0.000 A 
ATOM     13  C   UNL     1      -1.489   7.472  -4.499  0.00  0.00    -0.000 A 
ATOM     14  C   UNL     1      -0.303   7.357  -5.218  0.00  0.00    -0.002 A 
ENDBRANCH   8   9
TORSDOF 1
ENDMDL
MODEL 3
REMARK VINA RESULT:      -5.8      3.940      7.092
REMARK  Name = 
REMARK  1 active torsions:
REMARK  status: ('A' for Active; 'I' for Inactive)
REMARK    1  A    between atoms: C_3  and  C_4
REMARK                            x       y       z     vdW  Elec       q    Type
REMARK                         _______ _______ _______ _____ _____    ______ ____
ROOT
ATOM      1  C   UNL     1       2.881   6.206 -11.844  0.00  0.00    +0.020 C 
ATOM      2  C   UNL     1       3.285   6.356 -10.255  0.00  0.00    +0.089 C 
ATOM      3  N   UNL     1       2.137   5.426  -9.726  0.00  0.00    -0.268 NA
ATOM      4  C   UNL     1       1.127   5.243 -10.631  0.00  0.00    +0.090 C 
ATOM      5  C   UNL     1       2.679   4.396  -8.959  0.00  0.00    +0.105 C 
ATOM      6  C   UNL     1       3.829   4.886  -8.127  0.00  0.00    +0.160 C 
ATOM      7  O   UNL     1       4.906   5.310  -8.925  0.00  0.00    -0.349 OA
ATOM      8  C   UNL     1       4.426   5.031 -10.358  0.00  0.00    +0.152 C 
ENDROOT
BRANCH   8   9
ATOM      9  C   UNL     1       5.549   6.007 -11.038  0.00  0.00    +0.006 A 
ATOM     10  C   UNL     1       6.518   6.482 -10.193  0.00  0.00    -0.002 A 
ATOM     11  C   UNL     1       7.660   6.985 -10.809  0.00  0.00    -0.000 A 
ATOM     12  C   UNL     1       8.278   6.066 -11.651  0.00  0.00    -0.000 A 
ATOM     13  C   UNL     1       7.409   5.327 -12.448  0.00  0.00    -0.000 A 
ATOM     14  C   UNL     1       6.058   5.280 -12.119  0.00  0.00    -0.002 A 
ENDBRANCH   8   9
TORSDOF 1
ENDMDL
MODEL 4
REMARK VINA RESULT:      -5.7      3.577      7.101
REMARK  Name = 
REMARK  1 active torsions:
REMARK  status: ('A' for Active; 'I' for Inactive)
REMARK    1  A    between atoms: C_3  and  C_4
REMARK                            x       y       z     vdW  Elec       q    Type
REMARK                         _______ _______ _______ _____ _____    ______ ____
ROOT
ATOM      1  C   UNL     1       4.910   5.152  -8.045  0.00  0.00    +0.020 C 
ATOM      2  C   UNL     1       4.000   4.867  -9.388  0.00  0.00    +0.089 C 
ATOM      3  N   UNL     1       2.688   5.502  -8.808  0.00  0.00    -0.268 NA
ATOM      4  C   UNL     1       2.698   5.622  -7.445  0.00  0.00    +0.090 C 
ATOM      5  C   UNL     1       2.228   6.502  -9.664  0.00  0.00    +0.105 C 
ATOM      6  C   UNL     1       2.425   6.118 -11.102  0.00  0.00    +0.160 C 
ATOM      7  O   UNL     1       3.787   5.999 -11.428  0.00  0.00    -0.349 OA
ATOM      8  C   UNL     1       4.505   6.375 -10.122  0.00  0.00    +0.152 C 
ENDROOT
BRANCH   8   9
ATOM      9  C   UNL     1       5.926   5.712 -10.588  0.00  0.00    +0.006 A 
ATOM     10  C   UNL     1       6.023   5.375 -11.913  0.00  0.00    -0.002 A 
ATOM     11  C   UNL     1       7.315   5.171 -12.389  0.00  0.00    -0.000 A 
ATOM     12  C   UNL     1       8.150   6.265 -12.191  0.00  0.00    -0.000 A 
ATOM     13  C   UNL     1       8.030   6.875 -10.947  0.00  0.00    -0.000 A 
ATOM     14  C   UNL     1       6.906   6.616 -10.168  0.00  0.00    -0.002 A 
ENDBRANCH   8   9
TORSDOF 1
ENDMDL
MODEL 5
REMARK VINA RESULT:      -5.7      1.901      2.840
REMARK  Name = 
REMARK  1 active torsions:
REMARK  status: ('A' for Active; 'I' for Inactive)
REMARK    1  A    between atoms: C_3  and  C_4
REMARK                            x       y       z     vdW  Elec       q    Type
REMARK                         _______ _______ _______ _____ _____    ______ ____
ROOT
ATOM      1  C   UNL     1      -0.213   5.344  -7.381  0.00  0.00    +0.020 C 
ATOM      2  C   UNL     1       0.588   4.672  -6.109  0.00  0.00    +0.089 C 
ATOM      3  N   UNL     1       2.008   4.762  -6.770  0.00  0.00    -0.268 NA
ATOM      4  C   UNL     1       1.966   4.930  -8.128  0.00  0.00    +0.090 C 
ATOM      5  C   UNL     1       2.875   5.466  -5.935  0.00  0.00    +0.105 C 
ATOM      6  C   UNL     1       2.627   5.134  -4.492  0.00  0.00    +0.160 C 
ATOM      7  O   UNL     1       1.351   5.548  -4.074  0.00  0.00    -0.349 OA
ATOM      8  C   UNL     1       0.763   6.227  -5.321  0.00  0.00    +0.152 C 
ENDROOT
BRANCH   8   9
ATOM      9  C   UNL     1      -0.774   6.157  -4.767  0.00  0.00    +0.006 A 
ATOM     10  C   UNL     1      -0.941   5.562  -3.543  0.00  0.00    -0.002 A 
ATOM     11  C   UNL     1      -2.150   5.827  -2.906  0.00  0.00    -0.000 A 
ATOM     12  C   UNL     1      -2.387   7.186  -2.726  0.00  0.00    -0.000 A 
ATOM     13  C   UNL     1      -2.066   7.985  -3.819  0.00  0.00    -0.000 A 
ATOM     14  C   UNL     1      -1.240   7.474  -4.816  0.00  0.00    -0.002 A 
ENDBRANCH   8   9
TORSDOF 1
ENDMDL
MODEL 6
REMARK VINA RESULT:      -5.7      2.852      4.525
REMARK  Name = 
REMARK  1 active torsions:
REMARK  status: ('A' for Active; 'I' for Inactive)
REMARK    1  A    between atoms: C_3  and  C_4
REMARK                            x       y       z     vdW  Elec       q    Type
REMARK                         _______ _______ _______ _____ _____    ______ ____
ROOT
ATOM      1  C   UNL     1       2.449   7.614  -7.735  0.00  0.00    +0.020 C 
ATOM      2  C   UNL     1       1.757   6.421  -6.835  0.00  0.00    +0.089 C 
ATOM      3  N   UNL     1       1.613   5.409  -8.026  0.00  0.00    -0.268 NA
ATOM      4  C   UNL     1       1.699   6.002  -9.256  0.00  0.00    +0.090 C 
ATOM      5  C   UNL     1       2.245   4.208  -7.706  0.00  0.00    +0.105 C 
ATOM      6  C   UNL     1       2.041   3.856  -6.260  0.00  0.00    +0.160 C 
ATOM      7  O   UNL     1       2.649   4.792  -5.406  0.00  0.00    -0.349 OA
ATOM      8  C   UNL     1       3.321   5.782  -6.371  0.00  0.00    +0.152 C 
ENDROOT
BRANCH   8   9
ATOM      9  C   UNL     1       3.494   6.942  -5.231  0.00  0.00    +0.006 A 
ATOM     10  C   UNL     1       2.880   6.696  -4.031  0.00  0.00    -0.002 A 
ATOM     11  C   UNL     1       3.322   7.468  -2.960  0.00  0.00    -0.000 A 
ATOM     12  C   UNL     1       4.691   7.364  -2.739  0.00  0.00    -0.000 A 
ATOM     13  C   UNL     1       5.472   7.383  -3.890  0.00  0.00    -0.000 A 
ATOM     14  C   UNL     1       4.873   7.143  -5.123  0.00  0.00    -0.002 A 
ENDBRANCH   8   9
TORSDOF 1
ENDMDL
MODEL 7
REMARK VINA RESULT:      -5.6      2.503      4.127
REMARK  Name = 
REMARK  1 active torsions:
REMARK  status: ('A' for Active; 'I' for Inactive)
REMARK    1  A    between atoms: C_3  and  C_4
REMARK                            x       y       z     vdW  Elec       q    Type
REMARK                         _______ _______ _______ _____ _____    ______ ____
ROOT
ATOM      1  C   UNL     1      -0.516   5.254  -6.806  0.00  0.00    +0.020 C 
ATOM      2  C   UNL     1       0.788   6.221  -7.083  0.00  0.00    +0.089 C 
ATOM      3  N   UNL     1       1.655   5.629  -5.918  0.00  0.00    -0.268 NA
ATOM      4  C   UNL     1       0.921   4.949  -4.985  0.00  0.00    +0.090 C 
ATOM      5  C   UNL     1       2.873   5.171  -6.421  0.00  0.00    +0.105 C 
ATOM      6  C   UNL     1       3.396   6.084  -7.492  0.00  0.00    +0.160 C 
ATOM      7  O   UNL     1       2.554   6.101  -8.617  0.00  0.00    -0.349 OA
ATOM      8  C   UNL     1       1.446   5.100  -8.256  0.00  0.00    +0.152 C 
ENDROOT
BRANCH   8   9
ATOM      9  C   UNL     1       0.423   5.652  -9.408  0.00  0.00    +0.006 A 
ATOM     10  C   UNL     1       0.816   6.793 -10.058  0.00  0.00    -0.002 A 
ATOM     11  C   UNL     1       0.168   7.054 -11.261  0.00  0.00    -0.000 A 
ATOM     12  C   UNL     1       0.276   6.013 -12.177  0.00  0.00    -0.000 A 
ATOM     13  C   UNL     1       0.112   4.740 -11.640  0.00  0.00    -0.000 A 
ATOM     14  C   UNL     1       0.216   4.566 -10.263  0.00  0.00    -0.002 A 
ENDBRANCH   8   9
TORSDOF 1
ENDMDL
MODEL 8
REMARK VINA RESULT:      -5.6      2.465      4.363
REMARK  Name = 
REMARK  1 active torsions:
REMARK  status: ('A' for Active; 'I' for Inactive)
REMARK    1  A    between atoms: C_3  and  C_4
REMARK                            x       y       z     vdW  Elec       q    Type
REMARK                         _______ _______ _______ _____ _____    ______ ____
ROOT
ATOM      1  C   UNL     1       0.770   5.797  -6.948  0.00  0.00    +0.020 C 
ATOM      2  C   UNL     1       1.909   4.715  -7.440  0.00  0.00    +0.089 C 
ATOM      3  N   UNL     1       1.579   4.845  -8.969  0.00  0.00    -0.268 NA
ATOM      4  C   UNL     1       0.350   5.394  -9.214  0.00  0.00    +0.090 C 
ATOM      5  C   UNL     1       2.731   5.192  -9.674  0.00  0.00    +0.105 C 
ATOM      6  C   UNL     1       3.938   4.492  -9.121  0.00  0.00    +0.160 C 
ATOM      7  O   UNL     1       4.217   4.896  -7.804  0.00  0.00    -0.349 OA
ATOM      8  C   UNL     1       3.143   5.957  -7.515  0.00  0.00    +0.152 C 
ENDROOT
BRANCH   8   9
ATOM      9  C   UNL     1       3.358   5.888  -5.895  0.00  0.00    +0.006 A 
ATOM     10  C   UNL     1       4.336   5.033  -5.458  0.00  0.00    -0.002 A 
ATOM     11  C   UNL     1       4.777   5.240  -4.154  0.00  0.00    -0.000 A 
ATOM     12  C   UNL     1       5.246   6.530  -3.934  0.00  0.00    -0.000 A 
ATOM     13  C   UNL     1       4.473   7.538  -4.502  0.00  0.00    -0.000 A 
ATOM     14  C   UNL     1       3.556   7.214  -5.497  0.00  0.00    -0.002 A 
ENDBRANCH   8   9
TORSDOF 1
ENDMDL
MODEL 9
REMARK VINA RESULT:      -5.6      3.116      4.945
REMARK  Name = 
REMARK  1 active torsions:
REMARK  status: ('A' for Active; 'I' for Inactive)
REMARK    1  A    between atoms: C_3  and  C_4
REMARK                            x       y       z     vdW  Elec       q    Type
REMARK                         _______ _______ _______ _____ _____    ______ ____
ROOT
ATOM      1  C   UNL     1       6.830   5.875  -9.801  0.00  0.00    +0.020 C 
ATOM      2  C   UNL     1       5.700   6.564 -10.781  0.00  0.00    +0.089 C 
ATOM      3  N   UNL     1       6.144   5.793 -12.074  0.00  0.00    -0.268 NA
ATOM      4  C   UNL     1       7.402   5.263 -11.985  0.00  0.00    +0.090 C 
ATOM      5  C   UNL     1       5.056   5.107 -12.612  0.00  0.00    +0.105 C 
ATOM      6  C   UNL     1       3.794   5.910 -12.491  0.00  0.00    +0.160 C 
ATOM      7  O   UNL     1       3.431   6.111 -11.149  0.00  0.00    -0.349 OA
ATOM      8  C   UNL     1       4.510   5.348 -10.363  0.00  0.00    +0.152 C 
ENDROOT
BRANCH   8   9
ATOM      9  C   UNL     1       4.176   6.110  -8.955  0.00  0.00    +0.006 A 
ATOM     10  C   UNL     1       3.140   7.007  -8.992  0.00  0.00    -0.002 A 
ATOM     11  C   UNL     1       2.613   7.368  -7.755  0.00  0.00    -0.000 A 
ATOM     12  C   UNL     1       2.176   6.280  -7.008  0.00  0.00    -0.000 A 
ATOM     13  C   UNL     1       3.023   5.176  -7.030  0.00  0.00    -0.000 A 
ATOM     14  C   UNL     1       3.997   5.087  -8.020  0.00  0.00    -0.002 A 
ENDBRANCH   8   9
TORSDOF 1
ENDMDL
