MODEL 1
REMARK VINA RESULT:      -9.1      0.000      0.000
REMARK  Name = 
REMARK  2 active torsions:
REMARK  status: ('A' for Active; 'I' for Inactive)
REMARK    1  A    between atoms: C_26  and  C_27
REMARK    2  A    between atoms: C_27  and  C_29
REMARK                            x       y       z     vdW  Elec       q    Type
REMARK                         _______ _______ _______ _____ _____    ______ ____
ROOT
ATOM      1  C   UNL     1       1.435   5.965  -2.100  0.00  0.00    +0.061 C 
ATOM      2  C   UNL     1       1.811   6.475  -3.362  0.00  0.00    +0.188 C 
ATOM      3  O   UNL     1       0.753   7.112  -3.997  0.00  0.00    -0.330 OA
ATOM      4  C   UNL     1       0.331   6.331  -5.026  0.00  0.00    +0.172 C 
ATOM      5  C   UNL     1       0.795   4.876  -4.417  0.00  0.00    +0.149 C 
ATOM      6  C   UNL     1       1.119   4.234  -5.909  0.00  0.00    +0.033 C 
ATOM      7  C   UNL     1       2.177   5.387  -6.287  0.00  0.00    +0.008 C 
ATOM      8  C   UNL     1       2.106   5.199  -7.968  0.00  0.00    +0.033 C 
ATOM      9  C   UNL     1       3.155   6.389  -8.184  0.00  0.00    +0.164 C 
ATOM     10  C   UNL     1       2.299   7.785  -8.087  0.00  0.00    +0.182 C 
ATOM     11  C   UNL     1       1.693   7.603  -6.574  0.00  0.00    +0.038 C 
ATOM     12  O   UNL     1       1.075   7.226  -8.790  0.00  0.00    -0.220 OA
ATOM     13  F   UNL     1       4.105   6.402  -7.266  0.00  0.00    -0.237 F 
ATOM     14  C   UNL     1       3.606   6.323  -9.604  0.00  0.00    +0.046 C 
ATOM     15  C   UNL     1       4.533   5.148  -9.671  0.00  0.00    -0.039 C 
ATOM     16  C   UNL     1       5.826   5.351  -9.564  0.00  0.00    +0.029 C 
ATOM     17  C   UNL     1       6.385   6.363 -10.472  0.00  0.00    +0.173 C 
ATOM     18  C   UNL     1       5.346   7.180 -11.177  0.00  0.00    +0.070 C 
ATOM     19  O   UNL     1       7.608   6.516 -10.658  0.00  0.00    -0.291 OA
ATOM     20  C   UNL     1       3.841   3.891  -9.269  0.00  0.00    +0.022 C 
ATOM     21  C   UNL     1       2.480   5.967 -10.552  0.00  0.00    +0.007 C 
ATOM     22  C   UNL     1       4.328   7.517 -10.093  0.00  0.00    +0.014 C 
ATOM     23  C   UNL     1       3.260   4.063  -7.914  0.00  0.00    +0.007 C 
ATOM     24  C   UNL     1       0.954   6.443  -6.326  0.00  0.00    +0.034 C 
ATOM     25  C   UNL     1      -0.111   5.904  -7.226  0.00  0.00    +0.003 C 
ATOM     26  O   UNL     1       2.193   5.397  -4.136  0.00  0.00    -0.334 OA
ATOM     27  C   UNL     1       2.934   7.444  -3.113  0.00  0.00    +0.061 C 
ENDROOT
BRANCH   4  28
ATOM     28  C   UNL     1      -1.151   6.059  -5.023  0.00  0.00    +0.193 C 
ATOM     29  O   UNL     1      -1.649   5.305  -4.184  0.00  0.00    -0.292 OA
BRANCH  28  30
ATOM     30  C   UNL     1      -2.131   7.142  -5.395  0.00  0.00    +0.161 C 
ATOM     31 CL   UNL     1      -2.029   8.519  -4.286  0.00  0.00    -0.105 Cl
ENDBRANCH  28  30
ENDBRANCH   4  28
TORSDOF 2
ENDMDL
MODEL 2
REMARK VINA RESULT:      -8.2      2.609      7.130
REMARK  Name = 
REMARK  2 active torsions:
REMARK  status: ('A' for Active; 'I' for Inactive)
REMARK    1  A    between atoms: C_26  and  C_27
REMARK    2  A    between atoms: C_27  and  C_29
REMARK                            x       y       z     vdW  Elec       q    Type
REMARK                         _______ _______ _______ _____ _____    ______ ____
ROOT
ATOM      1  C   UNL     1       7.955   6.515 -11.234  0.00  0.00    +0.061 C 
ATOM      2  C   UNL     1       6.957   5.894 -10.453  0.00  0.00    +0.188 C 
ATOM      3  O   UNL     1       6.169   5.035 -11.209  0.00  0.00    -0.330 OA
ATOM      4  C   UNL     1       4.945   5.601 -11.373  0.00  0.00    +0.172 C 
ATOM      5  C   UNL     1       5.400   7.177 -11.249  0.00  0.00    +0.149 C 
ATOM      6  C   UNL     1       3.972   7.646 -10.555  0.00  0.00    +0.033 C 
ATOM      7  C   UNL     1       4.110   6.610  -9.330  0.00  0.00    +0.008 C 
ATOM      8  C   UNL     1       2.471   6.554  -8.912  0.00  0.00    +0.033 C 
ATOM      9  C   UNL     1       2.767   5.502  -7.741  0.00  0.00    +0.164 C 
ATOM     10  C   UNL     1       2.858   4.028  -8.454  0.00  0.00    +0.182 C 
ATOM     11  C   UNL     1       4.085   4.330  -9.499  0.00  0.00    +0.038 C 
ATOM     12  O   UNL     1       1.754   4.309  -9.458  0.00  0.00    -0.220 OA
ATOM     13  F   UNL     1       3.902   5.747  -7.112  0.00  0.00    -0.237 F 
ATOM     14  C   UNL     1       1.541   5.434  -6.894  0.00  0.00    +0.046 C 
ATOM     15  C   UNL     1       1.536   6.706  -6.102  0.00  0.00    -0.039 C 
ATOM     16  C   UNL     1       2.035   6.701  -4.887  0.00  0.00    +0.029 C 
ATOM     17  C   UNL     1       1.509   5.662  -3.991  0.00  0.00    +0.173 C 
ATOM     18  C   UNL     1       0.692   4.619  -4.692  0.00  0.00    +0.070 C 
ATOM     19  O   UNL     1       1.703   5.655  -2.760  0.00  0.00    -0.291 OA
ATOM     20  C   UNL     1       1.505   7.898  -6.995  0.00  0.00    +0.022 C 
ATOM     21  C   UNL     1       0.268   5.498  -7.712  0.00  0.00    +0.007 C 
ATOM     22  C   UNL     1       1.487   4.296  -5.951  0.00  0.00    +0.014 C 
ATOM     23  C   UNL     1       2.651   7.835  -7.936  0.00  0.00    +0.007 C 
ATOM     24  C   UNL     1       3.912   5.399 -10.382  0.00  0.00    +0.034 C 
ATOM     25  C   UNL     1       2.670   5.657 -11.175  0.00  0.00    +0.003 C 
ATOM     26  O   UNL     1       6.148   6.898  -9.957  0.00  0.00    -0.334 OA
ATOM     27  C   UNL     1       7.674   5.133  -9.372  0.00  0.00    +0.061 C 
ENDROOT
BRANCH   4  28
ATOM     28  C   UNL     1       4.485   5.664 -12.807  0.00  0.00    +0.193 C 
ATOM     29  O   UNL     1       4.981   6.475 -13.591  0.00  0.00    -0.292 OA
BRANCH  28  30
ATOM     30  C   UNL     1       4.088   4.408 -13.541  0.00  0.00    +0.161 C 
ATOM     31 CL   UNL     1       2.488   4.568 -14.284  0.00  0.00    -0.105 Cl
ENDBRANCH  28  30
ENDBRANCH   4  28
TORSDOF 2
ENDMDL
MODEL 3
REMARK VINA RESULT:      -8.1      2.786      7.133
REMARK  Name = 
REMARK  2 active torsions:
REMARK  status: ('A' for Active; 'I' for Inactive)
REMARK    1  A    between atoms: C_26  and  C_27
REMARK    2  A    between atoms: C_27  and  C_29
REMARK                            x       y       z     vdW  Elec       q    Type
REMARK                         _______ _______ _______ _____ _____    ______ ____
ROOT
ATOM      1  C   UNL     1       3.138   5.439 -13.200  0.00  0.00    +0.061 C 
ATOM      2  C   UNL     1       2.687   6.037 -12.004  0.00  0.00    +0.188 C 
ATOM      3  O   UNL     1       3.617   6.933 -11.493  0.00  0.00    -0.330 OA
ATOM      4  C   UNL     1       4.184   6.386 -10.386  0.00  0.00    +0.172 C 
ATOM      5  C   UNL     1       3.988   4.802 -10.784  0.00  0.00    +0.149 C 
ATOM      6  C   UNL     1       3.801   4.319  -9.212  0.00  0.00    +0.033 C 
ATOM      7  C   UNL     1       2.554   5.303  -8.951  0.00  0.00    +0.008 C 
ATOM      8  C   UNL     1       2.674   5.357  -7.263  0.00  0.00    +0.033 C 
ATOM      9  C   UNL     1       1.428   6.358  -7.169  0.00  0.00    +0.164 C 
ATOM     10  C   UNL     1       2.014   7.859  -7.475  0.00  0.00    +0.182 C 
ATOM     11  C   UNL     1       2.627   7.588  -8.971  0.00  0.00    +0.038 C 
ATOM     12  O   UNL     1       3.325   7.629  -6.747  0.00  0.00    -0.220 OA
ATOM     13  F   UNL     1       0.482   6.077  -8.047  0.00  0.00    -0.237 F 
ATOM     14  C   UNL     1       1.010   6.403  -5.738  0.00  0.00    +0.046 C 
ATOM     15  C   UNL     1       0.314   5.100  -5.487  0.00  0.00    -0.039 C 
ATOM     16  C   UNL     1      -0.995   5.051  -5.576  0.00  0.00    +0.029 C 
ATOM     17  C   UNL     1      -1.722   6.058  -4.789  0.00  0.00    +0.173 C 
ATOM     18  C   UNL     1      -0.842   7.135  -4.231  0.00  0.00    +0.070 C 
ATOM     19  O   UNL     1      -2.950   6.013  -4.583  0.00  0.00    -0.291 OA
ATOM     20  C   UNL     1       1.220   3.945  -5.746  0.00  0.00    +0.022 C 
ATOM     21  C   UNL     1       2.191   6.384  -4.790  0.00  0.00    +0.007 C 
ATOM     22  C   UNL     1       0.086   7.502  -5.384  0.00  0.00    +0.014 C 
ATOM     23  C   UNL     1       1.746   4.036  -7.130  0.00  0.00    +0.007 C 
ATOM     24  C   UNL     1       3.563   6.557  -9.091  0.00  0.00    +0.034 C 
ATOM     25  C   UNL     1       4.718   6.343  -8.165  0.00  0.00    +0.003 C 
ATOM     26  O   UNL     1       2.515   5.021 -11.084  0.00  0.00    -0.334 OA
ATOM     27  C   UNL     1       1.404   6.746 -12.338  0.00  0.00    +0.061 C 
ENDROOT
BRANCH   4  28
ATOM     28  C   UNL     1       5.691   6.386 -10.403  0.00  0.00    +0.193 C 
ATOM     29  O   UNL     1       6.316   5.355 -10.660  0.00  0.00    -0.292 OA
BRANCH  28  30
ATOM     30  C   UNL     1       6.452   7.591 -10.894  0.00  0.00    +0.161 C 
ATOM     31 CL   UNL     1       6.671   7.550 -12.652  0.00  0.00    -0.105 Cl
ENDBRANCH  28  30
ENDBRANCH   4  28
TORSDOF 2
ENDMDL
MODEL 4
REMARK VINA RESULT:      -7.6      2.267      3.105
REMARK  Name = 
REMARK  2 active torsions:
REMARK  status: ('A' for Active; 'I' for Inactive)
REMARK    1  A    between atoms: C_26  and  C_27
REMARK    2  A    between atoms: C_27  and  C_29
REMARK                            x       y       z     vdW  Elec       q    Type
REMARK                         _______ _______ _______ _____ _____    ______ ____
ROOT
ATOM      1  C   UNL     1       5.445   6.870  -2.314  0.00  0.00    +0.061 C 
ATOM      2  C   UNL     1       4.588   7.106  -3.410  0.00  0.00    +0.188 C 
ATOM      3  O   UNL     1       3.274   7.300  -3.005  0.00  0.00    -0.330 OA
ATOM      4  C   UNL     1       2.547   6.205  -3.349  0.00  0.00    +0.172 C 
ATOM      5  C   UNL     1       3.766   5.101  -3.321  0.00  0.00    +0.149 C 
ATOM      6  C   UNL     1       3.107   4.184  -4.533  0.00  0.00    +0.033 C 
ATOM      7  C   UNL     1       3.076   5.407  -5.579  0.00  0.00    +0.008 C 
ATOM      8  C   UNL     1       1.888   4.777  -6.608  0.00  0.00    +0.033 C 
ATOM      9  C   UNL     1       1.955   6.076  -7.543  0.00  0.00    +0.164 C 
ATOM     10  C   UNL     1       1.029   7.219  -6.817  0.00  0.00    +0.182 C 
ATOM     11  C   UNL     1       1.817   7.304  -5.381  0.00  0.00    +0.038 C 
ATOM     12  O   UNL     1      -0.023   6.236  -6.336  0.00  0.00    -0.220 OA
ATOM     13  F   UNL     1       3.184   6.541  -7.680  0.00  0.00    -0.237 F 
ATOM     14  C   UNL     1       1.227   5.747  -8.802  0.00  0.00    +0.046 C 
ATOM     15  C   UNL     1       2.142   4.835  -9.561  0.00  0.00    -0.039 C 
ATOM     16  C   UNL     1       2.929   5.345 -10.481  0.00  0.00    +0.029 C 
ATOM     17  C   UNL     1       2.264   6.185 -11.488  0.00  0.00    +0.173 C 
ATOM     18  C   UNL     1       0.849   6.535 -11.141  0.00  0.00    +0.070 C 
ATOM     19  O   UNL     1       2.814   6.557 -12.542  0.00  0.00    -0.291 OA
ATOM     20  C   UNL     1       2.447   3.603  -8.780  0.00  0.00    +0.022 C 
ATOM     21  C   UNL     1      -0.011   4.912  -8.552  0.00  0.00    +0.007 C 
ATOM     22  C   UNL     1       0.900   6.904  -9.663  0.00  0.00    +0.014 C 
ATOM     23  C   UNL     1       3.013   3.985  -7.463  0.00  0.00    +0.007 C 
ATOM     24  C   UNL     1       1.948   6.113  -4.663  0.00  0.00    +0.034 C 
ATOM     25  C   UNL     1       0.844   5.132  -4.429  0.00  0.00    +0.003 C 
ATOM     26  O   UNL     1       4.632   5.978  -4.207  0.00  0.00    -0.334 OA
ATOM     27  C   UNL     1       5.111   8.333  -4.104  0.00  0.00    +0.061 C 
ENDROOT
BRANCH   4  28
ATOM     28  C   UNL     1       1.750   5.615  -2.215  0.00  0.00    +0.193 C 
ATOM     29  O   UNL     1       2.271   4.823  -1.427  0.00  0.00    -0.292 OA
BRANCH  28  30
ATOM     30  C   UNL     1       0.698   6.434  -1.510  0.00  0.00    +0.161 C 
ATOM     31 CL   UNL     1      -0.742   5.468  -1.149  0.00  0.00    -0.105 Cl
ENDBRANCH  28  30
ENDBRANCH   4  28
TORSDOF 2
ENDMDL
MODEL 5
REMARK VINA RESULT:      -7.1      2.497      4.795
REMARK  Name = 
REMARK  2 active torsions:
REMARK  status: ('A' for Active; 'I' for Inactive)
REMARK    1  A    between atoms: C_26  and  C_27
REMARK    2  A    between atoms: C_27  and  C_29
REMARK                            x       y       z     vdW  Elec       q    Type
REMARK                         _______ _______ _______ _____ _____    ______ ____
ROOT
ATOM      1  C   UNL     1      -0.673   5.559  -8.443  0.00  0.00    +0.061 C 
ATOM      2  C   UNL     1       0.598   5.185  -8.929  0.00  0.00    +0.188 C 
ATOM      3  O   UNL     1       1.367   4.573  -7.948  0.00  0.00    -0.330 OA
ATOM      4  C   UNL     1       2.348   5.432  -7.567  0.00  0.00    +0.172 C 
ATOM      5  C   UNL     1       1.575   6.839  -7.923  0.00  0.00    +0.149 C 
ATOM      6  C   UNL     1       2.973   7.631  -8.323  0.00  0.00    +0.033 C 
ATOM      7  C   UNL     1       3.375   6.559  -9.455  0.00  0.00    +0.008 C 
ATOM      8  C   UNL     1       5.033   6.903  -9.496  0.00  0.00    +0.033 C 
ATOM      9  C   UNL     1       5.278   5.778 -10.608  0.00  0.00    +0.164 C 
ATOM     10  C   UNL     1       5.374   4.348  -9.809  0.00  0.00    +0.182 C 
ATOM     11  C   UNL     1       3.900   4.364  -9.090  0.00  0.00    +0.038 C 
ATOM     12  O   UNL     1       6.113   4.926  -8.615  0.00  0.00    -0.220 OA
ATOM     13  F   UNL     1       4.296   5.712 -11.491  0.00  0.00    -0.237 F 
ATOM     14  C   UNL     1       6.648   5.994 -11.156  0.00  0.00    +0.046 C 
ATOM     15  C   UNL     1       6.536   7.203 -12.033  0.00  0.00    -0.039 C 
ATOM     16  C   UNL     1       6.352   7.039 -13.323  0.00  0.00    +0.029 C 
ATOM     17  C   UNL     1       7.304   6.139 -13.989  0.00  0.00    +0.173 C 
ATOM     18  C   UNL     1       8.158   5.356 -13.039  0.00  0.00    +0.070 C 
ATOM     19  O   UNL     1       7.412   6.049 -15.227  0.00  0.00    -0.291 OA
ATOM     20  C   UNL     1       6.073   8.391 -11.261  0.00  0.00    +0.022 C 
ATOM     21  C   UNL     1       7.641   6.398 -10.086  0.00  0.00    +0.007 C 
ATOM     22  C   UNL     1       7.189   4.879 -11.963  0.00  0.00    +0.014 C 
ATOM     23  C   UNL     1       4.787   8.070 -10.593  0.00  0.00    +0.007 C 
ATOM     24  C   UNL     1       3.603   5.467  -8.286  0.00  0.00    +0.034 C 
ATOM     25  C   UNL     1       4.526   6.050  -7.264  0.00  0.00    +0.003 C 
ATOM     26  O   UNL     1       1.239   6.345  -9.319  0.00  0.00    -0.334 OA
ATOM     27  C   UNL     1       0.356   4.239 -10.072  0.00  0.00    +0.061 C 
ENDROOT
BRANCH   4  28
ATOM     28  C   UNL     1       2.431   5.649  -6.078  0.00  0.00    +0.193 C 
ATOM     29  O   UNL     1       1.763   6.529  -5.534  0.00  0.00    -0.292 OA
BRANCH  28  30
ATOM     30  C   UNL     1       2.614   4.481  -5.142  0.00  0.00    +0.161 C 
ATOM     31 CL   UNL     1       4.047   4.687  -4.119  0.00  0.00    -0.105 Cl
ENDBRANCH  28  30
ENDBRANCH   4  28
TORSDOF 2
ENDMDL
MODEL 6
REMARK VINA RESULT:      -7.0      2.285      3.834
REMARK  Name = 
REMARK  2 active torsions:
REMARK  status: ('A' for Active; 'I' for Inactive)
REMARK    1  A    between atoms: C_26  and  C_27
REMARK    2  A    between atoms: C_27  and  C_29
REMARK                            x       y       z     vdW  Elec       q    Type
REMARK                         _______ _______ _______ _____ _____    ______ ____
ROOT
ATOM      1  C   UNL     1      -3.282   6.285  -3.899  0.00  0.00    +0.061 C 
ATOM      2  C   UNL     1      -2.250   5.711  -4.673  0.00  0.00    +0.188 C 
ATOM      3  O   UNL     1      -1.381   4.956  -3.896  0.00  0.00    -0.330 OA
ATOM      4  C   UNL     1      -0.205   5.627  -3.784  0.00  0.00    +0.172 C 
ATOM      5  C   UNL     1      -0.791   7.152  -3.970  0.00  0.00    +0.149 C 
ATOM      6  C   UNL     1       0.581   7.703  -4.715  0.00  0.00    +0.033 C 
ATOM      7  C   UNL     1       0.507   6.604  -5.889  0.00  0.00    +0.008 C 
ATOM      8  C   UNL     1       2.138   6.662  -6.339  0.00  0.00    +0.033 C 
ATOM      9  C   UNL     1       1.909   5.536  -7.455  0.00  0.00    +0.164 C 
ATOM     10  C   UNL     1       1.953   4.094  -6.673  0.00  0.00    +0.182 C 
ATOM     11  C   UNL     1       0.723   4.344  -5.617  0.00  0.00    +0.038 C 
ATOM     12  O   UNL     1       3.047   4.511  -5.708  0.00  0.00    -0.220 OA
ATOM     13  F   UNL     1       0.746   5.657  -8.069  0.00  0.00    -0.237 F 
ATOM     14  C   UNL     1       3.121   5.528  -8.324  0.00  0.00    +0.046 C 
ATOM     15  C   UNL     1       3.006   6.757  -9.172  0.00  0.00    -0.039 C 
ATOM     16  C   UNL     1       2.488   6.655 -10.375  0.00  0.00    +0.029 C 
ATOM     17  C   UNL     1       3.082   5.621 -11.234  0.00  0.00    +0.173 C 
ATOM     18  C   UNL     1       3.995   4.683 -10.505  0.00  0.00    +0.070 C 
ATOM     19  O   UNL     1       2.867   5.541 -12.459  0.00  0.00    -0.291 OA
ATOM     20  C   UNL     1       2.955   7.989  -8.335  0.00  0.00    +0.022 C 
ATOM     21  C   UNL     1       4.398   5.734  -7.537  0.00  0.00    +0.007 C 
ATOM     22  C   UNL     1       3.251   4.355  -9.215  0.00  0.00    +0.014 C 
ATOM     23  C   UNL     1       1.835   7.877  -7.367  0.00  0.00    +0.007 C 
ATOM     24  C   UNL     1       0.824   5.464  -4.788  0.00  0.00    +0.034 C 
ATOM     25  C   UNL     1       2.053   5.859  -4.034  0.00  0.00    +0.003 C 
ATOM     26  O   UNL     1      -1.536   6.754  -5.231  0.00  0.00    -0.334 OA
ATOM     27  C   UNL     1      -2.921   4.845  -5.703  0.00  0.00    +0.061 C 
ENDROOT
BRANCH   4  28
ATOM     28  C   UNL     1       0.274   5.794  -2.365  0.00  0.00    +0.193 C 
ATOM     29  O   UNL     1      -0.221   6.652  -1.632  0.00  0.00    -0.292 OA
BRANCH  28  30
ATOM     30  C   UNL     1       0.696   4.596  -1.552  0.00  0.00    +0.161 C 
ATOM     31 CL   UNL     1       2.330   4.798  -0.898  0.00  0.00    -0.105 Cl
ENDBRANCH  28  30
ENDBRANCH   4  28
TORSDOF 2
ENDMDL
MODEL 7
REMARK VINA RESULT:      -7.0      3.103      7.160
REMARK  Name = 
REMARK  2 active torsions:
REMARK  status: ('A' for Active; 'I' for Inactive)
REMARK    1  A    between atoms: C_26  and  C_27
REMARK    2  A    between atoms: C_27  and  C_29
REMARK                            x       y       z     vdW  Elec       q    Type
REMARK                         _______ _______ _______ _____ _____    ______ ____
ROOT
ATOM      1  C   UNL     1       1.411   6.656  -9.283  0.00  0.00    +0.061 C 
ATOM      2  C   UNL     1       1.983   7.012  -8.042  0.00  0.00    +0.188 C 
ATOM      3  O   UNL     1       3.355   6.802  -8.026  0.00  0.00    -0.330 OA
ATOM      4  C   UNL     1       3.619   5.725  -7.241  0.00  0.00    +0.172 C 
ATOM      5  C   UNL     1       2.186   4.941  -7.433  0.00  0.00    +0.149 C 
ATOM      6  C   UNL     1       2.213   4.295  -5.908  0.00  0.00    +0.033 C 
ATOM      7  C   UNL     1       2.319   5.733  -5.191  0.00  0.00    +0.008 C 
ATOM      8  C   UNL     1       2.964   5.192  -3.723  0.00  0.00    +0.033 C 
ATOM      9  C   UNL     1       3.031   6.689  -3.157  0.00  0.00    +0.164 C 
ATOM     10  C   UNL     1       4.403   7.353  -3.764  0.00  0.00    +0.182 C 
ATOM     11  C   UNL     1       4.077   7.184  -5.362  0.00  0.00    +0.038 C 
ATOM     12  O   UNL     1       5.215   6.075  -3.655  0.00  0.00    -0.220 OA
ATOM     13  F   UNL     1       1.996   7.420  -3.531  0.00  0.00    -0.237 F 
ATOM     14  C   UNL     1       3.278   6.591  -1.690  0.00  0.00    +0.046 C 
ATOM     15  C   UNL     1       1.974   6.151  -1.098  0.00  0.00    -0.039 C 
ATOM     16  C   UNL     1       1.156   7.057  -0.615  0.00  0.00    +0.029 C 
ATOM     17  C   UNL     1       1.746   7.993   0.353  0.00  0.00    +0.173 C 
ATOM     18  C   UNL     1       3.242   7.922   0.423  0.00  0.00    +0.070 C 
ATOM     19  O   UNL     1       1.071   8.759   1.066  0.00  0.00    -0.291 OA
ATOM     20  C   UNL     1       1.543   4.838  -1.657  0.00  0.00    +0.022 C 
ATOM     21  C   UNL     1       4.244   5.479  -1.338  0.00  0.00    +0.007 C 
ATOM     22  C   UNL     1       3.687   7.852  -1.033  0.00  0.00    +0.014 C 
ATOM     23  C   UNL     1       1.475   4.935  -3.136  0.00  0.00    +0.007 C 
ATOM     24  C   UNL     1       3.801   5.891  -5.815  0.00  0.00    +0.034 C 
ATOM     25  C   UNL     1       4.598   4.676  -5.463  0.00  0.00    +0.003 C 
ATOM     26  O   UNL     1       1.409   6.198  -7.085  0.00  0.00    -0.334 OA
ATOM     27  C   UNL     1       1.673   8.469  -7.833  0.00  0.00    +0.061 C 
ENDROOT
BRANCH   4  28
ATOM     28  C   UNL     1       4.481   4.680  -7.901  0.00  0.00    +0.193 C 
ATOM     29  O   UNL     1       3.989   3.863  -8.682  0.00  0.00    -0.292 OA
BRANCH  28  30
ATOM     30  C   UNL     1       5.898   4.997  -8.305  0.00  0.00    +0.161 C 
ATOM     31 CL   UNL     1       5.961   5.783  -9.892  0.00  0.00    -0.105 Cl
ENDBRANCH  28  30
ENDBRANCH   4  28
TORSDOF 2
ENDMDL
MODEL 8
REMARK VINA RESULT:      -6.8      3.098      6.812
REMARK  Name = 
REMARK  2 active torsions:
REMARK  status: ('A' for Active; 'I' for Inactive)
REMARK    1  A    between atoms: C_26  and  C_27
REMARK    2  A    between atoms: C_27  and  C_29
REMARK                            x       y       z     vdW  Elec       q    Type
REMARK                         _______ _______ _______ _____ _____    ______ ____
ROOT
ATOM      1  C   UNL     1      -0.632   4.553  -7.393  0.00  0.00    +0.061 C 
ATOM      2  C   UNL     1       0.096   5.430  -6.560  0.00  0.00    +0.188 C 
ATOM      3  O   UNL     1       1.108   6.080  -7.253  0.00  0.00    -0.330 OA
ATOM      4  C   UNL     1       2.302   5.563  -6.863  0.00  0.00    +0.172 C 
ATOM      5  C   UNL     1       1.777   4.066  -6.432  0.00  0.00    +0.149 C 
ATOM      6  C   UNL     1       2.902   3.899  -5.229  0.00  0.00    +0.033 C 
ATOM      7  C   UNL     1       2.427   5.233  -4.462  0.00  0.00    +0.008 C 
ATOM      8  C   UNL     1       3.857   5.502  -3.596  0.00  0.00    +0.033 C 
ATOM      9  C   UNL     1       3.250   6.826  -2.931  0.00  0.00    +0.164 C 
ATOM     10  C   UNL     1       3.436   8.026  -4.034  0.00  0.00    +0.182 C 
ATOM     11  C   UNL     1       2.583   7.366  -5.269  0.00  0.00    +0.038 C 
ATOM     12  O   UNL     1       4.786   7.534  -4.523  0.00  0.00    -0.220 OA
ATOM     13  F   UNL     1       1.968   6.706  -2.638  0.00  0.00    -0.237 F 
ATOM     14  C   UNL     1       4.155   7.205  -1.808  0.00  0.00    +0.046 C 
ATOM     15  C   UNL     1       3.869   6.217  -0.719  0.00  0.00    -0.039 C 
ATOM     16  C   UNL     1       3.019   6.540   0.228  0.00  0.00    +0.029 C 
ATOM     17  C   UNL     1       3.277   7.822   0.900  0.00  0.00    +0.173 C 
ATOM     18  C   UNL     1       4.307   8.665   0.212  0.00  0.00    +0.070 C 
ATOM     19  O   UNL     1       2.712   8.170   1.954  0.00  0.00    -0.291 OA
ATOM     20  C   UNL     1       4.134   4.822  -1.173  0.00  0.00    +0.022 C 
ATOM     21  C   UNL     1       5.615   6.984  -2.141  0.00  0.00    +0.007 C 
ATOM     22  C   UNL     1       3.953   8.567  -1.267  0.00  0.00    +0.014 C 
ATOM     23  C   UNL     1       3.339   4.545  -2.395  0.00  0.00    +0.007 C 
ATOM     24  C   UNL     1       2.984   6.101  -5.706  0.00  0.00    +0.034 C 
ATOM     25  C   UNL     1       4.400   5.699  -5.969  0.00  0.00    +0.003 C 
ATOM     26  O   UNL     1       0.675   4.658  -5.571  0.00  0.00    -0.334 OA
ATOM     27  C   UNL     1      -0.894   6.425  -6.020  0.00  0.00    +0.061 C 
ENDROOT
BRANCH   4  28
ATOM     28  C   UNL     1       3.182   5.119  -8.003  0.00  0.00    +0.193 C 
ATOM     29  O   UNL     1       3.066   3.990  -8.482  0.00  0.00    -0.292 OA
BRANCH  28  30
ATOM     30  C   UNL     1       3.604   6.096  -9.071  0.00  0.00    +0.161 C 
ATOM     31 CL   UNL     1       5.295   5.853  -9.542  0.00  0.00    -0.105 Cl
ENDBRANCH  28  30
ENDBRANCH   4  28
TORSDOF 2
ENDMDL
MODEL 9
REMARK VINA RESULT:      -6.8      2.665      4.392
REMARK  Name = 
REMARK  2 active torsions:
REMARK  status: ('A' for Active; 'I' for Inactive)
REMARK    1  A    between atoms: C_26  and  C_27
REMARK    2  A    between atoms: C_27  and  C_29
REMARK                            x       y       z     vdW  Elec       q    Type
REMARK                         _______ _______ _______ _____ _____    ______ ____
ROOT
ATOM      1  C   UNL     1       0.724   6.775  -1.585  0.00  0.00    +0.061 C 
ATOM      2  C   UNL     1       0.714   6.132  -2.841  0.00  0.00    +0.188 C 
ATOM      3  O   UNL     1       1.536   5.013  -2.855  0.00  0.00    -0.330 OA
ATOM      4  C   UNL     1       2.639   5.294  -3.598  0.00  0.00    +0.172 C 
ATOM      5  C   UNL     1       2.663   6.922  -3.369  0.00  0.00    +0.149 C 
ATOM      6  C   UNL     1       3.298   7.231  -4.866  0.00  0.00    +0.033 C 
ATOM      7  C   UNL     1       2.098   6.488  -5.640  0.00  0.00    +0.008 C 
ATOM      8  C   UNL     1       2.924   6.199  -7.089  0.00  0.00    +0.033 C 
ATOM      9  C   UNL     1       1.648   5.461  -7.714  0.00  0.00    +0.164 C 
ATOM     10  C   UNL     1       1.675   3.924  -7.140  0.00  0.00    +0.182 C 
ATOM     11  C   UNL     1       1.620   4.255  -5.535  0.00  0.00    +0.038 C 
ATOM     12  O   UNL     1       3.186   3.797  -7.201  0.00  0.00    -0.220 OA
ATOM     13  F   UNL     1       0.509   6.031  -7.365  0.00  0.00    -0.237 F 
ATOM     14  C   UNL     1       1.897   5.319  -9.178  0.00  0.00    +0.046 C 
ATOM     15  C   UNL     1       1.704   6.692  -9.746  0.00  0.00    -0.039 C 
ATOM     16  C   UNL     1       0.539   7.009 -10.261  0.00  0.00    +0.029 C 
ATOM     17  C   UNL     1       0.015   6.075 -11.267  0.00  0.00    +0.173 C 
ATOM     18  C   UNL     1       0.772   4.783 -11.341  0.00  0.00    +0.070 C 
ATOM     19  O   UNL     1      -0.953   6.335 -12.007  0.00  0.00    -0.291 OA
ATOM     20  C   UNL     1       2.649   7.668  -9.133  0.00  0.00    +0.022 C 
ATOM     21  C   UNL     1       3.341   4.985  -9.489  0.00  0.00    +0.007 C 
ATOM     22  C   UNL     1       0.992   4.388  -9.885  0.00  0.00    +0.014 C 
ATOM     23  C   UNL     1       2.483   7.651  -7.659  0.00  0.00    +0.007 C 
ATOM     24  C   UNL     1       2.623   5.087  -5.030  0.00  0.00    +0.034 C 
ATOM     25  C   UNL     1       4.079   4.950  -5.337  0.00  0.00    +0.003 C 
ATOM     26  O   UNL     1       1.202   7.038  -3.763  0.00  0.00    -0.334 OA
ATOM     27  C   UNL     1      -0.713   5.738  -3.107  0.00  0.00    +0.061 C 
ENDROOT
BRANCH   4  28
ATOM     28  C   UNL     1       3.941   4.998  -2.900  0.00  0.00    +0.193 C 
ATOM     29  O   UNL     1       4.951   5.660  -3.149  0.00  0.00    -0.292 OA
BRANCH  28  30
ATOM     30  C   UNL     1       3.956   4.548  -1.462  0.00  0.00    +0.161 C 
ATOM     31 CL   UNL     1       4.356   5.883  -0.368  0.00  0.00    -0.105 Cl
ENDBRANCH  28  30
ENDBRANCH   4  28
TORSDOF 2
ENDMDL
