MODEL 1
REMARK VINA RESULT:      -8.1      0.000      0.000
REMARK  Name = 
REMARK  7 active torsions:
REMARK  status: ('A' for Active; 'I' for Inactive)
REMARK    1  A    between atoms: O_2  and  C_3
REMARK    2  A    between atoms: N_8  and  C_10
REMARK    3  A    between atoms: C_10  and  C_11
REMARK    4  A    between atoms: C_11  and  C_12
REMARK    5  A    between atoms: C_12  and  N_13
REMARK    6  A    between atoms: C_14  and  C_16
REMARK    7  A    between atoms: C_26  and  O_27
REMARK                            x       y       z     vdW  Elec       q    Type
REMARK                         _______ _______ _______ _____ _____    ______ ____
ROOT
ATOM      1  C   UNL     1      -0.746   5.478  -3.044  0.00  0.00    +0.174 A 
ATOM      2  C   UNL     1       0.235   5.816  -2.120  0.00  0.00    +0.173 A 
ATOM      3  C   UNL     1       1.581   5.583  -2.376  0.00  0.00    +0.044 A 
ATOM      4  C   UNL     1       1.921   5.386  -3.709  0.00  0.00    +0.056 A 
ATOM      5  C   UNL     1       0.964   5.372  -4.717  0.00  0.00    +0.090 A 
ATOM      6  N   UNL     1       1.369   5.777  -5.940  0.00  0.00    -0.213 NA
ATOM      7  C   UNL     1       2.573   6.380  -6.107  0.00  0.00    +0.221 A 
ATOM      8  N   UNL     1       3.563   5.879  -5.324  0.00  0.00    -0.195 NA
ATOM      9  N   UNL     1       2.917   6.551  -7.491  0.00  0.00    -0.276 N 
ATOM     10  C   UNL     1       2.155   7.535  -8.252  0.00  0.00    +0.115 C 
ATOM     11  C   UNL     1       3.261   5.447  -4.074  0.00  0.00    +0.174 A 
ATOM     12  N   UNL     1       4.246   5.028  -3.148  0.00  0.00    -0.107 NA
ATOM     13  C   UNL     1      -0.383   5.347  -4.378  0.00  0.00    +0.059 A 
ENDROOT
BRANCH   1  15
ATOM     14  C   UNL     1      -3.142   5.549  -3.329  0.00  0.00    +0.253 C 
ATOM     15  O   UNL     1      -2.004   5.121  -2.613  0.00  0.00    -0.468 OA
ENDBRANCH   1  15
BRANCH   2  16
ATOM     16  O   UNL     1      -0.142   6.491  -0.981  0.00  0.00    -0.468 OA
ATOM     17  C   UNL     1       0.812   6.782   0.015  0.00  0.00    +0.253 C 
ENDBRANCH   2  16
BRANCH   9  18
ATOM     18  C   UNL     1       3.376   5.293  -8.076  0.00  0.00    +0.095 C 
BRANCH  18  19
ATOM     19  C   UNL     1       4.530   5.553  -9.012  0.00  0.00    +0.045 C 
BRANCH  19  20
ATOM     20  C   UNL     1       4.068   5.192 -10.420  0.00  0.00    +0.117 C 
BRANCH  20  21
ATOM     21  N   UNL     1       4.849   6.052 -11.307  0.00  0.00    -0.203 NA
ATOM     22  C   UNL     1       5.460   5.349 -12.385  0.00  0.00    +0.269 C 
ATOM     23  O   UNL     1       4.769   4.643 -13.125  0.00  0.00    -0.271 OA
BRANCH  22  24
ATOM     24  C   UNL     1       6.711   6.120 -13.071  0.00  0.00    +0.193 C 
ATOM     25  O   UNL     1       7.667   4.970 -12.789  0.00  0.00    -0.347 OA
ATOM     26  C   UNL     1       8.803   5.646 -12.409  0.00  0.00    +0.143 C 
ATOM     27  C   UNL     1       8.212   6.223 -11.126  0.00  0.00    +0.035 C 
ATOM     28  C   UNL     1       7.047   6.929 -11.670  0.00  0.00    +0.042 C 
ENDBRANCH  22  24
ENDBRANCH  20  21
ENDBRANCH  19  20
ENDBRANCH  18  19
ENDBRANCH   9  18
TORSDOF 7
ENDMDL
MODEL 2
REMARK VINA RESULT:      -7.9      2.734     10.616
REMARK  Name = 
REMARK  7 active torsions:
REMARK  status: ('A' for Active; 'I' for Inactive)
REMARK    1  A    between atoms: O_2  and  C_3
REMARK    2  A    between atoms: N_8  and  C_10
REMARK    3  A    between atoms: C_10  and  C_11
REMARK    4  A    between atoms: C_11  and  C_12
REMARK    5  A    between atoms: C_12  and  N_13
REMARK    6  A    between atoms: C_14  and  C_16
REMARK    7  A    between atoms: C_26  and  O_27
REMARK                            x       y       z     vdW  Elec       q    Type
REMARK                         _______ _______ _______ _____ _____    ______ ____
ROOT
ATOM      1  C   UNL     1       6.157   5.481 -12.875  0.00  0.00    +0.174 A 
ATOM      2  C   UNL     1       5.374   5.954 -13.921  0.00  0.00    +0.173 A 
ATOM      3  C   UNL     1       3.992   5.810 -13.912  0.00  0.00    +0.044 A 
ATOM      4  C   UNL     1       3.415   5.554 -12.673  0.00  0.00    +0.056 A 
ATOM      5  C   UNL     1       4.181   5.400 -11.524  0.00  0.00    +0.090 A 
ATOM      6  N   UNL     1       3.599   5.755 -10.358  0.00  0.00    -0.213 NA
ATOM      7  C   UNL     1       2.427   6.438 -10.349  0.00  0.00    +0.221 A 
ATOM      8  N   UNL     1       1.555   6.068 -11.321  0.00  0.00    -0.195 NA
ATOM      9  N   UNL     1       1.862   6.545  -9.033  0.00  0.00    -0.276 N 
ATOM     10  C   UNL     1       2.545   7.415  -8.081  0.00  0.00    +0.115 C 
ATOM     11  C   UNL     1       2.039   5.695 -12.534  0.00  0.00    +0.174 A 
ATOM     12  N   UNL     1       1.203   5.415 -13.640  0.00  0.00    -0.107 NA
ATOM     13  C   UNL     1       5.562   5.292 -11.634  0.00  0.00    +0.059 A 
ENDROOT
BRANCH   1  15
ATOM     14  C   UNL     1       8.512   5.577 -12.356  0.00  0.00    +0.253 C 
ATOM     15  O   UNL     1       7.444   5.055 -13.116  0.00  0.00    -0.468 OA
ENDBRANCH   1  15
BRANCH   2  16
ATOM     16  O   UNL     1       5.985   6.669 -14.926  0.00  0.00    -0.468 OA
ATOM     17  C   UNL     1       5.241   7.084 -16.049  0.00  0.00    +0.253 C 
ENDBRANCH   2  16
BRANCH   9  18
ATOM     18  C   UNL     1       1.228   5.291  -8.631  0.00  0.00    +0.095 C 
BRANCH  18  19
ATOM     19  C   UNL     1      -0.214   5.540  -8.265  0.00  0.00    +0.045 C 
BRANCH  19  20
ATOM     20  C   UNL     1      -0.399   5.111  -6.814  0.00  0.00    +0.117 C 
BRANCH  20  21
ATOM     21  N   UNL     1      -1.579   5.841  -6.350  0.00  0.00    -0.203 NA
ATOM     22  C   UNL     1      -1.349   6.592  -5.161  0.00  0.00    +0.269 C 
ATOM     23  O   UNL     1      -0.416   7.398  -5.117  0.00  0.00    -0.271 OA
BRANCH  22  24
ATOM     24  C   UNL     1      -2.693   6.983  -4.341  0.00  0.00    +0.193 C 
ATOM     25  O   UNL     1      -1.901   7.463  -3.133  0.00  0.00    -0.347 OA
ATOM     26  C   UNL     1      -2.662   6.976  -2.097  0.00  0.00    +0.143 C 
ATOM     27  C   UNL     1      -2.402   5.503  -2.399  0.00  0.00    +0.035 C 
ATOM     28  C   UNL     1      -2.868   5.436  -3.788  0.00  0.00    +0.042 C 
ENDBRANCH  22  24
ENDBRANCH  20  21
ENDBRANCH  19  20
ENDBRANCH  18  19
ENDBRANCH   9  18
TORSDOF 7
ENDMDL
MODEL 3
REMARK VINA RESULT:      -7.8      1.545      2.901
REMARK  Name = 
REMARK  7 active torsions:
REMARK  status: ('A' for Active; 'I' for Inactive)
REMARK    1  A    between atoms: O_2  and  C_3
REMARK    2  A    between atoms: N_8  and  C_10
REMARK    3  A    between atoms: C_10  and  C_11
REMARK    4  A    between atoms: C_11  and  C_12
REMARK    5  A    between atoms: C_12  and  N_13
REMARK    6  A    between atoms: C_14  and  C_16
REMARK    7  A    between atoms: C_26  and  O_27
REMARK                            x       y       z     vdW  Elec       q    Type
REMARK                         _______ _______ _______ _____ _____    ______ ____
ROOT
ATOM      1  C   UNL     1       1.327   6.171  -2.840  0.00  0.00    +0.174 A 
ATOM      2  C   UNL     1       0.002   5.755  -2.832  0.00  0.00    +0.173 A 
ATOM      3  C   UNL     1      -0.801   5.873  -3.959  0.00  0.00    +0.044 A 
ATOM      4  C   UNL     1      -0.132   6.037  -5.167  0.00  0.00    +0.056 A 
ATOM      5  C   UNL     1       1.252   6.128  -5.233  0.00  0.00    +0.090 A 
ATOM      6  N   UNL     1       1.834   5.687  -6.370  0.00  0.00    -0.213 NA
ATOM      7  C   UNL     1       1.120   4.984  -7.285  0.00  0.00    +0.221 A 
ATOM      8  N   UNL     1      -0.163   5.403  -7.436  0.00  0.00    -0.195 NA
ATOM      9  N   UNL     1       1.842   4.780  -8.510  0.00  0.00    -0.276 N 
ATOM     10  C   UNL     1       2.976   3.862  -8.473  0.00  0.00    +0.115 C 
ATOM     11  C   UNL     1      -0.838   5.863  -6.352  0.00  0.00    +0.174 A 
ATOM     12  N   UNL     1      -2.212   6.200  -6.391  0.00  0.00    -0.107 NA
ATOM     13  C   UNL     1       1.984   6.267  -4.060  0.00  0.00    +0.059 A 
ENDROOT
BRANCH   1  15
ATOM     14  C   UNL     1       3.289   6.431  -1.458  0.00  0.00    +0.253 C 
ATOM     15  O   UNL     1       1.911   6.635  -1.682  0.00  0.00    -0.468 OA
ENDBRANCH   1  15
BRANCH   2  16
ATOM     16  O   UNL     1      -0.478   5.118  -1.709  0.00  0.00    -0.468 OA
ATOM     17  C   UNL     1      -1.743   5.461  -1.191  0.00  0.00    +0.253 C 
ENDBRANCH   2  16
BRANCH   9  18
ATOM     18  C   UNL     1       1.845   5.994  -9.324  0.00  0.00    +0.095 C 
BRANCH  18  19
ATOM     19  C   UNL     1       3.216   6.214  -9.912  0.00  0.00    +0.045 C 
BRANCH  19  20
ATOM     20  C   UNL     1       3.199   5.664 -11.335  0.00  0.00    +0.117 C 
BRANCH  20  21
ATOM     21  N   UNL     1       4.288   6.357 -12.022  0.00  0.00    -0.203 NA
ATOM     22  C   UNL     1       5.236   5.474 -12.615  0.00  0.00    +0.269 C 
ATOM     23  O   UNL     1       4.852   4.596 -13.393  0.00  0.00    -0.271 OA
BRANCH  22  24
ATOM     24  C   UNL     1       6.680   6.144 -12.925  0.00  0.00    +0.193 C 
ATOM     25  O   UNL     1       7.427   4.860 -12.592  0.00  0.00    -0.347 OA
ATOM     26  C   UNL     1       8.513   5.348 -11.904  0.00  0.00    +0.143 C 
ATOM     27  C   UNL     1       7.715   5.867 -10.712  0.00  0.00    +0.035 C 
ATOM     28  C   UNL     1       6.778   6.764 -11.397  0.00  0.00    +0.042 C 
ENDBRANCH  22  24
ENDBRANCH  20  21
ENDBRANCH  19  20
ENDBRANCH  18  19
ENDBRANCH   9  18
TORSDOF 7
ENDMDL
MODEL 4
REMARK VINA RESULT:      -7.8      2.419      9.604
REMARK  Name = 
REMARK  7 active torsions:
REMARK  status: ('A' for Active; 'I' for Inactive)
REMARK    1  A    between atoms: O_2  and  C_3
REMARK    2  A    between atoms: N_8  and  C_10
REMARK    3  A    between atoms: C_10  and  C_11
REMARK    4  A    between atoms: C_11  and  C_12
REMARK    5  A    between atoms: C_12  and  N_13
REMARK    6  A    between atoms: C_14  and  C_16
REMARK    7  A    between atoms: C_26  and  O_27
REMARK                            x       y       z     vdW  Elec       q    Type
REMARK                         _______ _______ _______ _____ _____    ______ ____
ROOT
ATOM      1  C   UNL     1       6.532   5.388 -12.637  0.00  0.00    +0.174 A 
ATOM      2  C   UNL     1       5.835   5.829 -13.756  0.00  0.00    +0.173 A 
ATOM      3  C   UNL     1       4.454   5.706 -13.843  0.00  0.00    +0.044 A 
ATOM      4  C   UNL     1       3.784   5.509 -12.642  0.00  0.00    +0.056 A 
ATOM      5  C   UNL     1       4.461   5.391 -11.434  0.00  0.00    +0.090 A 
ATOM      6  N   UNL     1       3.802   5.802 -10.329  0.00  0.00    -0.213 NA
ATOM      7  C   UNL     1       2.644   6.502 -10.433  0.00  0.00    +0.221 A 
ATOM      8  N   UNL     1       1.839   6.105 -11.452  0.00  0.00    -0.195 NA
ATOM      9  N   UNL     1       1.986   6.671  -9.168  0.00  0.00    -0.276 N 
ATOM     10  C   UNL     1       2.613   7.569  -8.203  0.00  0.00    +0.115 C 
ATOM     11  C   UNL     1       2.404   5.676 -12.609  0.00  0.00    +0.174 A 
ATOM     12  N   UNL     1       1.646   5.364 -13.763  0.00  0.00    -0.107 NA
ATOM     13  C   UNL     1       5.844   5.259 -11.437  0.00  0.00    +0.059 A 
ENDROOT
BRANCH   1  15
ATOM     14  C   UNL     1       8.893   5.690 -12.237  0.00  0.00    +0.253 C 
ATOM     15  O   UNL     1       7.825   4.934 -12.766  0.00  0.00    -0.468 OA
ENDBRANCH   1  15
BRANCH   2  16
ATOM     16  O   UNL     1       6.531   6.494 -14.741  0.00  0.00    -0.468 OA
ATOM     17  C   UNL     1       5.913   7.539 -15.457  0.00  0.00    +0.253 C 
ENDBRANCH   2  16
BRANCH   9  18
ATOM     18  C   UNL     1       1.302   5.444  -8.765  0.00  0.00    +0.095 C 
BRANCH  18  19
ATOM     19  C   UNL     1       1.914   4.910  -7.494  0.00  0.00    +0.045 C 
BRANCH  19  20
ATOM     20  C   UNL     1       0.788   4.734  -6.481  0.00  0.00    +0.117 C 
BRANCH  20  21
ATOM     21  N   UNL     1       1.451   4.701  -5.178  0.00  0.00    -0.203 NA
ATOM     22  C   UNL     1       1.888   5.981  -4.732  0.00  0.00    +0.269 C 
ATOM     23  O   UNL     1       1.085   6.917  -4.676  0.00  0.00    -0.271 OA
BRANCH  22  24
ATOM     24  C   UNL     1       3.042   5.940  -3.594  0.00  0.00    +0.193 C 
ATOM     25  O   UNL     1       2.961   7.442  -3.356  0.00  0.00    -0.347 OA
ATOM     26  C   UNL     1       4.289   7.768  -3.215  0.00  0.00    +0.143 C 
ATOM     27  C   UNL     1       4.679   7.440  -4.653  0.00  0.00    +0.035 C 
ATOM     28  C   UNL     1       4.238   6.043  -4.729  0.00  0.00    +0.042 C 
ENDBRANCH  22  24
ENDBRANCH  20  21
ENDBRANCH  19  20
ENDBRANCH  18  19
ENDBRANCH   9  18
TORSDOF 7
ENDMDL
MODEL 5
REMARK VINA RESULT:      -7.8      2.395      3.245
REMARK  Name = 
REMARK  7 active torsions:
REMARK  status: ('A' for Active; 'I' for Inactive)
REMARK    1  A    between atoms: O_2  and  C_3
REMARK    2  A    between atoms: N_8  and  C_10
REMARK    3  A    between atoms: C_10  and  C_11
REMARK    4  A    between atoms: C_11  and  C_12
REMARK    5  A    between atoms: C_12  and  N_13
REMARK    6  A    between atoms: C_14  and  C_16
REMARK    7  A    between atoms: C_26  and  O_27
REMARK                            x       y       z     vdW  Elec       q    Type
REMARK                         _______ _______ _______ _____ _____    ______ ____
ROOT
ATOM      1  C   UNL     1      -0.458   5.673  -5.407  0.00  0.00    +0.174 A 
ATOM      2  C   UNL     1       0.851   6.048  -5.129  0.00  0.00    +0.173 A 
ATOM      3  C   UNL     1       1.886   5.770  -6.013  0.00  0.00    +0.044 A 
ATOM      4  C   UNL     1       1.510   5.480  -7.319  0.00  0.00    +0.056 A 
ATOM      5  C   UNL     1       0.176   5.422  -7.703  0.00  0.00    +0.090 A 
ATOM      6  N   UNL     1      -0.098   5.738  -8.987  0.00  0.00    -0.213 NA
ATOM      7  C   UNL     1       0.849   6.303  -9.778  0.00  0.00    +0.221 A 
ATOM      8  N   UNL     1       2.105   5.832  -9.571  0.00  0.00    -0.195 NA
ATOM      9  N   UNL     1       0.444   6.377 -11.155  0.00  0.00    -0.276 N 
ATOM     10  C   UNL     1      -0.612   7.326 -11.491  0.00  0.00    +0.115 C 
ATOM     11  C   UNL     1       2.481   5.488  -8.313  0.00  0.00    +0.174 A 
ATOM     12  N   UNL     1       3.805   5.108  -7.986  0.00  0.00    -0.107 NA
ATOM     13  C   UNL     1      -0.816   5.448  -6.730  0.00  0.00    +0.059 A 
ENDROOT
BRANCH   1  15
ATOM     14  C   UNL     1      -2.560   6.039  -4.279  0.00  0.00    +0.253 C 
ATOM     15  O   UNL     1      -1.321   5.371  -4.377  0.00  0.00    -0.468 OA
ENDBRANCH   1  15
BRANCH   2  16
ATOM     16  O   UNL     1       1.091   6.803  -4.003  0.00  0.00    -0.468 OA
ATOM     17  C   UNL     1       2.045   6.374  -3.058  0.00  0.00    +0.253 C 
ENDBRANCH   2  16
BRANCH   9  18
ATOM     18  C   UNL     1       0.562   5.073 -11.806  0.00  0.00    +0.095 C 
BRANCH  18  19
ATOM     19  C   UNL     1       1.144   5.241 -13.187  0.00  0.00    +0.045 C 
BRANCH  19  20
ATOM     20  C   UNL     1       2.243   6.294 -13.097  0.00  0.00    +0.117 C 
BRANCH  20  21
ATOM     21  N   UNL     1       3.399   5.694 -13.762  0.00  0.00    -0.203 NA
ATOM     22  C   UNL     1       4.576   5.690 -12.959  0.00  0.00    +0.269 C 
ATOM     23  O   UNL     1       4.544   5.196 -11.828  0.00  0.00    -0.271 OA
BRANCH  22  24
ATOM     24  C   UNL     1       5.959   5.526 -13.790  0.00  0.00    +0.193 C 
ATOM     25  O   UNL     1       6.642   4.789 -12.646  0.00  0.00    -0.347 OA
ATOM     26  C   UNL     1       7.902   5.338 -12.681  0.00  0.00    +0.143 C 
ATOM     27  C   UNL     1       7.465   6.742 -12.273  0.00  0.00    +0.035 C 
ATOM     28  C   UNL     1       6.479   7.022 -13.322  0.00  0.00    +0.042 C 
ENDBRANCH  22  24
ENDBRANCH  20  21
ENDBRANCH  19  20
ENDBRANCH  18  19
ENDBRANCH   9  18
TORSDOF 7
ENDMDL
MODEL 6
REMARK VINA RESULT:      -7.7      2.791      3.619
REMARK  Name = 
REMARK  7 active torsions:
REMARK  status: ('A' for Active; 'I' for Inactive)
REMARK    1  A    between atoms: O_2  and  C_3
REMARK    2  A    between atoms: N_8  and  C_10
REMARK    3  A    between atoms: C_10  and  C_11
REMARK    4  A    between atoms: C_11  and  C_12
REMARK    5  A    between atoms: C_12  and  N_13
REMARK    6  A    between atoms: C_14  and  C_16
REMARK    7  A    between atoms: C_26  and  O_27
REMARK                            x       y       z     vdW  Elec       q    Type
REMARK                         _______ _______ _______ _____ _____    ______ ____
ROOT
ATOM      1  C   UNL     1      -1.167   5.432  -2.451  0.00  0.00    +0.174 A 
ATOM      2  C   UNL     1      -0.389   5.842  -1.375  0.00  0.00    +0.173 A 
ATOM      3  C   UNL     1       0.992   5.692  -1.382  0.00  0.00    +0.044 A 
ATOM      4  C   UNL     1       1.577   5.501  -2.629  0.00  0.00    +0.056 A 
ATOM      5  C   UNL     1       0.819   5.415  -3.790  0.00  0.00    +0.090 A 
ATOM      6  N   UNL     1       1.411   5.830  -4.931  0.00  0.00    -0.213 NA
ATOM      7  C   UNL     1       2.587   6.506  -4.895  0.00  0.00    +0.221 A 
ATOM      8  N   UNL     1       3.449   6.079  -3.937  0.00  0.00    -0.195 NA
ATOM      9  N   UNL     1       3.162   6.683  -6.199  0.00  0.00    -0.276 N 
ATOM     10  C   UNL     1       2.490   7.607  -7.107  0.00  0.00    +0.115 C 
ATOM     11  C   UNL     1       2.955   5.643  -2.751  0.00  0.00    +0.174 A 
ATOM     12  N   UNL     1       3.782   5.299  -1.655  0.00  0.00    -0.107 NA
ATOM     13  C   UNL     1      -0.564   5.308  -3.696  0.00  0.00    +0.059 A 
ENDROOT
BRANCH   1  15
ATOM     14  C   UNL     1      -3.525   5.612  -2.933  0.00  0.00    +0.253 C 
ATOM     15  O   UNL     1      -2.458   5.000  -2.242  0.00  0.00    -0.468 OA
ENDBRANCH   1  15
BRANCH   2  16
ATOM     16  O   UNL     1      -1.004   6.505  -0.337  0.00  0.00    -0.468 OA
ATOM     17  C   UNL     1      -1.469   7.823  -0.519  0.00  0.00    +0.253 C 
ENDBRANCH   2  16
BRANCH   9  18
ATOM     18  C   UNL     1       3.793   5.449  -6.664  0.00  0.00    +0.095 C 
BRANCH  18  19
ATOM     19  C   UNL     1       4.213   5.600  -8.105  0.00  0.00    +0.045 C 
BRANCH  19  20
ATOM     20  C   UNL     1       3.718   4.369  -8.857  0.00  0.00    +0.117 C 
BRANCH  20  21
ATOM     21  N   UNL     1       2.857   4.894  -9.917  0.00  0.00    -0.203 NA
ATOM     22  C   UNL     1       1.473   4.629  -9.705  0.00  0.00    +0.269 C 
ATOM     23  O   UNL     1       0.941   4.964  -8.643  0.00  0.00    -0.271 OA
BRANCH  22  24
ATOM     24  C   UNL     1       0.558   4.718 -11.041  0.00  0.00    +0.193 C 
ATOM     25  O   UNL     1       1.575   5.589 -11.766  0.00  0.00    -0.347 OA
ATOM     26  C   UNL     1       0.757   6.491 -12.404  0.00  0.00    +0.143 C 
ATOM     27  C   UNL     1       0.244   7.155 -11.130  0.00  0.00    +0.035 C 
ATOM     28  C   UNL     1      -0.303   5.989 -10.429  0.00  0.00    +0.042 C 
ENDBRANCH  22  24
ENDBRANCH  20  21
ENDBRANCH  19  20
ENDBRANCH  18  19
ENDBRANCH   9  18
TORSDOF 7
ENDMDL
MODEL 7
REMARK VINA RESULT:      -7.6      2.462     10.052
REMARK  Name = 
REMARK  7 active torsions:
REMARK  status: ('A' for Active; 'I' for Inactive)
REMARK    1  A    between atoms: O_2  and  C_3
REMARK    2  A    between atoms: N_8  and  C_10
REMARK    3  A    between atoms: C_10  and  C_11
REMARK    4  A    between atoms: C_11  and  C_12
REMARK    5  A    between atoms: C_12  and  N_13
REMARK    6  A    between atoms: C_14  and  C_16
REMARK    7  A    between atoms: C_26  and  O_27
REMARK                            x       y       z     vdW  Elec       q    Type
REMARK                         _______ _______ _______ _____ _____    ______ ____
ROOT
ATOM      1  C   UNL     1       5.917   6.574 -12.385  0.00  0.00    +0.174 A 
ATOM      2  C   UNL     1       6.719   5.807 -11.549  0.00  0.00    +0.173 A 
ATOM      3  C   UNL     1       6.373   5.581 -10.223  0.00  0.00    +0.044 A 
ATOM      4  C   UNL     1       5.040   5.800  -9.896  0.00  0.00    +0.056 A 
ATOM      5  C   UNL     1       4.122   6.266 -10.829  0.00  0.00    +0.090 A 
ATOM      6  N   UNL     1       2.837   5.890 -10.654  0.00  0.00    -0.213 NA
ATOM      7  C   UNL     1       2.514   4.927  -9.755  0.00  0.00    +0.221 A 
ATOM      8  N   UNL     1       3.252   4.953  -8.616  0.00  0.00    -0.195 NA
ATOM      9  N   UNL     1       1.096   4.808  -9.559  0.00  0.00    -0.276 N 
ATOM     10  C   UNL     1       0.314   4.251 -10.658  0.00  0.00    +0.115 C 
ATOM     11  C   UNL     1       4.559   5.315  -8.685  0.00  0.00    +0.174 A 
ATOM     12  N   UNL     1       5.432   5.251  -7.574  0.00  0.00    -0.107 NA
ATOM     13  C   UNL     1       4.574   6.723 -12.062  0.00  0.00    +0.059 A 
ENDROOT
BRANCH   1  15
ATOM     14  C   UNL     1       6.181   6.976 -14.750  0.00  0.00    +0.253 C 
ATOM     15  O   UNL     1       6.484   7.298 -13.410  0.00  0.00    -0.468 OA
ENDBRANCH   1  15
BRANCH   2  16
ATOM     16  O   UNL     1       7.819   5.181 -12.090  0.00  0.00    -0.468 OA
ATOM     17  C   UNL     1       9.082   5.805 -12.039  0.00  0.00    +0.253 C 
ENDBRANCH   2  16
BRANCH   9  18
ATOM     18  C   UNL     1       0.593   5.885  -8.707  0.00  0.00    +0.095 C 
BRANCH  18  19
ATOM     19  C   UNL     1      -0.577   5.390  -7.894  0.00  0.00    +0.045 C 
BRANCH  19  20
ATOM     20  C   UNL     1      -0.312   5.760  -6.438  0.00  0.00    +0.117 C 
BRANCH  20  21
ATOM     21  N   UNL     1      -1.630   6.044  -5.872  0.00  0.00    -0.203 NA
ATOM     22  C   UNL     1      -1.587   6.906  -4.739  0.00  0.00    +0.269 C 
ATOM     23  O   UNL     1      -1.015   7.996  -4.821  0.00  0.00    -0.271 OA
BRANCH  22  24
ATOM     24  C   UNL     1      -2.901   6.839  -3.791  0.00  0.00    +0.193 C 
ATOM     25  O   UNL     1      -2.204   7.573  -2.653  0.00  0.00    -0.347 OA
ATOM     26  C   UNL     1      -2.660   6.875  -1.559  0.00  0.00    +0.143 C 
ATOM     27  C   UNL     1      -1.954   5.569  -1.911  0.00  0.00    +0.035 C 
ATOM     28  C   UNL     1      -2.499   5.331  -3.251  0.00  0.00    +0.042 C 
ENDBRANCH  22  24
ENDBRANCH  20  21
ENDBRANCH  19  20
ENDBRANCH  18  19
ENDBRANCH   9  18
TORSDOF 7
ENDMDL
MODEL 8
REMARK VINA RESULT:      -7.5      2.373      9.337
REMARK  Name = 
REMARK  7 active torsions:
REMARK  status: ('A' for Active; 'I' for Inactive)
REMARK    1  A    between atoms: O_2  and  C_3
REMARK    2  A    between atoms: N_8  and  C_10
REMARK    3  A    between atoms: C_10  and  C_11
REMARK    4  A    between atoms: C_11  and  C_12
REMARK    5  A    between atoms: C_12  and  N_13
REMARK    6  A    between atoms: C_14  and  C_16
REMARK    7  A    between atoms: C_26  and  O_27
REMARK                            x       y       z     vdW  Elec       q    Type
REMARK                         _______ _______ _______ _____ _____    ______ ____
ROOT
ATOM      1  C   UNL     1       1.388   6.497 -11.670  0.00  0.00    +0.174 A 
ATOM      2  C   UNL     1       2.579   6.022 -12.206  0.00  0.00    +0.173 A 
ATOM      3  C   UNL     1       3.749   5.993 -11.458  0.00  0.00    +0.044 A 
ATOM      4  C   UNL     1       3.591   6.071 -10.079  0.00  0.00    +0.056 A 
ATOM      5  C   UNL     1       2.341   6.219  -9.490  0.00  0.00    +0.090 A 
ATOM      6  N   UNL     1       2.190   5.697  -8.253  0.00  0.00    -0.213 NA
ATOM      7  C   UNL     1       3.134   4.877  -7.727  0.00  0.00    +0.221 A 
ATOM      8  N   UNL     1       4.410   5.219  -8.040  0.00  0.00    -0.195 NA
ATOM      9  N   UNL     1       2.904   4.590  -6.339  0.00  0.00    -0.276 N 
ATOM     10  C   UNL     1       1.768   3.732  -6.013  0.00  0.00    +0.115 C 
ATOM     11  C   UNL     1       4.670   5.750  -9.262  0.00  0.00    +0.174 A 
ATOM     12  N   UNL     1       5.982   6.018  -9.719  0.00  0.00    -0.107 NA
ATOM     13  C   UNL     1       1.240   6.504 -10.288  0.00  0.00    +0.059 A 
ENDROOT
BRANCH   1  15
ATOM     14  C   UNL     1      -0.657   7.754 -11.919  0.00  0.00    +0.253 C 
ATOM     15  O   UNL     1       0.456   7.096 -12.486  0.00  0.00    -0.468 OA
ENDBRANCH   1  15
BRANCH   2  16
ATOM     16  O   UNL     1       2.556   5.475 -13.469  0.00  0.00    -0.468 OA
ATOM     17  C   UNL     1       3.485   5.903 -14.439  0.00  0.00    +0.253 C 
ENDBRANCH   2  16
BRANCH   9  18
ATOM     18  C   UNL     1       3.299   5.718  -5.498  0.00  0.00    +0.095 C 
BRANCH  18  19
ATOM     19  C   UNL     1       2.093   6.269  -4.780  0.00  0.00    +0.045 C 
BRANCH  19  20
ATOM     20  C   UNL     1       2.212   5.874  -3.312  0.00  0.00    +0.117 C 
BRANCH  20  21
ATOM     21  N   UNL     1       1.035   6.452  -2.666  0.00  0.00    -0.203 NA
ATOM     22  C   UNL     1       0.001   5.503  -2.420  0.00  0.00    +0.269 C 
ATOM     23  O   UNL     1       0.254   4.470  -1.794  0.00  0.00    -0.271 OA
BRANCH  22  24
ATOM     24  C   UNL     1      -1.469   6.150  -2.196  0.00  0.00    +0.193 C 
ATOM     25  O   UNL     1      -2.173   4.834  -2.495  0.00  0.00    -0.347 OA
ATOM     26  C   UNL     1      -3.243   5.260  -3.246  0.00  0.00    +0.143 C 
ATOM     27  C   UNL     1      -2.412   5.743  -4.431  0.00  0.00    +0.035 C 
ATOM     28  C   UNL     1      -1.523   6.695  -3.755  0.00  0.00    +0.042 C 
ENDBRANCH  22  24
ENDBRANCH  20  21
ENDBRANCH  19  20
ENDBRANCH  18  19
ENDBRANCH   9  18
TORSDOF 7
ENDMDL
MODEL 9
REMARK VINA RESULT:      -7.5      1.786      9.139
REMARK  Name = 
REMARK  7 active torsions:
REMARK  status: ('A' for Active; 'I' for Inactive)
REMARK    1  A    between atoms: O_2  and  C_3
REMARK    2  A    between atoms: N_8  and  C_10
REMARK    3  A    between atoms: C_10  and  C_11
REMARK    4  A    between atoms: C_11  and  C_12
REMARK    5  A    between atoms: C_12  and  N_13
REMARK    6  A    between atoms: C_14  and  C_16
REMARK    7  A    between atoms: C_26  and  O_27
REMARK                            x       y       z     vdW  Elec       q    Type
REMARK                         _______ _______ _______ _____ _____    ______ ____
ROOT
ATOM      1  C   UNL     1       5.838   5.529 -10.372  0.00  0.00    +0.174 A 
ATOM      2  C   UNL     1       4.587   5.807 -10.909  0.00  0.00    +0.173 A 
ATOM      3  C   UNL     1       3.421   5.540 -10.203  0.00  0.00    +0.044 A 
ATOM      4  C   UNL     1       3.566   5.374  -8.830  0.00  0.00    +0.056 A 
ATOM      5  C   UNL     1       4.809   5.422  -8.212  0.00  0.00    +0.090 A 
ATOM      6  N   UNL     1       4.831   5.853  -6.932  0.00  0.00    -0.213 NA
ATOM      7  C   UNL     1       3.733   6.423  -6.374  0.00  0.00    +0.221 A 
ATOM      8  N   UNL     1       2.557   5.867  -6.759  0.00  0.00    -0.195 NA
ATOM      9  N   UNL     1       3.877   6.627  -4.959  0.00  0.00    -0.276 N 
ATOM     10  C   UNL     1       4.814   7.658  -4.524  0.00  0.00    +0.115 C 
ATOM     11  C   UNL     1       2.430   5.405  -8.029  0.00  0.00    +0.174 A 
ATOM     12  N   UNL     1       1.206   4.926  -8.552  0.00  0.00    -0.107 NA
ATOM     13  C   UNL     1       5.959   5.429  -8.992  0.00  0.00    +0.059 A 
ENDROOT
BRANCH   1  15
ATOM     14  C   UNL     1       8.094   5.924 -11.134  0.00  0.00    +0.253 C 
ATOM     15  O   UNL     1       6.886   5.198 -11.201  0.00  0.00    -0.468 OA
ENDBRANCH   1  15
BRANCH   2  16
ATOM     16  O   UNL     1       4.524   6.457 -12.121  0.00  0.00    -0.468 OA
ATOM     17  C   UNL     1       4.123   5.756 -13.277  0.00  0.00    +0.253 C 
ENDBRANCH   2  16
BRANCH   9  18
ATOM     18  C   UNL     1       3.698   5.374  -4.229  0.00  0.00    +0.095 C 
BRANCH  18  19
ATOM     19  C   UNL     1       3.309   5.664  -2.800  0.00  0.00    +0.045 C 
BRANCH  19  20
ATOM     20  C   UNL     1       1.920   5.075  -2.575  0.00  0.00    +0.117 C 
BRANCH  20  21
ATOM     21  N   UNL     1       0.996   6.184  -2.804  0.00  0.00    -0.203 NA
ATOM     22  C   UNL     1      -0.339   5.764  -3.069  0.00  0.00    +0.269 C 
ATOM     23  O   UNL     1      -0.911   5.007  -2.280  0.00  0.00    -0.271 OA
BRANCH  22  24
ATOM     24  C   UNL     1      -1.259   6.871  -3.817  0.00  0.00    +0.193 C 
ATOM     25  O   UNL     1      -2.279   5.830  -4.258  0.00  0.00    -0.347 OA
ATOM     26  C   UNL     1      -2.562   6.250  -5.536  0.00  0.00    +0.143 C 
ATOM     27  C   UNL     1      -1.174   5.962  -6.100  0.00  0.00    +0.035 C 
ATOM     28  C   UNL     1      -0.352   6.770  -5.194  0.00  0.00    +0.042 C 
ENDBRANCH  22  24
ENDBRANCH  20  21
ENDBRANCH  19  20
ENDBRANCH  18  19
ENDBRANCH   9  18
TORSDOF 7
ENDMDL
