MODEL 1
REMARK VINA RESULT:      -9.7      0.000      0.000
REMARK  Name = 
REMARK  12 active torsions:
REMARK  status: ('A' for Active; 'I' for Inactive)
REMARK    1  A    between atoms: C_2  and  N_5
REMARK    2  A    between atoms: C_6  and  C_8
REMARK    3  A    between atoms: N_10  and  C_11
REMARK    4  A    between atoms: C_11  and  C_12
REMARK    5  A    between atoms: N_20  and  C_21
REMARK    6  A    between atoms: C_21  and  C_22
REMARK    7  A    between atoms: C_22  and  C_24
REMARK    8  A    between atoms: C_24  and  C_25
REMARK    9  A    between atoms: C_25  and  C_26
REMARK   10  A    between atoms: C_25  and  C_33
REMARK   11  A    between atoms: C_26  and  C_27
REMARK   12  A    between atoms: N_35  and  C_36
REMARK                            x       y       z     vdW  Elec       q    Type
REMARK                         _______ _______ _______ _____ _____    ______ ____
ROOT
ATOM      1  C   UNL     1       4.171   5.198  -5.638  0.00  0.00    +0.168 C 
ATOM      2  O   UNL     1       3.617   3.888  -5.031  0.00  0.00    -0.222 OA
ENDROOT
BRANCH   1   3
ATOM      3  C   UNL     1       3.302   6.093  -4.526  0.00  0.00    +0.106 C 
BRANCH   3   5
ATOM      4  C   UNL     1       1.914   5.951  -2.553  0.00  0.00    +0.153 C 
ATOM      5  N   UNL     1       3.147   5.352  -3.368  0.00  0.00    -0.262 NA
ATOM      6  C   UNL     1       4.171   5.509  -2.351  0.00  0.00    +0.090 C 
ATOM      7  C   UNL     1       4.666   6.950  -2.390  0.00  0.00    +0.090 C 
ATOM      8  N   UNL     1       3.520   7.751  -2.046  0.00  0.00    -0.266 NA
ATOM      9  C   UNL     1       2.377   7.524  -2.881  0.00  0.00    +0.098 C 
BRANCH   4  11
ATOM     10  N   UNL     1      -0.191   6.758  -3.592  0.00  0.00    -0.208 NA
ATOM     11  C   UNL     1       0.933   5.908  -3.868  0.00  0.00    +0.257 C 
ATOM     12  O   UNL     1       0.592   4.687  -3.932  0.00  0.00    -0.272 OA
BRANCH  10  14
ATOM     13  C   UNL     1      -0.807   6.412  -5.751  0.00  0.00    +0.022 C 
ATOM     14  C   UNL     1      -1.257   6.740  -4.590  0.00  0.00    +0.079 C 
ATOM     15  C   UNL     1      -1.812   8.158  -4.581  0.00  0.00    +0.022 C 
ATOM     16  C   UNL     1      -2.322   5.783  -4.092  0.00  0.00    +0.022 C 
ENDBRANCH  10  14
ENDBRANCH   4  11
BRANCH   8  17
ATOM     17  C   UNL     1       3.221   7.776  -0.648  0.00  0.00    +0.101 C 
BRANCH  17  18
ATOM     18  C   UNL     1       3.702   9.077  -0.091  0.00  0.00    +0.013 A 
ATOM     19  C   UNL     1       4.218   9.151   1.197  0.00  0.00    +0.096 A 
ATOM     20  N   UNL     1       4.300  10.285   1.897  0.00  0.00    -0.243 NA
ATOM     21  C   UNL     1       3.782  11.419   1.373  0.00  0.00    +0.099 A 
ATOM     22  C   UNL     1       3.543  11.426   0.028  0.00  0.00    +0.020 A 
ATOM     23  C   UNL     1       3.532  10.279  -0.743  0.00  0.00    +0.000 A 
ENDBRANCH  17  18
ENDBRANCH   8  17
ENDBRANCH   3   5
ENDBRANCH   1   3
BRANCH   1  24
ATOM     24  C   UNL     1       2.968   5.186  -6.817  0.00  0.00    +0.044 C 
BRANCH  24  25
ATOM     25  C   UNL     1       3.540   6.481  -7.692  0.00  0.00    +0.085 C 
BRANCH  25  26
ATOM     26  C   UNL     1       2.092   6.796  -8.366  0.00  0.00    +0.242 C 
ATOM     27  N   UNL     1       1.780   6.074  -9.573  0.00  0.00    -0.200 NA
ATOM     28  O   UNL     1       2.212   8.053  -8.557  0.00  0.00    -0.273 OA
BRANCH  27  29
ATOM     29  C   UNL     1       0.486   6.816 -10.126  0.00  0.00    +0.148 C 
ATOM     30  C   UNL     1      -0.515   5.387 -10.220  0.00  0.00    +0.180 C 
ATOM     31  O   UNL     1      -0.190   4.984  -8.779  0.00  0.00    -0.221 OA
ATOM     32  C   UNL     1       0.729   4.481 -10.828  0.00  0.00    +0.061 C 
ATOM     33  C   UNL     1       1.008   5.363 -11.950  0.00  0.00    -0.022 A 
ATOM     34  C   UNL     1       1.121   5.026 -13.296  0.00  0.00    -0.004 A 
ATOM     35  C   UNL     1       1.043   5.960 -14.300  0.00  0.00    -0.000 A 
ATOM     36  C   UNL     1       0.593   7.223 -13.933  0.00  0.00    -0.000 A 
ATOM     37  C   UNL     1       0.377   7.536 -12.596  0.00  0.00    -0.003 A 
ATOM     38  C   UNL     1       0.938   6.666 -11.670  0.00  0.00    -0.004 A 
ENDBRANCH  27  29
ENDBRANCH  25  26
BRANCH  25  39
ATOM     39  C   UNL     1       4.077   5.523  -8.920  0.00  0.00    +0.036 C 
BRANCH  39  40
ATOM     40  C   UNL     1       5.106   6.158  -9.665  0.00  0.00    -0.022 A 
ATOM     41  C   UNL     1       6.375   5.621  -9.430  0.00  0.00    -0.004 A 
ATOM     42  C   UNL     1       7.530   6.251  -9.859  0.00  0.00    -0.000 A 
ATOM     43  C   UNL     1       7.400   7.395 -10.637  0.00  0.00    -0.000 A 
ATOM     44  C   UNL     1       6.196   7.584 -11.304  0.00  0.00    -0.000 A 
ATOM     45  C   UNL     1       5.105   7.015 -10.713  0.00  0.00    -0.004 A 
ENDBRANCH  39  40
ENDBRANCH  25  39
ENDBRANCH  24  25
ENDBRANCH   1  24
TORSDOF 12
ENDMDL
MODEL 2
REMARK VINA RESULT:      -9.6      1.987     10.565
REMARK  Name = 
REMARK  12 active torsions:
REMARK  status: ('A' for Active; 'I' for Inactive)
REMARK    1  A    between atoms: C_2  and  N_5
REMARK    2  A    between atoms: C_6  and  C_8
REMARK    3  A    between atoms: N_10  and  C_11
REMARK    4  A    between atoms: C_11  and  C_12
REMARK    5  A    between atoms: N_20  and  C_21
REMARK    6  A    between atoms: C_21  and  C_22
REMARK    7  A    between atoms: C_22  and  C_24
REMARK    8  A    between atoms: C_24  and  C_25
REMARK    9  A    between atoms: C_25  and  C_26
REMARK   10  A    between atoms: C_25  and  C_33
REMARK   11  A    between atoms: C_26  and  C_27
REMARK   12  A    between atoms: N_35  and  C_36
REMARK                            x       y       z     vdW  Elec       q    Type
REMARK                         _______ _______ _______ _____ _____    ______ ____
ROOT
ATOM      1  C   UNL     1       3.028   7.255  -7.384  0.00  0.00    +0.168 C 
ATOM      2  O   UNL     1       1.763   8.144  -7.410  0.00  0.00    -0.222 OA
ENDROOT
BRANCH   1   3
ATOM      3  C   UNL     1       2.853   6.940  -9.015  0.00  0.00    +0.106 C 
BRANCH   3   5
ATOM      4  C   UNL     1       3.316   5.022 -10.410  0.00  0.00    +0.153 C 
ATOM      5  N   UNL     1       2.486   5.617  -9.185  0.00  0.00    -0.262 NA
ATOM      6  C   UNL     1       1.149   5.370  -9.695  0.00  0.00    +0.090 C 
ATOM      7  C   UNL     1       0.792   6.493 -10.662  0.00  0.00    +0.090 C 
ATOM      8  N   UNL     1       1.744   6.381 -11.736  0.00  0.00    -0.266 NA
ATOM      9  C   UNL     1       3.112   6.417 -11.311  0.00  0.00    +0.098 C 
BRANCH   4  11
ATOM     10  N   UNL     1       5.652   5.706 -10.899  0.00  0.00    -0.208 NA
ATOM     11  C   UNL     1       4.740   5.561  -9.798  0.00  0.00    +0.257 C 
ATOM     12  O   UNL     1       5.092   4.622  -9.020  0.00  0.00    -0.272 OA
BRANCH  10  14
ATOM     13  C   UNL     1       7.277   5.743  -9.312  0.00  0.00    +0.022 C 
ATOM     14  C   UNL     1       7.028   6.040 -10.539  0.00  0.00    +0.079 C 
ATOM     15  C   UNL     1       7.134   7.538 -10.789  0.00  0.00    +0.022 C 
ATOM     16  C   UNL     1       7.935   5.306 -11.507  0.00  0.00    +0.022 C 
ENDBRANCH  10  14
ENDBRANCH   4  11
BRANCH   8  17
ATOM     17  C   UNL     1       1.454   5.336 -12.669  0.00  0.00    +0.101 C 
BRANCH  17  18
ATOM     18  C   UNL     1       1.474   5.920 -14.045  0.00  0.00    +0.013 A 
ATOM     19  C   UNL     1       2.677   6.221 -14.672  0.00  0.00    +0.096 A 
ATOM     20  N   UNL     1       2.787   7.075 -15.693  0.00  0.00    -0.243 NA
ATOM     21  C   UNL     1       1.691   7.755 -16.099  0.00  0.00    +0.099 A 
ATOM     22  C   UNL     1       0.478   7.270 -15.701  0.00  0.00    +0.020 A 
ATOM     23  C   UNL     1       0.333   6.324 -14.704  0.00  0.00    +0.000 A 
ENDBRANCH  17  18
ENDBRANCH   8  17
ENDBRANCH   3   5
ENDBRANCH   1   3
BRANCH   1  24
ATOM     24  C   UNL     1       2.118   5.938  -6.862  0.00  0.00    +0.044 C 
BRANCH  24  25
ATOM     25  C   UNL     1       1.282   6.740  -5.667  0.00  0.00    +0.085 C 
BRANCH  25  26
ATOM     26  C   UNL     1       1.771   5.718  -4.497  0.00  0.00    +0.242 C 
ATOM     27  N   UNL     1       1.572   6.161  -3.141  0.00  0.00    -0.200 NA
ATOM     28  O   UNL     1       3.004   5.609  -4.808  0.00  0.00    -0.273 OA
BRANCH  27  29
ATOM     29  C   UNL     1       2.412   5.117  -2.282  0.00  0.00    +0.148 C 
ATOM     30  C   UNL     1       1.211   4.905  -1.031  0.00  0.00    +0.180 C 
ATOM     31  O   UNL     1       0.102   4.628  -2.050  0.00  0.00    -0.221 OA
ATOM     32  C   UNL     1       0.872   6.524  -0.997  0.00  0.00    +0.061 C 
ATOM     33  C   UNL     1       2.243   6.949  -0.757  0.00  0.00    -0.022 A 
ATOM     34  C   UNL     1       2.711   7.806   0.234  0.00  0.00    -0.004 A 
ATOM     35  C   UNL     1       4.036   7.871   0.588  0.00  0.00    -0.000 A 
ATOM     36  C   UNL     1       4.856   6.862   0.094  0.00  0.00    -0.000 A 
ATOM     37  C   UNL     1       4.365   5.936  -0.819  0.00  0.00    -0.003 A 
ATOM     38  C   UNL     1       3.167   6.269  -1.437  0.00  0.00    -0.004 A 
ENDBRANCH  27  29
ENDBRANCH  25  26
BRANCH  25  39
ATOM     39  C   UNL     1      -0.121   5.940  -5.993  0.00  0.00    +0.036 C 
BRANCH  39  40
ATOM     40  C   UNL     1      -1.126   6.238  -5.034  0.00  0.00    -0.022 A 
ATOM     41  C   UNL     1      -1.273   7.607  -4.790  0.00  0.00    -0.004 A 
ATOM     42  C   UNL     1      -2.012   8.086  -3.723  0.00  0.00    -0.000 A 
ATOM     43  C   UNL     1      -2.708   7.170  -2.945  0.00  0.00    -0.000 A 
ATOM     44  C   UNL     1      -2.997   5.934  -3.513  0.00  0.00    -0.000 A 
ATOM     45  C   UNL     1      -2.121   5.513  -4.471  0.00  0.00    -0.004 A 
ENDBRANCH  39  40
ENDBRANCH  25  39
ENDBRANCH  24  25
ENDBRANCH   1  24
TORSDOF 12
ENDMDL
MODEL 3
REMARK VINA RESULT:      -9.4      2.064      9.777
REMARK  Name = 
REMARK  12 active torsions:
REMARK  status: ('A' for Active; 'I' for Inactive)
REMARK    1  A    between atoms: C_2  and  N_5
REMARK    2  A    between atoms: C_6  and  C_8
REMARK    3  A    between atoms: N_10  and  C_11
REMARK    4  A    between atoms: C_11  and  C_12
REMARK    5  A    between atoms: N_20  and  C_21
REMARK    6  A    between atoms: C_21  and  C_22
REMARK    7  A    between atoms: C_22  and  C_24
REMARK    8  A    between atoms: C_24  and  C_25
REMARK    9  A    between atoms: C_25  and  C_26
REMARK   10  A    between atoms: C_25  and  C_33
REMARK   11  A    between atoms: C_26  and  C_27
REMARK   12  A    between atoms: N_35  and  C_36
REMARK                            x       y       z     vdW  Elec       q    Type
REMARK                         _______ _______ _______ _____ _____    ______ ____
ROOT
ATOM      1  C   UNL     1       1.735   4.623  -6.612  0.00  0.00    +0.168 C 
ATOM      2  O   UNL     1       2.041   3.109  -6.545  0.00  0.00    -0.222 OA
ENDROOT
BRANCH   1   3
ATOM      3  C   UNL     1       2.934   4.826  -7.757  0.00  0.00    +0.106 C 
BRANCH   3   5
ATOM      4  C   UNL     1       3.488   6.713  -9.160  0.00  0.00    +0.153 C 
ATOM      5  N   UNL     1       3.419   6.119  -7.682  0.00  0.00    -0.262 NA
ATOM      6  C   UNL     1       4.819   6.271  -7.326  0.00  0.00    +0.090 C 
ATOM      7  C   UNL     1       5.592   5.094  -7.913  0.00  0.00    +0.090 C 
ATOM      8  N   UNL     1       5.441   5.220  -9.339  0.00  0.00    -0.266 NA
ATOM      9  C   UNL     1       4.079   5.277  -9.781  0.00  0.00    +0.098 C 
BRANCH   4  11
ATOM     10  N   UNL     1       1.846   6.042 -10.897  0.00  0.00    -0.208 NA
ATOM     11  C   UNL     1       1.940   6.279  -9.483  0.00  0.00    +0.257 C 
ATOM     12  O   UNL     1       1.276   7.303  -9.136  0.00  0.00    -0.272 OA
BRANCH  10  14
ATOM     13  C   UNL     1      -0.188   6.867 -11.479  0.00  0.00    +0.022 C 
ATOM     14  C   UNL     1       0.502   5.783 -11.406  0.00  0.00    +0.079 C 
ATOM     15  C   UNL     1      -0.098   4.798 -10.413  0.00  0.00    +0.022 C 
ATOM     16  C   UNL     1       0.657   5.105 -12.753  0.00  0.00    +0.022 C 
ENDBRANCH  10  14
ENDBRANCH   4  11
BRANCH   8  17
ATOM     17  C   UNL     1       6.286   6.211  -9.932  0.00  0.00    +0.101 C 
BRANCH  17  18
ATOM     18  C   UNL     1       6.406   5.910 -11.391  0.00  0.00    +0.013 A 
ATOM     19  C   UNL     1       7.319   4.968 -11.849  0.00  0.00    +0.096 A 
ATOM     20  N   UNL     1       7.762   4.918 -13.108  0.00  0.00    -0.243 NA
ATOM     21  C   UNL     1       7.375   5.879 -13.978  0.00  0.00    +0.099 A 
ATOM     22  C   UNL     1       6.280   6.620 -13.635  0.00  0.00    +0.020 A 
ATOM     23  C   UNL     1       5.744   6.631 -12.361  0.00  0.00    +0.000 A 
ENDBRANCH  17  18
ENDBRANCH   8  17
ENDBRANCH   3   5
ENDBRANCH   1   3
BRANCH   1  24
ATOM     24  C   UNL     1       2.728   4.905  -5.281  0.00  0.00    +0.044 C 
BRANCH  24  25
ATOM     25  C   UNL     1       1.947   6.272  -4.742  0.00  0.00    +0.085 C 
BRANCH  25  26
ATOM     26  C   UNL     1       3.128   6.655  -3.688  0.00  0.00    +0.242 C 
ATOM     27  N   UNL     1       2.732   6.792  -2.310  0.00  0.00    -0.200 NA
ATOM     28  O   UNL     1       3.529   7.753  -4.201  0.00  0.00    -0.273 OA
BRANCH  27  29
ATOM     29  C   UNL     1       4.005   7.454  -1.621  0.00  0.00    +0.148 C 
ATOM     30  C   UNL     1       3.954   6.478  -0.172  0.00  0.00    +0.180 C 
ATOM     31  O   UNL     1       3.872   5.175  -0.972  0.00  0.00    -0.221 OA
ATOM     32  C   UNL     1       2.307   6.604  -0.073  0.00  0.00    +0.061 C 
ATOM     33  C   UNL     1       2.276   8.058  -0.086  0.00  0.00    -0.022 A 
ATOM     34  C   UNL     1       1.627   8.908   0.804  0.00  0.00    -0.004 A 
ATOM     35  C   UNL     1       1.936  10.242   0.910  0.00  0.00    -0.000 A 
ATOM     36  C   UNL     1       3.100  10.657   0.272  0.00  0.00    -0.000 A 
ATOM     37  C   UNL     1       3.814   9.781  -0.538  0.00  0.00    -0.003 A 
ATOM     38  C   UNL     1       3.142   8.629  -0.926  0.00  0.00    -0.004 A 
ENDBRANCH  27  29
ENDBRANCH  25  26
BRANCH  25  39
ATOM     39  C   UNL     1       1.038   5.430  -3.656  0.00  0.00    +0.036 C 
BRANCH  39  40
ATOM     40  C   UNL     1      -0.312   5.872  -3.652  0.00  0.00    -0.022 A 
ATOM     41  C   UNL     1      -0.574   6.864  -4.601  0.00  0.00    -0.004 A 
ATOM     42  C   UNL     1      -1.748   7.597  -4.592  0.00  0.00    -0.000 A 
ATOM     43  C   UNL     1      -2.728   7.250  -3.669  0.00  0.00    -0.000 A 
ATOM     44  C   UNL     1      -2.686   5.965  -3.142  0.00  0.00    -0.000 A 
ATOM     45  C   UNL     1      -1.447   5.394  -3.091  0.00  0.00    -0.004 A 
ENDBRANCH  39  40
ENDBRANCH  25  39
ENDBRANCH  24  25
ENDBRANCH   1  24
TORSDOF 12
ENDMDL
MODEL 4
REMARK VINA RESULT:      -9.2      1.904      2.988
REMARK  Name = 
REMARK  12 active torsions:
REMARK  status: ('A' for Active; 'I' for Inactive)
REMARK    1  A    between atoms: C_2  and  N_5
REMARK    2  A    between atoms: C_6  and  C_8
REMARK    3  A    between atoms: N_10  and  C_11
REMARK    4  A    between atoms: C_11  and  C_12
REMARK    5  A    between atoms: N_20  and  C_21
REMARK    6  A    between atoms: C_21  and  C_22
REMARK    7  A    between atoms: C_22  and  C_24
REMARK    8  A    between atoms: C_24  and  C_25
REMARK    9  A    between atoms: C_25  and  C_26
REMARK   10  A    between atoms: C_25  and  C_33
REMARK   11  A    between atoms: C_26  and  C_27
REMARK   12  A    between atoms: N_35  and  C_36
REMARK                            x       y       z     vdW  Elec       q    Type
REMARK                         _______ _______ _______ _____ _____    ______ ____
ROOT
ATOM      1  C   UNL     1       1.590   7.215  -8.080  0.00  0.00    +0.168 C 
ATOM      2  O   UNL     1       2.775   8.161  -8.385  0.00  0.00    -0.222 OA
ENDROOT
BRANCH   1   3
ATOM      3  C   UNL     1       2.051   7.138  -6.476  0.00  0.00    +0.106 C 
BRANCH   3   5
ATOM      4  C   UNL     1       1.944   5.314  -4.895  0.00  0.00    +0.153 C 
ATOM      5  N   UNL     1       2.607   5.897  -6.223  0.00  0.00    -0.262 NA
ATOM      6  C   UNL     1       3.994   5.879  -5.793  0.00  0.00    +0.090 C 
ATOM      7  C   UNL     1       4.250   7.125  -4.952  0.00  0.00    +0.090 C 
ATOM      8  N   UNL     1       3.390   6.987  -3.806  0.00  0.00    -0.266 NA
ATOM      9  C   UNL     1       2.006   6.801  -4.132  0.00  0.00    +0.098 C 
BRANCH   4  11
ATOM     10  N   UNL     1      -0.391   5.919  -4.306  0.00  0.00    -0.208 NA
ATOM     11  C   UNL     1       0.424   5.600  -5.445  0.00  0.00    +0.257 C 
ATOM     12  O   UNL     1       0.092   4.488  -5.960  0.00  0.00    -0.272 OA
BRANCH  10  14
ATOM     13  C   UNL     1      -2.116   5.674  -5.763  0.00  0.00    +0.022 C 
ATOM     14  C   UNL     1      -1.819   6.065  -4.573  0.00  0.00    +0.079 C 
ATOM     15  C   UNL     1      -2.092   7.551  -4.383  0.00  0.00    +0.022 C 
ATOM     16  C   UNL     1      -2.557   5.280  -3.506  0.00  0.00    +0.022 C 
ENDBRANCH  10  14
ENDBRANCH   4  11
BRANCH   8  17
ATOM     17  C   UNL     1       3.878   6.082  -2.812  0.00  0.00    +0.101 C 
BRANCH  17  18
ATOM     18  C   UNL     1       4.105   6.851  -1.550  0.00  0.00    +0.013 A 
ATOM     19  C   UNL     1       4.334   6.193  -0.348  0.00  0.00    +0.096 A 
ATOM     20  N   UNL     1       4.160   6.757   0.849  0.00  0.00    -0.243 NA
ATOM     21  C   UNL     1       3.655   8.010   0.916  0.00  0.00    +0.099 A 
ATOM     22  C   UNL     1       3.700   8.758  -0.225  0.00  0.00    +0.020 A 
ATOM     23  C   UNL     1       3.960   8.219  -1.472  0.00  0.00    +0.000 A 
ENDBRANCH  17  18
ENDBRANCH   8  17
ENDBRANCH   3   5
ENDBRANCH   1   3
BRANCH   1  24
ATOM     24  C   UNL     1       2.496   5.885  -8.577  0.00  0.00    +0.044 C 
BRANCH  24  25
ATOM     25  C   UNL     1       3.360   6.671  -9.763  0.00  0.00    +0.085 C 
BRANCH  25  26
ATOM     26  C   UNL     1       2.867   5.656 -10.937  0.00  0.00    +0.242 C 
ATOM     27  N   UNL     1       3.006   6.130 -12.290  0.00  0.00    -0.200 NA
ATOM     28  O   UNL     1       1.648   5.499 -10.589  0.00  0.00    -0.273 OA
BRANCH  27  29
ATOM     29  C   UNL     1       2.173   5.076 -13.142  0.00  0.00    +0.148 C 
ATOM     30  C   UNL     1       3.439   4.739 -14.299  0.00  0.00    +0.180 C 
ATOM     31  O   UNL     1       4.468   4.475 -13.197  0.00  0.00    -0.221 OA
ATOM     32  C   UNL     1       3.854   6.338 -14.401  0.00  0.00    +0.061 C 
ATOM     33  C   UNL     1       2.523   6.806 -14.753  0.00  0.00    -0.022 A 
ATOM     34  C   UNL     1       2.157   7.624 -15.818  0.00  0.00    -0.004 A 
ATOM     35  C   UNL     1       0.861   7.725 -16.259  0.00  0.00    -0.000 A 
ATOM     36  C   UNL     1      -0.034   6.783 -15.765  0.00  0.00    -0.000 A 
ATOM     37  C   UNL     1       0.355   5.891 -14.772  0.00  0.00    -0.003 A 
ATOM     38  C   UNL     1       1.527   6.207 -14.097  0.00  0.00    -0.004 A 
ENDBRANCH  27  29
ENDBRANCH  25  26
BRANCH  25  39
ATOM     39  C   UNL     1       4.745   5.847  -9.420  0.00  0.00    +0.036 C 
BRANCH  39  40
ATOM     40  C   UNL     1       5.779   6.157 -10.343  0.00  0.00    -0.022 A 
ATOM     41  C   UNL     1       5.767   7.490 -10.763  0.00  0.00    -0.004 A 
ATOM     42  C   UNL     1       6.524   7.928 -11.835  0.00  0.00    -0.000 A 
ATOM     43  C   UNL     1       7.395   7.026 -12.434  0.00  0.00    -0.000 A 
ATOM     44  C   UNL     1       7.792   5.925 -11.684  0.00  0.00    -0.000 A 
ATOM     45  C   UNL     1       6.902   5.511 -10.736  0.00  0.00    -0.004 A 
ENDBRANCH  39  40
ENDBRANCH  25  39
ENDBRANCH  24  25
ENDBRANCH   1  24
TORSDOF 12
ENDMDL
MODEL 5
REMARK VINA RESULT:      -9.1      2.525      5.316
REMARK  Name = 
REMARK  12 active torsions:
REMARK  status: ('A' for Active; 'I' for Inactive)
REMARK    1  A    between atoms: C_2  and  N_5
REMARK    2  A    between atoms: C_6  and  C_8
REMARK    3  A    between atoms: N_10  and  C_11
REMARK    4  A    between atoms: C_11  and  C_12
REMARK    5  A    between atoms: N_20  and  C_21
REMARK    6  A    between atoms: C_21  and  C_22
REMARK    7  A    between atoms: C_22  and  C_24
REMARK    8  A    between atoms: C_24  and  C_25
REMARK    9  A    between atoms: C_25  and  C_26
REMARK   10  A    between atoms: C_25  and  C_33
REMARK   11  A    between atoms: C_26  and  C_27
REMARK   12  A    between atoms: N_35  and  C_36
REMARK                            x       y       z     vdW  Elec       q    Type
REMARK                         _______ _______ _______ _____ _____    ______ ____
ROOT
ATOM      1  C   UNL     1       2.418   5.263  -1.763  0.00  0.00    +0.168 C 
ATOM      2  O   UNL     1       0.895   5.135  -2.002  0.00  0.00    -0.222 OA
ENDROOT
BRANCH   1   3
ATOM      3  C   UNL     1       2.175   6.678  -0.908  0.00  0.00    +0.106 C 
BRANCH   3   5
ATOM      4  C   UNL     1       2.319   7.683   1.284  0.00  0.00    +0.153 C 
ATOM      5  N   UNL     1       2.944   6.651   0.242  0.00  0.00    -0.262 NA
ATOM      6  C   UNL     1       4.276   7.222   0.150  0.00  0.00    +0.090 C 
ATOM      7  C   UNL     1       4.228   8.392  -0.826  0.00  0.00    +0.090 C 
ATOM      8  N   UNL     1       3.336   9.348  -0.223  0.00  0.00    -0.266 NA
ATOM      9  C   UNL     1       2.041   8.822   0.091  0.00  0.00    +0.098 C 
BRANCH   4  11
ATOM     10  N   UNL     1      -0.019   8.083   0.552  0.00  0.00    -0.208 NA
ATOM     11  C   UNL     1       0.813   7.055   1.112  0.00  0.00    +0.257 C 
ATOM     12  O   UNL     1       0.478   6.781   2.305  0.00  0.00    -0.272 OA
BRANCH  10  14
ATOM     13  C   UNL     1      -1.681   6.569   0.871  0.00  0.00    +0.022 C 
ATOM     14  C   UNL     1      -1.441   7.763   0.456  0.00  0.00    +0.079 C 
ATOM     15  C   UNL     1      -1.769   7.923  -1.022  0.00  0.00    +0.022 C 
ATOM     16  C   UNL     1      -2.192   8.813   1.251  0.00  0.00    +0.022 C 
ENDBRANCH  10  14
ENDBRANCH   4  11
BRANCH   8  17
ATOM     17  C   UNL     1       3.924  10.111   0.835  0.00  0.00    +0.101 C 
BRANCH  17  18
ATOM     18  C   UNL     1       4.092  11.518   0.358  0.00  0.00    +0.013 A 
ATOM     19  C   UNL     1       3.547  11.927  -0.853  0.00  0.00    +0.096 A 
ATOM     20  N   UNL     1       3.961  13.004  -1.524  0.00  0.00    -0.243 NA
ATOM     21  C   UNL     1       5.022  13.700  -1.057  0.00  0.00    +0.099 A 
ATOM     22  C   UNL     1       5.374  13.493   0.246  0.00  0.00    +0.020 A 
ATOM     23  C   UNL     1       4.899  12.434   0.997  0.00  0.00    +0.000 A 
ENDBRANCH  17  18
ENDBRANCH   8  17
ENDBRANCH   3   5
ENDBRANCH   1   3
BRANCH   1  24
ATOM     24  C   UNL     1       2.612   6.007  -3.262  0.00  0.00    +0.044 C 
BRANCH  24  25
ATOM     25  C   UNL     1       1.267   5.344  -3.984  0.00  0.00    +0.085 C 
BRANCH  25  26
ATOM     26  C   UNL     1       2.110   4.748  -5.242  0.00  0.00    +0.242 C 
ATOM     27  N   UNL     1       2.433   5.680  -6.292  0.00  0.00    -0.200 NA
ATOM     28  O   UNL     1       1.309   3.830  -5.624  0.00  0.00    -0.273 OA
BRANCH  27  29
ATOM     29  C   UNL     1       2.960   4.748  -7.469  0.00  0.00    +0.148 C 
ATOM     30  C   UNL     1       3.972   5.959  -8.219  0.00  0.00    +0.180 C 
ATOM     31  O   UNL     1       4.659   6.301  -6.894  0.00  0.00    -0.221 OA
ATOM     32  C   UNL     1       2.826   7.134  -8.010  0.00  0.00    +0.061 C 
ATOM     33  C   UNL     1       1.762   6.415  -8.693  0.00  0.00    -0.022 A 
ATOM     34  C   UNL     1       0.942   6.873  -9.719  0.00  0.00    -0.004 A 
ATOM     35  C   UNL     1       0.216   6.026 -10.518  0.00  0.00    -0.000 A 
ATOM     36  C   UNL     1       0.528   4.674 -10.427  0.00  0.00    -0.000 A 
ATOM     37  C   UNL     1       1.429   4.219  -9.470  0.00  0.00    -0.003 A 
ATOM     38  C   UNL     1       1.719   5.105  -8.441  0.00  0.00    -0.004 A 
ENDBRANCH  27  29
ENDBRANCH  25  26
BRANCH  25  39
ATOM     39  C   UNL     1       0.862   6.759  -4.725  0.00  0.00    +0.036 C 
BRANCH  39  40
ATOM     40  C   UNL     1      -0.484   6.742  -5.180  0.00  0.00    -0.022 A 
ATOM     41  C   UNL     1      -1.221   7.858  -4.773  0.00  0.00    -0.004 A 
ATOM     42  C   UNL     1      -2.598   7.912  -4.897  0.00  0.00    -0.000 A 
ATOM     43  C   UNL     1      -3.239   6.862  -5.543  0.00  0.00    -0.000 A 
ATOM     44  C   UNL     1      -2.477   6.076  -6.400  0.00  0.00    -0.000 A 
ATOM     45  C   UNL     1      -1.147   6.003  -6.099  0.00  0.00    -0.004 A 
ENDBRANCH  39  40
ENDBRANCH  25  39
ENDBRANCH  24  25
ENDBRANCH   1  24
TORSDOF 12
ENDMDL
MODEL 6
REMARK VINA RESULT:      -9.0      2.050      4.506
REMARK  Name = 
REMARK  12 active torsions:
REMARK  status: ('A' for Active; 'I' for Inactive)
REMARK    1  A    between atoms: C_2  and  N_5
REMARK    2  A    between atoms: C_6  and  C_8
REMARK    3  A    between atoms: N_10  and  C_11
REMARK    4  A    between atoms: C_11  and  C_12
REMARK    5  A    between atoms: N_20  and  C_21
REMARK    6  A    between atoms: C_21  and  C_22
REMARK    7  A    between atoms: C_22  and  C_24
REMARK    8  A    between atoms: C_24  and  C_25
REMARK    9  A    between atoms: C_25  and  C_26
REMARK   10  A    between atoms: C_25  and  C_33
REMARK   11  A    between atoms: C_26  and  C_27
REMARK   12  A    between atoms: N_35  and  C_36
REMARK                            x       y       z     vdW  Elec       q    Type
REMARK                         _______ _______ _______ _____ _____    ______ ____
ROOT
ATOM      1  C   UNL     1       1.973   6.869  -7.872  0.00  0.00    +0.168 C 
ATOM      2  O   UNL     1       2.130   8.408  -7.879  0.00  0.00    -0.222 OA
ENDROOT
BRANCH   1   3
ATOM      3  C   UNL     1       2.483   6.813  -6.282  0.00  0.00    +0.106 C 
BRANCH   3   5
ATOM      4  C   UNL     1       1.945   5.048  -4.723  0.00  0.00    +0.153 C 
ATOM      5  N   UNL     1       2.832   5.513  -5.963  0.00  0.00    -0.262 NA
ATOM      6  C   UNL     1       4.144   5.315  -5.372  0.00  0.00    +0.090 C 
ATOM      7  C   UNL     1       4.467   6.530  -4.509  0.00  0.00    +0.090 C 
ATOM      8  N   UNL     1       3.467   6.530  -3.472  0.00  0.00    -0.266 NA
ATOM      9  C   UNL     1       2.119   6.526  -3.959  0.00  0.00    +0.098 C 
BRANCH   4  11
ATOM     10  N   UNL     1      -0.331   5.991  -4.416  0.00  0.00    -0.208 NA
ATOM     11  C   UNL     1       0.553   5.527  -5.448  0.00  0.00    +0.257 C 
ATOM     12  O   UNL     1       0.126   4.457  -5.982  0.00  0.00    -0.272 OA
BRANCH  10  14
ATOM     13  C   UNL     1      -1.848   6.096  -6.104  0.00  0.00    +0.022 C 
ATOM     14  C   UNL     1      -1.685   6.327  -4.848  0.00  0.00    +0.079 C 
ATOM     15  C   UNL     1      -1.832   7.807  -4.523  0.00  0.00    +0.022 C 
ATOM     16  C   UNL     1      -2.643   5.528  -3.985  0.00  0.00    +0.022 C 
ENDBRANCH  10  14
ENDBRANCH   4  11
BRANCH   8  17
ATOM     17  C   UNL     1       3.709   5.584  -2.426  0.00  0.00    +0.101 C 
BRANCH  17  18
ATOM     18  C   UNL     1       3.626   6.303  -1.118  0.00  0.00    +0.013 A 
ATOM     19  C   UNL     1       2.419   6.397  -0.435  0.00  0.00    +0.096 A 
ATOM     20  N   UNL     1       2.168   7.316   0.501  0.00  0.00    -0.243 NA
ATOM     21  C   UNL     1       3.096   8.267   0.751  0.00  0.00    +0.099 A 
ATOM     22  C   UNL     1       4.367   8.024   0.312  0.00  0.00    +0.020 A 
ATOM     23  C   UNL     1       4.675   7.026  -0.593  0.00  0.00    +0.000 A 
ENDBRANCH  17  18
ENDBRANCH   8  17
ENDBRANCH   3   5
ENDBRANCH   1   3
BRANCH   1  24
ATOM     24  C   UNL     1       3.506   6.688  -8.545  0.00  0.00    +0.044 C 
BRANCH  24  25
ATOM     25  C   UNL     1       3.097   5.509  -9.646  0.00  0.00    +0.085 C 
BRANCH  25  26
ATOM     26  C   UNL     1       4.648   5.153  -9.995  0.00  0.00    +0.242 C 
ATOM     27  N   UNL     1       5.484   6.261 -10.382  0.00  0.00    -0.200 NA
ATOM     28  O   UNL     1       4.470   4.312 -10.939  0.00  0.00    -0.273 OA
BRANCH  27  29
ATOM     29  C   UNL     1       6.798   5.558 -10.939  0.00  0.00    +0.148 C 
ATOM     30  C   UNL     1       7.833   6.957 -10.778  0.00  0.00    +0.180 C 
ATOM     31  O   UNL     1       7.416   7.180  -9.322  0.00  0.00    -0.221 OA
ATOM     32  C   UNL     1       6.654   7.970 -11.346  0.00  0.00    +0.061 C 
ATOM     33  C   UNL     1       6.436   7.248 -12.590  0.00  0.00    -0.022 A 
ATOM     34  C   UNL     1       6.425   7.758 -13.884  0.00  0.00    -0.004 A 
ATOM     35  C   UNL     1       6.553   6.959 -14.993  0.00  0.00    -0.000 A 
ATOM     36  C   UNL     1       6.951   5.646 -14.765  0.00  0.00    -0.000 A 
ATOM     37  C   UNL     1       7.065   5.158 -13.468  0.00  0.00    -0.003 A 
ATOM     38  C   UNL     1       6.459   5.918 -12.477  0.00  0.00    -0.004 A 
ENDBRANCH  27  29
ENDBRANCH  25  26
BRANCH  25  39
ATOM     39  C   UNL     1       2.909   6.596 -10.870  0.00  0.00    +0.036 C 
BRANCH  39  40
ATOM     40  C   UNL     1       2.196   6.034 -11.962  0.00  0.00    -0.022 A 
ATOM     41  C   UNL     1       0.985   5.443 -11.589  0.00  0.00    -0.004 A 
ATOM     42  C   UNL     1       0.269   4.631 -12.451  0.00  0.00    -0.000 A 
ATOM     43  C   UNL     1       0.728   4.496 -13.755  0.00  0.00    -0.000 A 
ATOM     44  C   UNL     1       1.569   5.488 -14.245  0.00  0.00    -0.000 A 
ATOM     45  C   UNL     1       2.318   6.136 -13.306  0.00  0.00    -0.004 A 
ENDBRANCH  39  40
ENDBRANCH  25  39
ENDBRANCH  24  25
ENDBRANCH   1  24
TORSDOF 12
ENDMDL
MODEL 7
REMARK VINA RESULT:      -8.8      2.375      9.104
REMARK  Name = 
REMARK  12 active torsions:
REMARK  status: ('A' for Active; 'I' for Inactive)
REMARK    1  A    between atoms: C_2  and  N_5
REMARK    2  A    between atoms: C_6  and  C_8
REMARK    3  A    between atoms: N_10  and  C_11
REMARK    4  A    between atoms: C_11  and  C_12
REMARK    5  A    between atoms: N_20  and  C_21
REMARK    6  A    between atoms: C_21  and  C_22
REMARK    7  A    between atoms: C_22  and  C_24
REMARK    8  A    between atoms: C_24  and  C_25
REMARK    9  A    between atoms: C_25  and  C_26
REMARK   10  A    between atoms: C_25  and  C_33
REMARK   11  A    between atoms: C_26  and  C_27
REMARK   12  A    between atoms: N_35  and  C_36
REMARK                            x       y       z     vdW  Elec       q    Type
REMARK                         _______ _______ _______ _____ _____    ______ ____
ROOT
ATOM      1  C   UNL     1       1.447   4.319  -7.221  0.00  0.00    +0.168 C 
ATOM      2  O   UNL     1       2.506   3.832  -6.206  0.00  0.00    -0.222 OA
ENDROOT
BRANCH   1   3
ATOM      3  C   UNL     1       2.650   4.665  -8.328  0.00  0.00    +0.106 C 
BRANCH   3   5
ATOM      4  C   UNL     1       3.355   6.658  -9.497  0.00  0.00    +0.153 C 
ATOM      5  N   UNL     1       3.132   5.939  -8.091  0.00  0.00    -0.262 NA
ATOM      6  C   UNL     1       4.489   6.041  -7.583  0.00  0.00    +0.090 C 
ATOM      7  C   UNL     1       5.311   4.908  -8.188  0.00  0.00    +0.090 C 
ATOM      8  N   UNL     1       5.309   5.158  -9.606  0.00  0.00    -0.266 NA
ATOM      9  C   UNL     1       3.999   5.273 -10.177  0.00  0.00    +0.098 C 
BRANCH   4  11
ATOM     10  N   UNL     1       1.892   6.183 -11.446  0.00  0.00    -0.208 NA
ATOM     11  C   UNL     1       1.846   6.274 -10.013  0.00  0.00    +0.257 C 
ATOM     12  O   UNL     1       1.151   7.265  -9.631  0.00  0.00    -0.272 OA
BRANCH  10  14
ATOM     13  C   UNL     1      -0.042   7.099 -12.206  0.00  0.00    +0.022 C 
ATOM     14  C   UNL     1       0.605   5.990 -12.108  0.00  0.00    +0.079 C 
ATOM     15  C   UNL     1      -0.128   4.984 -11.232  0.00  0.00    +0.022 C 
ATOM     16  C   UNL     1       0.886   5.364 -13.461  0.00  0.00    +0.022 C 
ENDBRANCH  10  14
ENDBRANCH   4  11
BRANCH   8  17
ATOM     17  C   UNL     1       6.214   6.185 -10.021  0.00  0.00    +0.101 C 
BRANCH  17  18
ATOM     18  C   UNL     1       6.407   6.069 -11.498  0.00  0.00    +0.013 A 
ATOM     19  C   UNL     1       7.121   5.007 -12.040  0.00  0.00    +0.096 A 
ATOM     20  N   UNL     1       7.664   5.025 -13.260  0.00  0.00    -0.243 NA
ATOM     21  C   UNL     1       7.595   6.161 -13.990  0.00  0.00    +0.099 A 
ATOM     22  C   UNL     1       6.671   7.090 -13.606  0.00  0.00    +0.020 A 
ATOM     23  C   UNL     1       6.028   7.055 -12.383  0.00  0.00    +0.000 A 
ENDBRANCH  17  18
ENDBRANCH   8  17
ENDBRANCH   3   5
ENDBRANCH   1   3
BRANCH   1  24
ATOM     24  C   UNL     1       1.434   5.845  -6.509  0.00  0.00    +0.044 C 
BRANCH  24  25
ATOM     25  C   UNL     1       1.808   5.343  -4.967  0.00  0.00    +0.085 C 
BRANCH  25  26
ATOM     26  C   UNL     1       0.261   4.999  -4.593  0.00  0.00    +0.242 C 
ATOM     27  N   UNL     1      -0.638   6.121  -4.505  0.00  0.00    -0.200 NA
ATOM     28  O   UNL     1       0.434   4.412  -3.473  0.00  0.00    -0.273 OA
BRANCH  27  29
ATOM     29  C   UNL     1      -1.943   5.500  -3.839  0.00  0.00    +0.148 C 
ATOM     30  C   UNL     1      -2.996   6.841  -4.224  0.00  0.00    +0.180 C 
ATOM     31  O   UNL     1      -2.581   6.831  -5.698  0.00  0.00    -0.221 OA
ATOM     32  C   UNL     1      -1.831   7.948  -3.829  0.00  0.00    +0.061 C 
ATOM     33  C   UNL     1      -1.605   7.440  -2.485  0.00  0.00    -0.022 A 
ATOM     34  C   UNL     1      -1.603   8.154  -1.291  0.00  0.00    -0.004 A 
ATOM     35  C   UNL     1      -1.722   7.544  -0.066  0.00  0.00    -0.000 A 
ATOM     36  C   UNL     1      -2.102   6.206  -0.079  0.00  0.00    -0.000 A 
ATOM     37  C   UNL     1      -2.209   5.512  -1.279  0.00  0.00    -0.003 A 
ATOM     38  C   UNL     1      -1.611   6.110  -2.381  0.00  0.00    -0.004 A 
ENDBRANCH  27  29
ENDBRANCH  25  26
BRANCH  25  39
ATOM     39  C   UNL     1       1.774   6.877  -4.366  0.00  0.00    +0.036 C 
BRANCH  39  40
ATOM     40  C   UNL     1       2.790   7.078  -3.394  0.00  0.00    -0.022 A 
ATOM     41  C   UNL     1       2.417   6.675  -2.109  0.00  0.00    -0.004 A 
ATOM     42  C   UNL     1       3.158   7.013  -0.990  0.00  0.00    -0.000 A 
ATOM     43  C   UNL     1       4.361   7.681  -1.180  0.00  0.00    -0.000 A 
ATOM     44  C   UNL     1       4.964   7.577  -2.428  0.00  0.00    -0.000 A 
ATOM     45  C   UNL     1       4.111   7.366  -3.473  0.00  0.00    -0.004 A 
ENDBRANCH  39  40
ENDBRANCH  25  39
ENDBRANCH  24  25
ENDBRANCH   1  24
TORSDOF 12
ENDMDL
MODEL 8
REMARK VINA RESULT:      -8.8      2.158      9.293
REMARK  Name = 
REMARK  12 active torsions:
REMARK  status: ('A' for Active; 'I' for Inactive)
REMARK    1  A    between atoms: C_2  and  N_5
REMARK    2  A    between atoms: C_6  and  C_8
REMARK    3  A    between atoms: N_10  and  C_11
REMARK    4  A    between atoms: C_11  and  C_12
REMARK    5  A    between atoms: N_20  and  C_21
REMARK    6  A    between atoms: C_21  and  C_22
REMARK    7  A    between atoms: C_22  and  C_24
REMARK    8  A    between atoms: C_24  and  C_25
REMARK    9  A    between atoms: C_25  and  C_26
REMARK   10  A    between atoms: C_25  and  C_33
REMARK   11  A    between atoms: C_26  and  C_27
REMARK   12  A    between atoms: N_35  and  C_36
REMARK                            x       y       z     vdW  Elec       q    Type
REMARK                         _______ _______ _______ _____ _____    ______ ____
ROOT
ATOM      1  C   UNL     1       4.328   5.633  -5.888  0.00  0.00    +0.168 C 
ATOM      2  O   UNL     1       5.125   6.958  -5.924  0.00  0.00    -0.222 OA
ENDROOT
BRANCH   1   3
ATOM      3  C   UNL     1       3.950   5.804  -7.507  0.00  0.00    +0.106 C 
BRANCH   3   5
ATOM      4  C   UNL     1       3.982   4.741  -9.676  0.00  0.00    +0.153 C 
ATOM      5  N   UNL     1       3.899   4.553  -8.095  0.00  0.00    -0.262 NA
ATOM      6  C   UNL     1       2.628   3.853  -8.031  0.00  0.00    +0.090 C 
ATOM      7  C   UNL     1       1.509   4.886  -8.106  0.00  0.00    +0.090 C 
ATOM      8  N   UNL     1       1.653   5.503  -9.399  0.00  0.00    -0.266 NA
ATOM      9  C   UNL     1       2.952   6.059  -9.640  0.00  0.00    +0.098 C 
BRANCH   4  11
ATOM     10  N   UNL     1       5.659   6.106 -10.896  0.00  0.00    -0.208 NA
ATOM     11  C   UNL     1       5.305   5.704  -9.563  0.00  0.00    +0.257 C 
ATOM     12  O   UNL     1       6.179   4.932  -9.061  0.00  0.00    -0.272 OA
BRANCH  10  14
ATOM     13  C   UNL     1       7.549   6.883  -9.906  0.00  0.00    +0.022 C 
ATOM     14  C   UNL     1       6.907   6.854 -11.020  0.00  0.00    +0.079 C 
ATOM     15  C   UNL     1       6.473   8.247 -11.457  0.00  0.00    +0.022 C 
ATOM     16  C   UNL     1       7.708   6.208 -12.134  0.00  0.00    +0.022 C 
ENDBRANCH  10  14
ENDBRANCH   4  11
BRANCH   8  17
ATOM     17  C   UNL     1       1.149   4.717 -10.482  0.00  0.00    +0.101 C 
BRANCH  17  18
ATOM     18  C   UNL     1       0.604   5.645 -11.519  0.00  0.00    +0.013 A 
ATOM     19  C   UNL     1       1.102   5.633 -12.816  0.00  0.00    +0.096 A 
ATOM     20  N   UNL     1       0.964   6.649 -13.671  0.00  0.00    -0.243 NA
ATOM     21  C   UNL     1       0.383   7.793 -13.242  0.00  0.00    +0.099 A 
ATOM     22  C   UNL     1      -0.354   7.720 -12.095  0.00  0.00    +0.020 A 
ATOM     23  C   UNL     1      -0.299   6.645 -11.228  0.00  0.00    +0.000 A 
ENDBRANCH  17  18
ENDBRANCH   8  17
ENDBRANCH   3   5
ENDBRANCH   1   3
BRANCH   1  24
ATOM     24  C   UNL     1       2.967   6.443  -5.315  0.00  0.00    +0.044 C 
BRANCH  24  25
ATOM     25  C   UNL     1       2.831   5.605  -3.883  0.00  0.00    +0.085 C 
BRANCH  25  26
ATOM     26  C   UNL     1       1.340   5.049  -4.231  0.00  0.00    +0.242 C 
ATOM     27  N   UNL     1       0.418   6.005  -4.788  0.00  0.00    -0.200 NA
ATOM     28  O   UNL     1       0.989   4.635  -3.076  0.00  0.00    -0.273 OA
BRANCH  27  29
ATOM     29  C   UNL     1      -0.983   5.253  -4.719  0.00  0.00    +0.148 C 
ATOM     30  C   UNL     1      -1.887   6.479  -5.575  0.00  0.00    +0.180 C 
ATOM     31  O   UNL     1      -0.879   6.513  -6.727  0.00  0.00    -0.221 OA
ATOM     32  C   UNL     1      -1.114   7.700  -4.768  0.00  0.00    +0.061 C 
ATOM     33  C   UNL     1      -1.442   7.216  -3.436  0.00  0.00    -0.022 A 
ATOM     34  C   UNL     1      -2.020   7.925  -2.388  0.00  0.00    -0.004 A 
ATOM     35  C   UNL     1      -2.597   7.305  -1.307  0.00  0.00    -0.000 A 
ATOM     36  C   UNL     1      -2.809   5.936  -1.423  0.00  0.00    -0.000 A 
ATOM     37  C   UNL     1      -2.324   5.236  -2.522  0.00  0.00    -0.003 A 
ATOM     38  C   UNL     1      -1.368   5.893  -3.286  0.00  0.00    -0.004 A 
ENDBRANCH  27  29
ENDBRANCH  25  26
BRANCH  25  39
ATOM     39  C   UNL     1       2.311   6.933  -3.056  0.00  0.00    +0.036 C 
BRANCH  39  40
ATOM     40  C   UNL     1       3.119   7.186  -1.916  0.00  0.00    -0.022 A 
ATOM     41  C   UNL     1       3.900   6.092  -1.535  0.00  0.00    -0.004 A 
ATOM     42  C   UNL     1       4.560   6.050  -0.319  0.00  0.00    -0.000 A 
ATOM     43  C   UNL     1       4.519   7.180   0.488  0.00  0.00    -0.000 A 
ATOM     44  C   UNL     1       4.231   8.395  -0.125  0.00  0.00    -0.000 A 
ATOM     45  C   UNL     1       3.467   8.314  -1.253  0.00  0.00    -0.004 A 
ENDBRANCH  39  40
ENDBRANCH  25  39
ENDBRANCH  24  25
ENDBRANCH   1  24
TORSDOF 12
ENDMDL
MODEL 9
REMARK VINA RESULT:      -8.7      2.176      4.730
REMARK  Name = 
REMARK  12 active torsions:
REMARK  status: ('A' for Active; 'I' for Inactive)
REMARK    1  A    between atoms: C_2  and  N_5
REMARK    2  A    between atoms: C_6  and  C_8
REMARK    3  A    between atoms: N_10  and  C_11
REMARK    4  A    between atoms: C_11  and  C_12
REMARK    5  A    between atoms: N_20  and  C_21
REMARK    6  A    between atoms: C_21  and  C_22
REMARK    7  A    between atoms: C_22  and  C_24
REMARK    8  A    between atoms: C_24  and  C_25
REMARK    9  A    between atoms: C_25  and  C_26
REMARK   10  A    between atoms: C_25  and  C_33
REMARK   11  A    between atoms: C_26  and  C_27
REMARK   12  A    between atoms: N_35  and  C_36
REMARK                            x       y       z     vdW  Elec       q    Type
REMARK                         _______ _______ _______ _____ _____    ______ ____
ROOT
ATOM      1  C   UNL     1       2.671   7.157  -4.191  0.00  0.00    +0.168 C 
ATOM      2  O   UNL     1       4.159   7.570  -4.283  0.00  0.00    -0.222 OA
ENDROOT
BRANCH   1   3
ATOM      3  C   UNL     1       2.713   7.338  -2.530  0.00  0.00    +0.106 C 
BRANCH   3   5
ATOM      4  C   UNL     1       2.596   5.938  -0.565  0.00  0.00    +0.153 C 
ATOM      5  N   UNL     1       3.302   6.221  -1.966  0.00  0.00    -0.262 NA
ATOM      6  C   UNL     1       4.666   6.372  -1.490  0.00  0.00    +0.090 C 
ATOM      7  C   UNL     1       4.833   7.792  -0.961  0.00  0.00    +0.090 C 
ATOM      8  N   UNL     1       3.922   7.889   0.150  0.00  0.00    -0.266 NA
ATOM      9  C   UNL     1       2.565   7.564  -0.177  0.00  0.00    +0.098 C 
BRANCH   4  11
ATOM     10  N   UNL     1       0.244   6.679  -0.282  0.00  0.00    -0.208 NA
ATOM     11  C   UNL     1       1.096   6.012  -1.226  0.00  0.00    +0.257 C 
ATOM     12  O   UNL     1       0.780   4.789  -1.357  0.00  0.00    -0.272 OA
BRANCH  10  14
ATOM     13  C   UNL     1      -1.512   7.861  -1.108  0.00  0.00    +0.022 C 
ATOM     14  C   UNL     1      -1.175   6.715  -0.628  0.00  0.00    +0.079 C 
ATOM     15  C   UNL     1      -1.893   6.419   0.682  0.00  0.00    +0.022 C 
ATOM     16  C   UNL     1      -1.428   5.583  -1.604  0.00  0.00    +0.022 C 
ENDBRANCH  10  14
ENDBRANCH   4  11
BRANCH   8  17
ATOM     17  C   UNL     1       4.394   7.269   1.350  0.00  0.00    +0.101 C 
BRANCH  17  18
ATOM     18  C   UNL     1       5.144   8.293   2.140  0.00  0.00    +0.013 A 
ATOM     19  C   UNL     1       4.582   9.535   2.407  0.00  0.00    +0.096 A 
ATOM     20  N   UNL     1       5.295  10.612   2.747  0.00  0.00    -0.243 NA
ATOM     21  C   UNL     1       6.645  10.528   2.757  0.00  0.00    +0.099 A 
ATOM     22  C   UNL     1       7.187   9.275   2.784  0.00  0.00    +0.020 A 
ATOM     23  C   UNL     1       6.459   8.130   2.518  0.00  0.00    +0.000 A 
ENDBRANCH  17  18
ENDBRANCH   8  17
ENDBRANCH   3   5
ENDBRANCH   1   3
BRANCH   1  24
ATOM     24  C   UNL     1       3.101   5.528  -4.190  0.00  0.00    +0.044 C 
BRANCH  24  25
ATOM     25  C   UNL     1       1.631   4.939  -4.702  0.00  0.00    +0.085 C 
BRANCH  25  26
ATOM     26  C   UNL     1       2.235   4.361  -6.100  0.00  0.00    +0.242 C 
ATOM     27  N   UNL     1       2.389   5.314  -7.169  0.00  0.00    -0.200 NA
ATOM     28  O   UNL     1       1.364   3.464  -6.357  0.00  0.00    -0.273 OA
BRANCH  27  29
ATOM     29  C   UNL     1       2.688   4.403  -8.439  0.00  0.00    +0.148 C 
ATOM     30  C   UNL     1       3.740   5.546  -9.238  0.00  0.00    +0.180 C 
ATOM     31  O   UNL     1       4.594   5.740  -7.981  0.00  0.00    -0.221 OA
ATOM     32  C   UNL     1       2.754   6.817  -8.850  0.00  0.00    +0.061 C 
ATOM     33  C   UNL     1       1.554   6.250  -9.445  0.00  0.00    -0.022 A 
ATOM     34  C   UNL     1       0.685   6.847 -10.354  0.00  0.00    -0.004 A 
ATOM     35  C   UNL     1      -0.206   6.124 -11.107  0.00  0.00    -0.000 A 
ATOM     36  C   UNL     1      -0.031   4.745 -11.113  0.00  0.00    -0.000 A 
ATOM     37  C   UNL     1       0.910   4.147 -10.283  0.00  0.00    -0.003 A 
ATOM     38  C   UNL     1       1.399   4.939  -9.252  0.00  0.00    -0.004 A 
ENDBRANCH  27  29
ENDBRANCH  25  26
BRANCH  25  39
ATOM     39  C   UNL     1       1.168   6.393  -5.323  0.00  0.00    +0.036 C 
BRANCH  39  40
ATOM     40  C   UNL     1      -0.240   6.458  -5.503  0.00  0.00    -0.022 A 
ATOM     41  C   UNL     1      -0.827   7.568  -4.891  0.00  0.00    -0.004 A 
ATOM     42  C   UNL     1      -2.198   7.681  -4.737  0.00  0.00    -0.000 A 
ATOM     43  C   UNL     1      -3.004   6.703  -5.308  0.00  0.00    -0.000 A 
ATOM     44  C   UNL     1      -2.463   5.952  -6.345  0.00  0.00    -0.000 A 
ATOM     45  C   UNL     1      -1.105   5.810  -6.318  0.00  0.00    -0.004 A 
ENDBRANCH  39  40
ENDBRANCH  25  39
ENDBRANCH  24  25
ENDBRANCH   1  24
TORSDOF 12
ENDMDL
