MODEL 1
REMARK VINA RESULT:      -5.0      0.000      0.000
REMARK  Name = 
REMARK  5 active torsions:
REMARK  status: ('A' for Active; 'I' for Inactive)
REMARK    1  A    between atoms: C_2  and  C_4
REMARK    2  A    between atoms: C_4  and  C_6
REMARK    3  A    between atoms: C_6  and  C_8
REMARK    4  A    between atoms: C_8  and  C_10
REMARK    5  A    between atoms: C_10  and  C_12
REMARK                            x       y       z     vdW  Elec       q    Type
REMARK                         _______ _______ _______ _____ _____    ______ ____
ROOT
ATOM      1  C   UNL     1      -1.528   5.702  -4.883  0.00  0.00    +0.226 C 
ATOM      2  O   UNL     1      -2.254   6.796  -5.626  0.00  0.00    -0.217 OA
ENDROOT
BRANCH   1   3
ATOM      3  C   UNL     1      -1.345   6.590  -3.383  0.00  0.00    +0.287 C 
ATOM      4  O   UNL     1      -2.843   6.885  -3.219  0.00  0.00    -0.208 OA
BRANCH   3   6
ATOM      5  O   UNL     1      -0.592   5.127  -1.727  0.00  0.00    -0.243 OA
ATOM      6  C   UNL     1      -1.491   5.251  -2.443  0.00  0.00    +0.397 C 
ATOM      7  O   UNL     1      -2.706   5.013  -1.908  0.00  0.00    -0.243 OA
ENDBRANCH   3   6
ENDBRANCH   1   3
BRANCH   1   8
ATOM      8  C   UNL     1      -0.024   6.299  -5.491  0.00  0.00    +0.218 C 
ATOM      9  O   UNL     1      -0.430   5.902  -6.890  0.00  0.00    -0.217 OA
BRANCH   8  10
ATOM     10  C   UNL     1       0.793   4.810  -5.084  0.00  0.00    +0.218 C 
ATOM     11  O   UNL     1       1.703   5.565  -4.106  0.00  0.00    -0.217 OA
BRANCH  10  12
ATOM     12  C   UNL     1       1.946   4.900  -6.279  0.00  0.00    +0.217 C 
ATOM     13  O   UNL     1       2.105   3.533  -6.517  0.00  0.00    -0.217 OA
ENDBRANCH  10  12
ENDBRANCH   8  10
ENDBRANCH   1   8
TORSDOF 5
ENDMDL
MODEL 2
REMARK VINA RESULT:      -5.0      2.753      4.787
REMARK  Name = 
REMARK  5 active torsions:
REMARK  status: ('A' for Active; 'I' for Inactive)
REMARK    1  A    between atoms: C_2  and  C_4
REMARK    2  A    between atoms: C_4  and  C_6
REMARK    3  A    between atoms: C_6  and  C_8
REMARK    4  A    between atoms: C_8  and  C_10
REMARK    5  A    between atoms: C_10  and  C_12
REMARK                            x       y       z     vdW  Elec       q    Type
REMARK                         _______ _______ _______ _____ _____    ______ ____
ROOT
ATOM      1  C   UNL     1       2.067   6.563  -2.793  0.00  0.00    +0.226 C 
ATOM      2  O   UNL     1       2.558   7.035  -4.139  0.00  0.00    -0.217 OA
ENDROOT
BRANCH   1   3
ATOM      3  C   UNL     1       3.182   5.218  -2.652  0.00  0.00    +0.287 C 
ATOM      4  O   UNL     1       4.434   6.097  -2.516  0.00  0.00    -0.208 OA
BRANCH   3   6
ATOM      5  O   UNL     1       2.648   4.105  -0.671  0.00  0.00    -0.243 OA
ATOM      6  C   UNL     1       3.047   5.133  -1.017  0.00  0.00    +0.397 C 
ATOM      7  O   UNL     1       4.066   5.642  -0.295  0.00  0.00    -0.243 OA
ENDBRANCH   3   6
ENDBRANCH   1   3
BRANCH   1   8
ATOM      8  C   UNL     1       0.883   5.580  -3.580  0.00  0.00    +0.218 C 
ATOM      9  O   UNL     1       0.573   6.709  -4.531  0.00  0.00    -0.217 OA
BRANCH   8  10
ATOM     10  C   UNL     1      -0.324   5.982  -2.383  0.00  0.00    +0.218 C 
ATOM     11  O   UNL     1      -0.224   4.569  -1.792  0.00  0.00    -0.217 OA
BRANCH  10  12
ATOM     12  C   UNL     1      -1.643   5.543  -3.297  0.00  0.00    +0.217 C 
ATOM     13  O   UNL     1      -2.339   4.824  -2.323  0.00  0.00    -0.217 OA
ENDBRANCH  10  12
ENDBRANCH   8  10
ENDBRANCH   1   8
TORSDOF 5
ENDMDL
MODEL 3
REMARK VINA RESULT:      -4.9      4.271      5.791
REMARK  Name = 
REMARK  5 active torsions:
REMARK  status: ('A' for Active; 'I' for Inactive)
REMARK    1  A    between atoms: C_2  and  C_4
REMARK    2  A    between atoms: C_4  and  C_6
REMARK    3  A    between atoms: C_6  and  C_8
REMARK    4  A    between atoms: C_8  and  C_10
REMARK    5  A    between atoms: C_10  and  C_12
REMARK                            x       y       z     vdW  Elec       q    Type
REMARK                         _______ _______ _______ _____ _____    ______ ____
ROOT
ATOM      1  C   UNL     1       2.793   6.835  -7.900  0.00  0.00    +0.226 C 
ATOM      2  O   UNL     1       2.256   8.238  -7.762  0.00  0.00    -0.217 OA
ENDROOT
BRANCH   1   3
ATOM      3  C   UNL     1       1.314   6.133  -8.528  0.00  0.00    +0.287 C 
ATOM      4  O   UNL     1       1.144   7.165  -9.653  0.00  0.00    -0.208 OA
BRANCH   3   6
ATOM      5  O   UNL     1       1.907   4.011  -9.297  0.00  0.00    -0.243 OA
ATOM      6  C   UNL     1       2.099   5.121  -9.556  0.00  0.00    +0.397 C 
ATOM      7  O   UNL     1       2.060   5.435 -10.867  0.00  0.00    -0.243 OA
ENDBRANCH   3   6
ENDBRANCH   1   3
BRANCH   1   8
ATOM      8  C   UNL     1       2.329   6.506  -6.268  0.00  0.00    +0.218 C 
ATOM      9  O   UNL     1       3.336   7.517  -5.776  0.00  0.00    -0.217 OA
BRANCH   8  10
ATOM     10  C   UNL     1       3.383   5.115  -6.193  0.00  0.00    +0.218 C 
ATOM     11  O   UNL     1       2.167   4.190  -6.049  0.00  0.00    -0.217 OA
BRANCH  10  12
ATOM     12  C   UNL     1       3.602   5.139  -4.544  0.00  0.00    +0.217 C 
ATOM     13  O   UNL     1       4.925   4.693  -4.505  0.00  0.00    -0.217 OA
ENDBRANCH  10  12
ENDBRANCH   8  10
ENDBRANCH   1   8
TORSDOF 5
ENDMDL
MODEL 4
REMARK VINA RESULT:      -4.9      1.690      4.273
REMARK  Name = 
REMARK  5 active torsions:
REMARK  status: ('A' for Active; 'I' for Inactive)
REMARK    1  A    between atoms: C_2  and  C_4
REMARK    2  A    between atoms: C_4  and  C_6
REMARK    3  A    between atoms: C_6  and  C_8
REMARK    4  A    between atoms: C_8  and  C_10
REMARK    5  A    between atoms: C_10  and  C_12
REMARK                            x       y       z     vdW  Elec       q    Type
REMARK                         _______ _______ _______ _____ _____    ______ ____
ROOT
ATOM      1  C   UNL     1       0.570   6.858  -4.893  0.00  0.00    +0.226 C 
ATOM      2  O   UNL     1       0.553   6.669  -6.390  0.00  0.00    -0.217 OA
ENDROOT
BRANCH   1   3
ATOM      3  C   UNL     1       1.998   5.884  -4.602  0.00  0.00    +0.287 C 
ATOM      4  O   UNL     1       2.926   6.745  -5.472  0.00  0.00    -0.208 OA
BRANCH   3   6
ATOM      5  O   UNL     1       2.562   6.049  -2.343  0.00  0.00    -0.243 OA
ATOM      6  C   UNL     1       2.440   6.733  -3.267  0.00  0.00    +0.397 C 
ATOM      7  O   UNL     1       3.392   7.673  -3.432  0.00  0.00    -0.243 OA
ENDBRANCH   3   6
ENDBRANCH   1   3
BRANCH   1   8
ATOM      8  C   UNL     1      -0.474   5.491  -4.717  0.00  0.00    +0.218 C 
ATOM      9  O   UNL     1      -1.473   6.131  -5.650  0.00  0.00    -0.217 OA
BRANCH   8  10
ATOM     10  C   UNL     1      -1.142   6.125  -3.234  0.00  0.00    +0.218 C 
ATOM     11  O   UNL     1      -0.536   4.955  -2.448  0.00  0.00    -0.217 OA
BRANCH  10  12
ATOM     12  C   UNL     1      -2.605   5.341  -3.340  0.00  0.00    +0.217 C 
ATOM     13  O   UNL     1      -2.680   4.864  -2.029  0.00  0.00    -0.217 OA
ENDBRANCH  10  12
ENDBRANCH   8  10
ENDBRANCH   1   8
TORSDOF 5
ENDMDL
MODEL 5
REMARK VINA RESULT:      -4.8      7.268      9.139
REMARK  Name = 
REMARK  5 active torsions:
REMARK  status: ('A' for Active; 'I' for Inactive)
REMARK    1  A    between atoms: C_2  and  C_4
REMARK    2  A    between atoms: C_4  and  C_6
REMARK    3  A    between atoms: C_6  and  C_8
REMARK    4  A    between atoms: C_8  and  C_10
REMARK    5  A    between atoms: C_10  and  C_12
REMARK                            x       y       z     vdW  Elec       q    Type
REMARK                         _______ _______ _______ _____ _____    ______ ____
ROOT
ATOM      1  C   UNL     1       3.975   6.717 -10.923  0.00  0.00    +0.226 C 
ATOM      2  O   UNL     1       3.963   6.742  -9.415  0.00  0.00    -0.217 OA
ENDROOT
BRANCH   1   3
ATOM      3  C   UNL     1       2.623   5.616 -11.100  0.00  0.00    +0.287 C 
ATOM      4  O   UNL     1       1.606   6.542 -10.418  0.00  0.00    -0.208 OA
BRANCH   3   6
ATOM      5  O   UNL     1       2.197   5.380 -13.382  0.00  0.00    -0.243 OA
ATOM      6  C   UNL     1       2.192   6.203 -12.572  0.00  0.00    +0.397 C 
ATOM      7  O   UNL     1       1.147   7.054 -12.605  0.00  0.00    -0.243 OA
ENDBRANCH   3   6
ENDBRANCH   1   3
BRANCH   1   8
ATOM      8  C   UNL     1       5.111   5.416 -10.885  0.00  0.00    +0.218 C 
ATOM      9  O   UNL     1       5.970   6.191  -9.916  0.00  0.00    -0.217 OA
BRANCH   8  10
ATOM     10  C   UNL     1       5.887   5.979 -12.344  0.00  0.00    +0.218 C 
ATOM     11  O   UNL     1       5.380   4.746 -13.103  0.00  0.00    -0.217 OA
BRANCH  10  12
ATOM     12  C   UNL     1       7.355   5.248 -12.067  0.00  0.00    +0.217 C 
ATOM     13  O   UNL     1       7.587   4.755 -13.354  0.00  0.00    -0.217 OA
ENDBRANCH  10  12
ENDBRANCH   8  10
ENDBRANCH   1   8
TORSDOF 5
ENDMDL
MODEL 6
REMARK VINA RESULT:      -4.8      1.513      2.996
REMARK  Name = 
REMARK  5 active torsions:
REMARK  status: ('A' for Active; 'I' for Inactive)
REMARK    1  A    between atoms: C_2  and  C_4
REMARK    2  A    between atoms: C_4  and  C_6
REMARK    3  A    between atoms: C_6  and  C_8
REMARK    4  A    between atoms: C_8  and  C_10
REMARK    5  A    between atoms: C_10  and  C_12
REMARK                            x       y       z     vdW  Elec       q    Type
REMARK                         _______ _______ _______ _____ _____    ______ ____
ROOT
ATOM      1  C   UNL     1      -0.257   5.927  -2.727  0.00  0.00    +0.226 C 
ATOM      2  O   UNL     1       0.020   4.710  -1.880  0.00  0.00    -0.217 OA
ENDROOT
BRANCH   1   3
ATOM      3  C   UNL     1      -1.711   5.300  -3.478  0.00  0.00    +0.287 C 
ATOM      4  O   UNL     1      -2.379   4.892  -2.157  0.00  0.00    -0.208 OA
BRANCH   3   6
ATOM      5  O   UNL     1      -2.711   7.143  -4.503  0.00  0.00    -0.243 OA
ATOM      6  C   UNL     1      -2.488   6.747  -3.441  0.00  0.00    +0.397 C 
ATOM      7  O   UNL     1      -3.485   6.878  -2.542  0.00  0.00    -0.243 OA
ENDBRANCH   3   6
ENDBRANCH   1   3
BRANCH   1   8
ATOM      8  C   UNL     1       0.744   5.274  -3.976  0.00  0.00    +0.218 C 
ATOM      9  O   UNL     1       1.934   5.318  -3.048  0.00  0.00    -0.217 OA
BRANCH   8  10
ATOM     10  C   UNL     1       0.979   6.852  -4.686  0.00  0.00    +0.218 C 
ATOM     11  O   UNL     1       0.255   6.399  -5.960  0.00  0.00    -0.217 OA
BRANCH  10  12
ATOM     12  C   UNL     1       2.459   6.527  -5.371  0.00  0.00    +0.217 C 
ATOM     13  O   UNL     1       2.431   7.484  -6.389  0.00  0.00    -0.217 OA
ENDBRANCH  10  12
ENDBRANCH   8  10
ENDBRANCH   1   8
TORSDOF 5
ENDMDL
MODEL 7
REMARK VINA RESULT:      -4.8      7.038     10.445
REMARK  Name = 
REMARK  5 active torsions:
REMARK  status: ('A' for Active; 'I' for Inactive)
REMARK    1  A    between atoms: C_2  and  C_4
REMARK    2  A    between atoms: C_4  and  C_6
REMARK    3  A    between atoms: C_6  and  C_8
REMARK    4  A    between atoms: C_8  and  C_10
REMARK    5  A    between atoms: C_10  and  C_12
REMARK                            x       y       z     vdW  Elec       q    Type
REMARK                         _______ _______ _______ _____ _____    ______ ____
ROOT
ATOM      1  C   UNL     1       5.756   5.996 -12.606  0.00  0.00    +0.226 C 
ATOM      2  O   UNL     1       5.366   4.979 -13.650  0.00  0.00    -0.217 OA
ENDROOT
BRANCH   1   3
ATOM      3  C   UNL     1       7.033   5.037 -11.884  0.00  0.00    +0.287 C 
ATOM      4  O   UNL     1       7.680   4.649 -13.222  0.00  0.00    -0.208 OA
BRANCH   3   6
ATOM      5  O   UNL     1       8.076   6.731 -10.663  0.00  0.00    -0.243 OA
ATOM      6  C   UNL     1       8.060   6.311 -11.740  0.00  0.00    +0.397 C 
ATOM      7  O   UNL     1       9.259   6.196 -12.345  0.00  0.00    -0.243 OA
ENDBRANCH   3   6
ENDBRANCH   1   3
BRANCH   1   8
ATOM      8  C   UNL     1       4.570   5.338 -11.535  0.00  0.00    +0.218 C 
ATOM      9  O   UNL     1       3.476   5.743 -12.492  0.00  0.00    -0.217 OA
BRANCH   8  10
ATOM     10  C   UNL     1       4.552   6.795 -10.573  0.00  0.00    +0.218 C 
ATOM     11  O   UNL     1       5.171   6.036  -9.391  0.00  0.00    -0.217 OA
BRANCH  10  12
ATOM     12  C   UNL     1       3.024   6.587  -9.950  0.00  0.00    +0.217 C 
ATOM     13  O   UNL     1       3.267   7.036  -8.650  0.00  0.00    -0.217 OA
ENDBRANCH  10  12
ENDBRANCH   8  10
ENDBRANCH   1   8
TORSDOF 5
ENDMDL
MODEL 8
REMARK VINA RESULT:      -4.8      3.920      5.054
REMARK  Name = 
REMARK  5 active torsions:
REMARK  status: ('A' for Active; 'I' for Inactive)
REMARK    1  A    between atoms: C_2  and  C_4
REMARK    2  A    between atoms: C_4  and  C_6
REMARK    3  A    between atoms: C_6  and  C_8
REMARK    4  A    between atoms: C_8  and  C_10
REMARK    5  A    between atoms: C_10  and  C_12
REMARK                            x       y       z     vdW  Elec       q    Type
REMARK                         _______ _______ _______ _____ _____    ______ ____
ROOT
ATOM      1  C   UNL     1       1.755   6.882  -7.524  0.00  0.00    +0.226 C 
ATOM      2  O   UNL     1       2.214   8.286  -7.831  0.00  0.00    -0.217 OA
ENDROOT
BRANCH   1   3
ATOM      3  C   UNL     1       3.268   6.342  -6.824  0.00  0.00    +0.287 C 
ATOM      4  O   UNL     1       3.378   7.507  -5.829  0.00  0.00    -0.208 OA
BRANCH   3   6
ATOM      5  O   UNL     1       2.853   4.308  -5.759  0.00  0.00    -0.243 OA
ATOM      6  C   UNL     1       2.537   5.416  -5.680  0.00  0.00    +0.397 C 
ATOM      7  O   UNL     1       2.479   5.925  -4.433  0.00  0.00    -0.243 OA
ENDBRANCH   3   6
ENDBRANCH   1   3
BRANCH   1   8
ATOM      8  C   UNL     1       2.239   6.386  -9.107  0.00  0.00    +0.218 C 
ATOM      9  O   UNL     1       1.196   7.294  -9.712  0.00  0.00    -0.217 OA
BRANCH   8  10
ATOM     10  C   UNL     1       1.240   4.956  -9.023  0.00  0.00    +0.218 C 
ATOM     11  O   UNL     1       2.492   4.069  -9.032  0.00  0.00    -0.217 OA
BRANCH  10  12
ATOM     12  C   UNL     1       1.051   4.765 -10.664  0.00  0.00    +0.217 C 
ATOM     13  O   UNL     1      -0.274   4.324 -10.670  0.00  0.00    -0.217 OA
ENDBRANCH  10  12
ENDBRANCH   8  10
ENDBRANCH   1   8
TORSDOF 5
ENDMDL
MODEL 9
REMARK VINA RESULT:      -4.7      2.854      6.170
REMARK  Name = 
REMARK  5 active torsions:
REMARK  status: ('A' for Active; 'I' for Inactive)
REMARK    1  A    between atoms: C_2  and  C_4
REMARK    2  A    between atoms: C_4  and  C_6
REMARK    3  A    between atoms: C_6  and  C_8
REMARK    4  A    between atoms: C_8  and  C_10
REMARK    5  A    between atoms: C_10  and  C_12
REMARK                            x       y       z     vdW  Elec       q    Type
REMARK                         _______ _______ _______ _____ _____    ______ ____
ROOT
ATOM      1  C   UNL     1       2.951   6.810  -7.485  0.00  0.00    +0.226 C 
ATOM      2  O   UNL     1       2.237   8.079  -7.880  0.00  0.00    -0.217 OA
ENDROOT
BRANCH   1   3
ATOM      3  C   UNL     1       2.942   6.089  -9.083  0.00  0.00    +0.287 C 
ATOM      4  O   UNL     1       3.915   7.108  -9.694  0.00  0.00    -0.208 OA
BRANCH   3   6
ATOM      5  O   UNL     1       3.928   3.975  -9.000  0.00  0.00    -0.243 OA
ATOM      6  C   UNL     1       4.190   5.073  -8.754  0.00  0.00    +0.397 C 
ATOM      7  O   UNL     1       5.420   5.482  -9.125  0.00  0.00    -0.243 OA
ENDBRANCH   3   6
ENDBRANCH   1   3
BRANCH   1   8
ATOM      8  C   UNL     1       1.432   6.090  -7.084  0.00  0.00    +0.218 C 
ATOM      9  O   UNL     1       1.065   7.310  -6.275  0.00  0.00    -0.217 OA
BRANCH   8  10
ATOM     10  C   UNL     1       2.147   5.182  -5.774  0.00  0.00    +0.218 C 
ATOM     11  O   UNL     1       1.837   3.868  -6.503  0.00  0.00    -0.217 OA
BRANCH  10  12
ATOM     12  C   UNL     1       0.761   5.045  -4.866  0.00  0.00    +0.217 C 
ATOM     13  O   UNL     1       1.312   5.293  -3.607  0.00  0.00    -0.217 OA
ENDBRANCH  10  12
ENDBRANCH   8  10
ENDBRANCH   1   8
TORSDOF 5
ENDMDL
