MODEL 1
REMARK VINA RESULT:      -7.3      0.000      0.000
REMARK  Name = 
REMARK  4 active torsions:
REMARK  status: ('A' for Active; 'I' for Inactive)
REMARK    1  A    between atoms: O_2  and  C_3
REMARK    2  A    between atoms: C_8  and  O_9
REMARK    3  A    between atoms: C_15  and  C_16
REMARK    4  A    between atoms: C_16  and  C_17
REMARK                            x       y       z     vdW  Elec       q    Type
REMARK                         _______ _______ _______ _____ _____    ______ ____
ROOT
ATOM      1  C   UNL     1       1.949   6.133  -9.928  0.00  0.00    +0.172 A 
ATOM      2  C   UNL     1       3.237   6.025  -9.407  0.00  0.00    +0.172 A 
ATOM      3  C   UNL     1       3.365   6.238  -8.032  0.00  0.00    +0.037 A 
ATOM      4  C   UNL     1       2.271   6.695  -7.360  0.00  0.00    -0.008 A 
ATOM      5  C   UNL     1       2.189   6.520  -5.760  0.00  0.00    +0.087 C 
ATOM      6  N   UNL     1       2.482   4.975  -5.849  0.00  0.00    -0.269 NA
ATOM      7  C   UNL     1       1.177   4.443  -5.971  0.00  0.00    +0.077 C 
ATOM      8  C   UNL     1       0.238   5.352  -6.765  0.00  0.00    +0.044 C 
ATOM      9  C   UNL     1       3.307   4.601  -4.801  0.00  0.00    +0.080 C 
ATOM     10  C   UNL     1       2.939   5.453  -3.459  0.00  0.00    +0.074 C 
ATOM     11  C   UNL     1       3.618   6.813  -3.995  0.00  0.00    +0.153 C 
ATOM     12  O   UNL     1       2.915   7.719  -3.537  0.00  0.00    -0.296 OA
ATOM     13  C   UNL     1       3.776   6.873  -5.496  0.00  0.00    +0.085 C 
ATOM     14  C   UNL     1       1.022   6.188  -7.740  0.00  0.00    -0.020 A 
ATOM     15  C   UNL     1       0.822   6.118  -9.108  0.00  0.00    +0.036 A 
ENDROOT
BRANCH   1  17
ATOM     16  C   UNL     1       0.768   6.415 -11.945  0.00  0.00    +0.253 C 
ATOM     17  O   UNL     1       1.847   6.421 -11.295  0.00  0.00    -0.468 OA
ENDBRANCH   1  17
BRANCH   2  18
ATOM     18  O   UNL     1       4.063   5.125 -10.093  0.00  0.00    -0.468 OA
ATOM     19  C   UNL     1       5.256   5.543 -10.754  0.00  0.00    +0.253 C 
ENDBRANCH   2  18
BRANCH  10  20
ATOM     20  C   UNL     1       4.320   5.009  -2.706  0.00  0.00    +0.009 C 
BRANCH  20  21
ATOM     21  C   UNL     1       3.942   4.901  -1.249  0.00  0.00    +0.000 C 
ATOM     22  C   UNL     1       4.462   6.119  -0.538  0.00  0.00    +0.000 C 
ATOM     23  C   UNL     1       2.456   4.732  -1.113  0.00  0.00    +0.000 C 
ENDBRANCH  20  21
ENDBRANCH  10  20
TORSDOF 4
ENDMDL
MODEL 2
REMARK VINA RESULT:      -7.1      2.024      7.287
REMARK  Name = 
REMARK  4 active torsions:
REMARK  status: ('A' for Active; 'I' for Inactive)
REMARK    1  A    between atoms: O_2  and  C_3
REMARK    2  A    between atoms: C_8  and  O_9
REMARK    3  A    between atoms: C_15  and  C_16
REMARK    4  A    between atoms: C_16  and  C_17
REMARK                            x       y       z     vdW  Elec       q    Type
REMARK                         _______ _______ _______ _____ _____    ______ ____
ROOT
ATOM      1  C   UNL     1       2.884   5.935  -1.582  0.00  0.00    +0.172 A 
ATOM      2  C   UNL     1       1.589   6.068  -2.081  0.00  0.00    +0.172 A 
ATOM      3  C   UNL     1       1.482   6.384  -3.438  0.00  0.00    +0.037 A 
ATOM      4  C   UNL     1       2.628   6.698  -4.105  0.00  0.00    -0.008 A 
ATOM      5  C   UNL     1       2.662   6.610  -5.713  0.00  0.00    +0.087 C 
ATOM      6  N   UNL     1       2.124   5.131  -5.709  0.00  0.00    -0.269 NA
ATOM      7  C   UNL     1       3.326   4.388  -5.646  0.00  0.00    +0.077 C 
ATOM      8  C   UNL     1       4.409   5.084  -4.820  0.00  0.00    +0.044 C 
ATOM      9  C   UNL     1       1.237   4.959  -6.760  0.00  0.00    +0.080 C 
ATOM     10  C   UNL     1       1.723   5.822  -8.057  0.00  0.00    +0.074 C 
ATOM     11  C   UNL     1       1.280   7.238  -7.428  0.00  0.00    +0.153 C 
ATOM     12  O   UNL     1       2.115   8.045  -7.846  0.00  0.00    -0.296 OA
ATOM     13  C   UNL     1       1.151   7.230  -5.923  0.00  0.00    +0.085 C 
ATOM     14  C   UNL     1       3.782   5.974  -3.781  0.00  0.00    -0.020 A 
ATOM     15  C   UNL     1       3.984   5.789  -2.424  0.00  0.00    +0.036 A 
ENDROOT
BRANCH   1  17
ATOM     16  C   UNL     1       3.080   7.241   0.368  0.00  0.00    +0.253 C 
ATOM     17  O   UNL     1       3.046   6.118  -0.202  0.00  0.00    -0.468 OA
ENDBRANCH   1  17
BRANCH   2  18
ATOM     18  O   UNL     1       0.635   5.272  -1.432  0.00  0.00    -0.468 OA
ATOM     19  C   UNL     1      -0.668   5.758  -1.114  0.00  0.00    +0.253 C 
ENDBRANCH   2  18
BRANCH  10  20
ATOM     20  C   UNL     1       0.280   5.653  -8.805  0.00  0.00    +0.009 C 
BRANCH  20  21
ATOM     21  C   UNL     1       0.605   5.715 -10.278  0.00  0.00    +0.000 C 
ATOM     22  C   UNL     1       0.275   4.382 -10.888  0.00  0.00    +0.000 C 
ATOM     23  C   UNL     1      -0.134   6.854 -10.921  0.00  0.00    +0.000 C 
ENDBRANCH  20  21
ENDBRANCH  10  20
TORSDOF 4
ENDMDL
MODEL 3
REMARK VINA RESULT:      -6.9      2.832      4.396
REMARK  Name = 
REMARK  4 active torsions:
REMARK  status: ('A' for Active; 'I' for Inactive)
REMARK    1  A    between atoms: O_2  and  C_3
REMARK    2  A    between atoms: C_8  and  O_9
REMARK    3  A    between atoms: C_15  and  C_16
REMARK    4  A    between atoms: C_16  and  C_17
REMARK                            x       y       z     vdW  Elec       q    Type
REMARK                         _______ _______ _______ _____ _____    ______ ____
ROOT
ATOM      1  C   UNL     1       5.400   5.512  -9.991  0.00  0.00    +0.172 A 
ATOM      2  C   UNL     1       4.069   5.674 -10.374  0.00  0.00    +0.172 A 
ATOM      3  C   UNL     1       3.111   5.441  -9.384  0.00  0.00    +0.037 A 
ATOM      4  C   UNL     1       3.541   4.918  -8.201  0.00  0.00    -0.008 A 
ATOM      5  C   UNL     1       2.619   5.058  -6.887  0.00  0.00    +0.087 C 
ATOM      6  N   UNL     1       2.486   6.616  -7.066  0.00  0.00    -0.269 NA
ATOM      7  C   UNL     1       3.600   7.086  -6.332  0.00  0.00    +0.077 C 
ATOM      8  C   UNL     1       4.804   6.147  -6.416  0.00  0.00    +0.044 C 
ATOM      9  C   UNL     1       1.200   7.011  -6.737  0.00  0.00    +0.080 C 
ATOM     10  C   UNL     1       0.634   6.116  -5.495  0.00  0.00    +0.074 C 
ATOM     11  C   UNL     1       0.397   4.802  -6.398  0.00  0.00    +0.153 C 
ATOM     12  O   UNL     1       0.641   3.854  -5.645  0.00  0.00    -0.296 OA
ATOM     13  C   UNL     1       1.201   4.779  -7.676  0.00  0.00    +0.085 C 
ATOM     14  C   UNL     1       4.771   5.370  -7.704  0.00  0.00    -0.020 A 
ATOM     15  C   UNL     1       5.777   5.456  -8.651  0.00  0.00    +0.036 A 
ENDROOT
BRANCH   1  17
ATOM     16  C   UNL     1       7.502   5.678 -11.038  0.00  0.00    +0.253 C 
ATOM     17  O   UNL     1       6.319   5.247 -11.015  0.00  0.00    -0.468 OA
ENDBRANCH   1  17
BRANCH   2  18
ATOM     18  O   UNL     1       3.870   6.628 -11.382  0.00  0.00    -0.468 OA
ATOM     19  C   UNL     1       3.354   6.278 -12.665  0.00  0.00    +0.253 C 
ENDBRANCH   2  18
BRANCH  10  20
ATOM     20  C   UNL     1      -0.903   6.614  -5.737  0.00  0.00    +0.009 C 
BRANCH  20  21
ATOM     21  C   UNL     1      -1.423   6.930  -4.356  0.00  0.00    +0.000 C 
ATOM     22  C   UNL     1      -1.940   8.341  -4.362  0.00  0.00    +0.000 C 
ATOM     23  C   UNL     1      -2.465   5.926  -3.954  0.00  0.00    +0.000 C 
ENDBRANCH  20  21
ENDBRANCH  10  20
TORSDOF 4
ENDMDL
MODEL 4
REMARK VINA RESULT:      -6.8      2.700      6.928
REMARK  Name = 
REMARK  4 active torsions:
REMARK  status: ('A' for Active; 'I' for Inactive)
REMARK    1  A    between atoms: O_2  and  C_3
REMARK    2  A    between atoms: C_8  and  O_9
REMARK    3  A    between atoms: C_15  and  C_16
REMARK    4  A    between atoms: C_16  and  C_17
REMARK                            x       y       z     vdW  Elec       q    Type
REMARK                         _______ _______ _______ _____ _____    ______ ____
ROOT
ATOM      1  C   UNL     1       0.038   6.140  -1.689  0.00  0.00    +0.172 A 
ATOM      2  C   UNL     1      -0.679   5.923  -2.864  0.00  0.00    +0.172 A 
ATOM      3  C   UNL     1       0.002   6.178  -4.057  0.00  0.00    +0.037 A 
ATOM      4  C   UNL     1       1.226   6.770  -3.970  0.00  0.00    -0.008 A 
ATOM      5  C   UNL     1       2.248   6.669  -5.211  0.00  0.00    +0.087 C 
ATOM      6  N   UNL     1       2.126   5.101  -5.270  0.00  0.00    -0.269 NA
ATOM      7  C   UNL     1       3.158   4.699  -4.390  0.00  0.00    +0.077 C 
ATOM      8  C   UNL     1       3.349   5.666  -3.221  0.00  0.00    +0.044 C 
ATOM      9  C   UNL     1       2.118   4.688  -6.592  0.00  0.00    +0.080 C 
ATOM     10  C   UNL     1       3.110   5.627  -7.484  0.00  0.00    +0.074 C 
ATOM     11  C   UNL     1       2.106   6.888  -7.486  0.00  0.00    +0.153 C 
ATOM     12  O   UNL     1       2.843   7.878  -7.468  0.00  0.00    -0.296 OA
ATOM     13  C   UNL     1       1.092   6.870  -6.366  0.00  0.00    +0.085 C 
ATOM     14  C   UNL     1       2.060   6.378  -2.915  0.00  0.00    -0.020 A 
ATOM     15  C   UNL     1       1.425   6.273  -1.689  0.00  0.00    +0.036 A 
ENDROOT
BRANCH   1  17
ATOM     16  C   UNL     1      -1.472   7.373  -0.368  0.00  0.00    +0.253 C 
ATOM     17  O   UNL     1      -0.713   6.380  -0.531  0.00  0.00    -0.468 OA
ENDBRANCH   1  17
BRANCH   2  18
ATOM     18  O   UNL     1      -1.650   4.916  -2.770  0.00  0.00    -0.468 OA
ATOM     19  C   UNL     1      -2.985   5.103  -3.237  0.00  0.00    +0.253 C 
ENDBRANCH   2  18
BRANCH  10  20
ATOM     20  C   UNL     1       2.490   5.075  -8.892  0.00  0.00    +0.009 C 
BRANCH  20  21
ATOM     21  C   UNL     1       3.668   5.031  -9.835  0.00  0.00    +0.000 C 
ATOM     22  C   UNL     1       3.478   6.100 -10.873  0.00  0.00    +0.000 C 
ATOM     23  C   UNL     1       4.950   5.180  -9.067  0.00  0.00    +0.000 C 
ENDBRANCH  20  21
ENDBRANCH  10  20
TORSDOF 4
ENDMDL
MODEL 5
REMARK VINA RESULT:      -6.8      1.706      6.752
REMARK  Name = 
REMARK  4 active torsions:
REMARK  status: ('A' for Active; 'I' for Inactive)
REMARK    1  A    between atoms: O_2  and  C_3
REMARK    2  A    between atoms: C_8  and  O_9
REMARK    3  A    between atoms: C_15  and  C_16
REMARK    4  A    between atoms: C_16  and  C_17
REMARK                            x       y       z     vdW  Elec       q    Type
REMARK                         _______ _______ _______ _____ _____    ______ ____
ROOT
ATOM      1  C   UNL     1       1.496   5.842  -3.182  0.00  0.00    +0.172 A 
ATOM      2  C   UNL     1       2.694   6.398  -3.627  0.00  0.00    +0.172 A 
ATOM      3  C   UNL     1       3.103   6.033  -4.913  0.00  0.00    +0.037 A 
ATOM      4  C   UNL     1       2.399   5.050  -5.542  0.00  0.00    -0.008 A 
ATOM      5  C   UNL     1       2.496   4.905  -7.144  0.00  0.00    +0.087 C 
ATOM      6  N   UNL     1       2.124   6.417  -7.370  0.00  0.00    -0.269 NA
ATOM      7  C   UNL     1       0.714   6.358  -7.452  0.00  0.00    +0.077 C 
ATOM      8  C   UNL     1       0.113   5.282  -6.546  0.00  0.00    +0.044 C 
ATOM      9  C   UNL     1       2.876   6.926  -8.416  0.00  0.00    +0.080 C 
ATOM     10  C   UNL     1       3.089   5.788  -9.565  0.00  0.00    +0.074 C 
ATOM     11  C   UNL     1       4.170   4.956  -8.706  0.00  0.00    +0.153 C 
ATOM     12  O   UNL     1       3.969   3.774  -9.005  0.00  0.00    -0.296 OA
ATOM     13  C   UNL     1       4.110   5.220  -7.220  0.00  0.00    +0.085 C 
ATOM     14  C   UNL     1       1.010   5.034  -5.364  0.00  0.00    -0.020 A 
ATOM     15  C   UNL     1       0.596   5.240  -4.059  0.00  0.00    +0.036 A 
ENDROOT
BRANCH   1  17
ATOM     16  C   UNL     1       1.454   4.722  -1.111  0.00  0.00    +0.253 C 
ATOM     17  O   UNL     1       1.315   5.771  -1.795  0.00  0.00    -0.468 OA
ENDBRANCH   1  17
BRANCH   2  18
ATOM     18  O   UNL     1       2.974   7.665  -3.097  0.00  0.00    -0.468 OA
ATOM     19  C   UNL     1       4.300   8.070  -2.759  0.00  0.00    +0.253 C 
ENDBRANCH   2  18
BRANCH  10  20
ATOM     20  C   UNL     1       4.270   6.644 -10.303  0.00  0.00    +0.009 C 
BRANCH  20  21
ATOM     21  C   UNL     1       4.092   6.351 -11.773  0.00  0.00    +0.000 C 
ATOM     22  C   UNL     1       5.157   5.375 -12.188  0.00  0.00    +0.000 C 
ATOM     23  C   UNL     1       2.702   5.848 -12.034  0.00  0.00    +0.000 C 
ENDBRANCH  20  21
ENDBRANCH  10  20
TORSDOF 4
ENDMDL
MODEL 6
REMARK VINA RESULT:      -6.8      2.675      4.820
REMARK  Name = 
REMARK  4 active torsions:
REMARK  status: ('A' for Active; 'I' for Inactive)
REMARK    1  A    between atoms: O_2  and  C_3
REMARK    2  A    between atoms: C_8  and  O_9
REMARK    3  A    between atoms: C_15  and  C_16
REMARK    4  A    between atoms: C_16  and  C_17
REMARK                            x       y       z     vdW  Elec       q    Type
REMARK                         _______ _______ _______ _____ _____    ______ ____
ROOT
ATOM      1  C   UNL     1       3.003   5.007  -6.438  0.00  0.00    +0.172 A 
ATOM      2  C   UNL     1       1.987   5.147  -5.495  0.00  0.00    +0.172 A 
ATOM      3  C   UNL     1       2.395   5.388  -4.181  0.00  0.00    +0.037 A 
ATOM      4  C   UNL     1       3.728   5.295  -3.908  0.00  0.00    -0.008 A 
ATOM      5  C   UNL     1       4.319   5.996  -2.583  0.00  0.00    +0.087 C 
ATOM      6  N   UNL     1       3.678   7.385  -2.953  0.00  0.00    -0.269 NA
ATOM      7  C   UNL     1       4.705   7.980  -3.723  0.00  0.00    +0.077 C 
ATOM      8  C   UNL     1       5.486   6.962  -4.554  0.00  0.00    +0.044 C 
ATOM      9  C   UNL     1       3.207   7.998  -1.802  0.00  0.00    +0.080 C 
ATOM     10  C   UNL     1       4.199   7.679  -0.547  0.00  0.00    +0.074 C 
ATOM     11  C   UNL     1       3.697   6.156  -0.385  0.00  0.00    +0.153 C 
ATOM     12  O   UNL     1       4.699   5.530  -0.025  0.00  0.00    -0.296 OA
ATOM     13  C   UNL     1       3.045   5.588  -1.623  0.00  0.00    +0.085 C 
ATOM     14  C   UNL     1       4.620   5.774  -4.875  0.00  0.00    -0.020 A 
ATOM     15  C   UNL     1       4.311   5.408  -6.174  0.00  0.00    +0.036 A 
ENDROOT
BRANCH   1  17
ATOM     16  C   UNL     1       3.383   4.297  -8.651  0.00  0.00    +0.253 C 
ATOM     17  O   UNL     1       2.684   4.296  -7.603  0.00  0.00    -0.468 OA
ENDBRANCH   1  17
BRANCH   2  18
ATOM     18  O   UNL     1       0.795   5.680  -6.005  0.00  0.00    -0.468 OA
ATOM     19  C   UNL     1      -0.440   5.592  -5.295  0.00  0.00    +0.253 C 
ENDBRANCH   2  18
BRANCH  10  20
ATOM     20  C   UNL     1       3.104   8.202   0.549  0.00  0.00    +0.009 C 
BRANCH  20  21
ATOM     21  C   UNL     1       3.076   9.702   0.374  0.00  0.00    +0.000 C 
ATOM     22  C   UNL     1       1.741  10.204   0.847  0.00  0.00    +0.000 C 
ATOM     23  C   UNL     1       4.231  10.327   1.103  0.00  0.00    +0.000 C 
ENDBRANCH  20  21
ENDBRANCH  10  20
TORSDOF 4
ENDMDL
MODEL 7
REMARK VINA RESULT:      -6.5      2.515      4.062
REMARK  Name = 
REMARK  4 active torsions:
REMARK  status: ('A' for Active; 'I' for Inactive)
REMARK    1  A    between atoms: O_2  and  C_3
REMARK    2  A    between atoms: C_8  and  O_9
REMARK    3  A    between atoms: C_15  and  C_16
REMARK    4  A    between atoms: C_16  and  C_17
REMARK                            x       y       z     vdW  Elec       q    Type
REMARK                         _______ _______ _______ _____ _____    ______ ____
ROOT
ATOM      1  C   UNL     1       4.076   5.796 -13.436  0.00  0.00    +0.172 A 
ATOM      2  C   UNL     1       4.924   5.741 -12.332  0.00  0.00    +0.172 A 
ATOM      3  C   UNL     1       4.359   6.093 -11.103  0.00  0.00    +0.037 A 
ATOM      4  C   UNL     1       3.101   6.615 -11.114  0.00  0.00    -0.008 A 
ATOM      5  C   UNL     1       2.223   6.603  -9.764  0.00  0.00    +0.087 C 
ATOM      6  N   UNL     1       2.441   5.058  -9.558  0.00  0.00    -0.269 NA
ATOM      7  C   UNL     1       1.346   4.516 -10.271  0.00  0.00    +0.077 C 
ATOM      8  C   UNL     1       0.977   5.341 -11.505  0.00  0.00    +0.044 C 
ATOM      9  C   UNL     1       2.612   4.792  -8.209  0.00  0.00    +0.080 C 
ATOM     10  C   UNL     1       1.668   5.776  -7.314  0.00  0.00    +0.074 C 
ATOM     11  C   UNL     1       2.592   7.074  -7.553  0.00  0.00    +0.153 C 
ATOM     12  O   UNL     1       1.802   8.022  -7.591  0.00  0.00    -0.296 OA
ATOM     13  C   UNL     1       3.481   6.981  -8.771  0.00  0.00    +0.085 C 
ATOM     14  C   UNL     1       2.184   6.073 -12.024  0.00  0.00    -0.020 A 
ATOM     15  C   UNL     1       2.691   5.865 -13.296  0.00  0.00    +0.036 A 
ENDROOT
BRANCH   1  17
ATOM     16  C   UNL     1       4.458   6.895 -15.483  0.00  0.00    +0.253 C 
ATOM     17  O   UNL     1       4.685   5.943 -14.689  0.00  0.00    -0.468 OA
ENDBRANCH   1  17
BRANCH   2  18
ATOM     18  O   UNL     1       5.935   4.775 -12.429  0.00  0.00    -0.468 OA
ATOM     19  C   UNL     1       7.319   5.118 -12.378  0.00  0.00    +0.253 C 
ENDBRANCH   2  18
BRANCH  10  20
ATOM     20  C   UNL     1       2.463   5.410  -5.934  0.00  0.00    +0.009 C 
BRANCH  20  21
ATOM     21  C   UNL     1       1.381   5.303  -4.887  0.00  0.00    +0.000 C 
ATOM     22  C   UNL     1       1.509   6.478  -3.959  0.00  0.00    +0.000 C 
ATOM     23  C   UNL     1       0.033   5.219  -5.545  0.00  0.00    +0.000 C 
ENDBRANCH  20  21
ENDBRANCH  10  20
TORSDOF 4
ENDMDL
MODEL 8
REMARK VINA RESULT:      -6.4      2.424      3.933
REMARK  Name = 
REMARK  4 active torsions:
REMARK  status: ('A' for Active; 'I' for Inactive)
REMARK    1  A    between atoms: O_2  and  C_3
REMARK    2  A    between atoms: C_8  and  O_9
REMARK    3  A    between atoms: C_15  and  C_16
REMARK    4  A    between atoms: C_16  and  C_17
REMARK                            x       y       z     vdW  Elec       q    Type
REMARK                         _______ _______ _______ _____ _____    ______ ____
ROOT
ATOM      1  C   UNL     1       2.348   5.927 -12.099  0.00  0.00    +0.172 A 
ATOM      2  C   UNL     1       1.091   6.183 -11.553  0.00  0.00    +0.172 A 
ATOM      3  C   UNL     1       0.919   5.832 -10.211  0.00  0.00    +0.037 A 
ATOM      4  C   UNL     1       1.919   5.125  -9.612  0.00  0.00    -0.008 A 
ATOM      5  C   UNL     1       2.016   5.092  -8.004  0.00  0.00    +0.087 C 
ATOM      6  N   UNL     1       1.982   6.663  -7.905  0.00  0.00    -0.269 NA
ATOM      7  C   UNL     1       3.358   6.985  -7.979  0.00  0.00    +0.077 C 
ATOM      8  C   UNL     1       4.140   6.034  -8.886  0.00  0.00    +0.044 C 
ATOM      9  C   UNL     1       1.222   7.041  -6.810  0.00  0.00    +0.080 C 
ATOM     10  C   UNL     1       1.435   5.986  -5.583  0.00  0.00    +0.074 C 
ATOM     11  C   UNL     1       0.545   4.830  -6.268  0.00  0.00    +0.153 C 
ATOM     12  O   UNL     1       1.086   3.772  -5.930  0.00  0.00    -0.296 OA
ATOM     13  C   UNL     1       0.391   4.976  -7.764  0.00  0.00    +0.085 C 
ATOM     14  C   UNL     1       3.237   5.461  -9.945  0.00  0.00    -0.020 A 
ATOM     15  C   UNL     1       3.456   5.659 -11.297  0.00  0.00    +0.036 A 
ENDROOT
BRANCH   1  17
ATOM     16  C   UNL     1       3.476   5.835 -14.163  0.00  0.00    +0.253 C 
ATOM     17  O   UNL     1       2.411   5.792 -13.492  0.00  0.00    -0.468 OA
ENDBRANCH   1  17
BRANCH   2  18
ATOM     18  O   UNL     1       0.430   7.283 -12.117  0.00  0.00    -0.468 OA
ATOM     19  C   UNL     1      -0.841   7.727 -11.644  0.00  0.00    +0.253 C 
ENDBRANCH   2  18
BRANCH  10  20
ATOM     20  C   UNL     1       0.141   6.558  -4.766  0.00  0.00    +0.009 C 
BRANCH  20  21
ATOM     21  C   UNL     1      -0.053   5.585  -3.628  0.00  0.00    +0.000 C 
ATOM     22  C   UNL     1       0.918   5.941  -2.538  0.00  0.00    +0.000 C 
ATOM     23  C   UNL     1      -1.483   5.606  -3.170  0.00  0.00    +0.000 C 
ENDBRANCH  20  21
ENDBRANCH  10  20
TORSDOF 4
ENDMDL
MODEL 9
REMARK VINA RESULT:      -6.3      3.161      7.051
REMARK  Name = 
REMARK  4 active torsions:
REMARK  status: ('A' for Active; 'I' for Inactive)
REMARK    1  A    between atoms: O_2  and  C_3
REMARK    2  A    between atoms: C_8  and  O_9
REMARK    3  A    between atoms: C_15  and  C_16
REMARK    4  A    between atoms: C_16  and  C_17
REMARK                            x       y       z     vdW  Elec       q    Type
REMARK                         _______ _______ _______ _____ _____    ______ ____
ROOT
ATOM      1  C   UNL     1       1.000   6.152  -7.160  0.00  0.00    +0.172 A 
ATOM      2  C   UNL     1       0.837   6.118  -8.544  0.00  0.00    +0.172 A 
ATOM      3  C   UNL     1       1.970   6.413  -9.305  0.00  0.00    +0.037 A 
ATOM      4  C   UNL     1       3.072   6.869  -8.645  0.00  0.00    -0.008 A 
ATOM      5  C   UNL     1       4.516   6.783  -9.353  0.00  0.00    +0.087 C 
ATOM      6  N   UNL     1       4.349   5.247  -9.655  0.00  0.00    -0.269 NA
ATOM      7  C   UNL     1       4.890   4.664  -8.486  0.00  0.00    +0.077 C 
ATOM      8  C   UNL     1       4.620   5.494  -7.230  0.00  0.00    +0.044 C 
ATOM      9  C   UNL     1       4.880   4.961 -10.903  0.00  0.00    +0.080 C 
ATOM     10  C   UNL     1       6.203   5.875 -11.177  0.00  0.00    +0.074 C 
ATOM     11  C   UNL     1       5.361   7.225 -11.436  0.00  0.00    +0.153 C 
ATOM     12  O   UNL     1       6.071   8.131 -10.988  0.00  0.00    -0.296 OA
ATOM     13  C   UNL     1       3.969   7.205 -10.848  0.00  0.00    +0.085 C 
ATOM     14  C   UNL     1       3.360   6.299  -7.398  0.00  0.00    -0.020 A 
ATOM     15  C   UNL     1       2.262   6.145  -6.569  0.00  0.00    +0.036 A 
ENDROOT
BRANCH   1  17
ATOM     16  C   UNL     1      -0.293   5.993  -5.199  0.00  0.00    +0.253 C 
ATOM     17  O   UNL     1      -0.157   6.357  -6.397  0.00  0.00    -0.468 OA
ENDBRANCH   1  17
BRANCH   2  18
ATOM     18  O   UNL     1      -0.133   5.208  -8.989  0.00  0.00    -0.468 OA
ATOM     19  C   UNL     1      -0.107   4.654 -10.303  0.00  0.00    +0.253 C 
ENDBRANCH   2  18
BRANCH  10  20
ATOM     20  C   UNL     1       6.209   5.522 -12.773  0.00  0.00    +0.009 C 
BRANCH  20  21
ATOM     21  C   UNL     1       7.332   6.354 -13.343  0.00  0.00    +0.000 C 
ATOM     22  C   UNL     1       8.621   5.888 -12.726  0.00  0.00    +0.000 C 
ATOM     23  C   UNL     1       7.332   6.261 -14.842  0.00  0.00    +0.000 C 
ENDBRANCH  20  21
ENDBRANCH  10  20
TORSDOF 4
ENDMDL
