MODEL 1
REMARK VINA RESULT:      -7.7      0.000      0.000
REMARK  Name = 
REMARK  5 active torsions:
REMARK  status: ('A' for Active; 'I' for Inactive)
REMARK    1  A    between atoms: C_6  and  N_7
REMARK    2  A    between atoms: N_7  and  C_8
REMARK    3  A    between atoms: C_13  and  S_14
REMARK    4  A    between atoms: S_14  and  N_17
REMARK    5  A    between atoms: N_20  and  C_21
REMARK                            x       y       z     vdW  Elec       q    Type
REMARK                         _______ _______ _______ _____ _____    ______ ____
ROOT
ATOM      1  C   UNL     1      -1.187   5.627  -3.581  0.00  0.00    +0.093 A 
ATOM      2  C   UNL     1      -0.689   6.309  -2.477  0.00  0.00    +0.163 A 
ATOM      3  C   UNL     1      -1.652   6.892  -1.664  0.00  0.00    +0.121 A 
ATOM      4  N   UNL     1      -2.934   7.039  -2.045  0.00  0.00    -0.241 NA
ATOM      5  C   UNL     1      -3.451   6.150  -2.926  0.00  0.00    +0.100 A 
ATOM      6  C   UNL     1      -2.558   5.538  -3.791  0.00  0.00    +0.039 A 
ENDROOT
BRANCH   2   7
ATOM      7  S   UNL     1       0.716   5.596  -1.691  0.00  0.00    +0.107 S 
ATOM      8  O   UNL     1       0.462   4.165  -1.306  0.00  0.00    -0.146 OA
ATOM      9  O   UNL     1       0.962   6.363  -0.410  0.00  0.00    -0.146 OA
BRANCH   7  10
ATOM     10  N   UNL     1       2.136   5.751  -2.632  0.00  0.00    -0.071 NA
ATOM     11  C   UNL     1       3.311   5.438  -2.222  0.00  0.00    +0.371 C 
ATOM     12  N   UNL     1       4.427   6.116  -2.778  0.00  0.00    -0.185 NA
ATOM     13  O   UNL     1       3.389   4.511  -1.205  0.00  0.00    -0.244 OA
BRANCH  12  14
ATOM     14  C   UNL     1       4.282   6.689  -4.089  0.00  0.00    +0.097 C 
ATOM     15  C   UNL     1       4.619   5.637  -5.125  0.00  0.00    +0.023 C 
ATOM     16  C   UNL     1       5.175   7.875  -4.330  0.00  0.00    +0.023 C 
ENDBRANCH  12  14
ENDBRANCH   7  10
ENDBRANCH   2   7
BRANCH   1  17
ATOM     17  N   UNL     1      -0.248   5.180  -4.546  0.00  0.00    -0.211 NA
BRANCH  17  21
ATOM     18  C   UNL     1       2.713   7.463  -7.638  0.00  0.00    +0.031 C 
ATOM     19  C   UNL     1       1.406   6.777  -7.409  0.00  0.00    -0.021 A 
ATOM     20  C   UNL     1       0.823   6.690  -6.155  0.00  0.00    +0.012 A 
ATOM     21  C   UNL     1      -0.131   5.728  -5.851  0.00  0.00    +0.070 A 
ATOM     22  C   UNL     1      -0.888   5.284  -6.925  0.00  0.00    +0.016 A 
ATOM     23  C   UNL     1      -0.392   5.386  -8.217  0.00  0.00    +0.001 A 
ATOM     24  C   UNL     1       0.810   6.045  -8.421  0.00  0.00    -0.004 A 
ENDBRANCH  17  21
ENDBRANCH   1  17
TORSDOF 5
ENDMDL
MODEL 2
REMARK VINA RESULT:      -7.7      4.461      6.139
REMARK  Name = 
REMARK  5 active torsions:
REMARK  status: ('A' for Active; 'I' for Inactive)
REMARK    1  A    between atoms: C_6  and  N_7
REMARK    2  A    between atoms: N_7  and  C_8
REMARK    3  A    between atoms: C_13  and  S_14
REMARK    4  A    between atoms: S_14  and  N_17
REMARK    5  A    between atoms: N_20  and  C_21
REMARK                            x       y       z     vdW  Elec       q    Type
REMARK                         _______ _______ _______ _____ _____    ______ ____
ROOT
ATOM      1  C   UNL     1       1.873   5.348  -5.564  0.00  0.00    +0.093 A 
ATOM      2  C   UNL     1       2.286   6.202  -6.580  0.00  0.00    +0.163 A 
ATOM      3  C   UNL     1       3.353   7.030  -6.253  0.00  0.00    +0.121 A 
ATOM      4  N   UNL     1       3.775   7.207  -4.988  0.00  0.00    -0.241 NA
ATOM      5  C   UNL     1       3.594   6.199  -4.101  0.00  0.00    +0.100 A 
ATOM      6  C   UNL     1       2.535   5.339  -4.342  0.00  0.00    +0.039 A 
ENDROOT
BRANCH   2   7
ATOM      7  S   UNL     1       2.235   5.551  -8.215  0.00  0.00    +0.107 S 
ATOM      8  O   UNL     1       0.884   5.753  -8.843  0.00  0.00    -0.146 OA
ATOM      9  O   UNL     1       2.461   4.058  -8.120  0.00  0.00    -0.146 OA
BRANCH   7  10
ATOM     10  N   UNL     1       3.487   6.173  -9.201  0.00  0.00    -0.071 NA
ATOM     11  C   UNL     1       3.635   5.887 -10.444  0.00  0.00    +0.371 C 
ATOM     12  N   UNL     1       4.939   5.936 -11.001  0.00  0.00    -0.185 NA
ATOM     13  O   UNL     1       2.510   5.476 -11.126  0.00  0.00    -0.244 OA
BRANCH  12  14
ATOM     14  C   UNL     1       5.911   6.785 -10.365  0.00  0.00    +0.097 C 
ATOM     15  C   UNL     1       6.335   7.863 -11.340  0.00  0.00    +0.023 C 
ATOM     16  C   UNL     1       7.148   6.054  -9.921  0.00  0.00    +0.023 C 
ENDBRANCH  12  14
ENDBRANCH   7  10
ENDBRANCH   2   7
BRANCH   1  17
ATOM     17  N   UNL     1       0.673   4.622  -5.775  0.00  0.00    -0.211 NA
BRANCH  17  21
ATOM     18  C   UNL     1      -1.938   7.535  -2.904  0.00  0.00    +0.031 C 
ATOM     19  C   UNL     1      -1.881   6.689  -4.134  0.00  0.00    -0.021 A 
ATOM     20  C   UNL     1      -0.977   5.648  -4.278  0.00  0.00    +0.012 A 
ATOM     21  C   UNL     1      -0.623   5.146  -5.523  0.00  0.00    +0.070 A 
ATOM     22  C   UNL     1      -1.588   5.278  -6.511  0.00  0.00    +0.016 A 
ATOM     23  C   UNL     1      -2.558   6.265  -6.411  0.00  0.00    +0.001 A 
ATOM     24  C   UNL     1      -2.617   7.028  -5.255  0.00  0.00    -0.004 A 
ENDBRANCH  17  21
ENDBRANCH   1  17
TORSDOF 5
ENDMDL
MODEL 3
REMARK VINA RESULT:      -7.6      6.991      9.722
REMARK  Name = 
REMARK  5 active torsions:
REMARK  status: ('A' for Active; 'I' for Inactive)
REMARK    1  A    between atoms: C_6  and  N_7
REMARK    2  A    between atoms: N_7  and  C_8
REMARK    3  A    between atoms: C_13  and  S_14
REMARK    4  A    between atoms: S_14  and  N_17
REMARK    5  A    between atoms: N_20  and  C_21
REMARK                            x       y       z     vdW  Elec       q    Type
REMARK                         _______ _______ _______ _____ _____    ______ ____
ROOT
ATOM      1  C   UNL     1       5.674   5.771 -10.329  0.00  0.00    +0.093 A 
ATOM      2  C   UNL     1       5.496   6.540 -11.474  0.00  0.00    +0.163 A 
ATOM      3  C   UNL     1       6.580   7.337 -11.818  0.00  0.00    +0.121 A 
ATOM      4  N   UNL     1       7.604   7.575 -10.980  0.00  0.00    -0.241 NA
ATOM      5  C   UNL     1       7.911   6.636 -10.054  0.00  0.00    +0.100 A 
ATOM      6  C   UNL     1       6.878   5.811  -9.637  0.00  0.00    +0.039 A 
ENDROOT
BRANCH   2   7
ATOM      7  S   UNL     1       4.591   5.788 -12.783  0.00  0.00    +0.107 S 
ATOM      8  O   UNL     1       5.125   4.420 -13.105  0.00  0.00    -0.146 OA
ATOM      9  O   UNL     1       4.780   6.641 -14.019  0.00  0.00    -0.146 OA
BRANCH   7  10
ATOM     10  N   UNL     1       2.909   5.748 -12.471  0.00  0.00    -0.071 NA
ATOM     11  C   UNL     1       2.010   5.625 -13.378  0.00  0.00    +0.371 C 
ATOM     12  N   UNL     1       0.725   6.179 -13.141  0.00  0.00    -0.185 NA
ATOM     13  O   UNL     1       2.394   5.024 -14.558  0.00  0.00    -0.244 OA
BRANCH  12  14
ATOM     14  C   UNL     1       0.310   6.354 -11.775  0.00  0.00    +0.097 C 
ATOM     15  C   UNL     1      -0.299   5.061 -11.276  0.00  0.00    +0.023 C 
ATOM     16  C   UNL     1      -0.710   7.444 -11.591  0.00  0.00    +0.023 C 
ENDBRANCH  12  14
ENDBRANCH   7  10
ENDBRANCH   2   7
BRANCH   1  17
ATOM     17  N   UNL     1       4.538   5.089  -9.824  0.00  0.00    -0.211 NA
BRANCH  17  21
ATOM     18  C   UNL     1       4.517   6.254  -5.114  0.00  0.00    +0.031 C 
ATOM     19  C   UNL     1       3.789   6.238  -6.418  0.00  0.00    -0.021 A 
ATOM     20  C   UNL     1       4.089   5.335  -7.425  0.00  0.00    +0.012 A 
ATOM     21  C   UNL     1       3.741   5.566  -8.750  0.00  0.00    +0.070 A 
ATOM     22  C   UNL     1       2.622   6.364  -8.938  0.00  0.00    +0.016 A 
ATOM     23  C   UNL     1       2.228   7.257  -7.951  0.00  0.00    +0.001 A 
ATOM     24  C   UNL     1       2.897   7.247  -6.736  0.00  0.00    -0.004 A 
ENDBRANCH  17  21
ENDBRANCH   1  17
TORSDOF 5
ENDMDL
MODEL 4
REMARK VINA RESULT:      -7.6      4.134      6.795
REMARK  Name = 
REMARK  5 active torsions:
REMARK  status: ('A' for Active; 'I' for Inactive)
REMARK    1  A    between atoms: C_6  and  N_7
REMARK    2  A    between atoms: N_7  and  C_8
REMARK    3  A    between atoms: C_13  and  S_14
REMARK    4  A    between atoms: S_14  and  N_17
REMARK    5  A    between atoms: N_20  and  C_21
REMARK                            x       y       z     vdW  Elec       q    Type
REMARK                         _______ _______ _______ _____ _____    ______ ____
ROOT
ATOM      1  C   UNL     1       2.713   6.026  -9.413  0.00  0.00    +0.093 A 
ATOM      2  C   UNL     1       3.077   5.968  -8.072  0.00  0.00    +0.163 A 
ATOM      3  C   UNL     1       4.381   5.555  -7.836  0.00  0.00    +0.121 A 
ATOM      4  N   UNL     1       5.148   4.985  -8.784  0.00  0.00    -0.241 NA
ATOM      5  C   UNL     1       4.922   5.313 -10.078  0.00  0.00    +0.100 A 
ATOM      6  C   UNL     1       3.636   5.715 -10.404  0.00  0.00    +0.039 A 
ENDROOT
BRANCH   2   7
ATOM      7  S   UNL     1       2.422   7.229  -7.033  0.00  0.00    +0.107 S 
ATOM      8  O   UNL     1       2.162   8.494  -7.802  0.00  0.00    -0.146 OA
ATOM      9  O   UNL     1       3.469   7.551  -5.989  0.00  0.00    -0.146 OA
BRANCH   7  10
ATOM     10  N   UNL     1       1.029   6.713  -6.184  0.00  0.00    -0.071 NA
ATOM     11  C   UNL     1       0.904   5.558  -5.638  0.00  0.00    +0.371 C 
ATOM     12  N   UNL     1      -0.398   5.010  -5.500  0.00  0.00    -0.185 NA
ATOM     13  O   UNL     1       2.067   4.902  -5.296  0.00  0.00    -0.244 OA
BRANCH  12  14
ATOM     14  C   UNL     1      -1.510   5.920  -5.456  0.00  0.00    +0.097 C 
ATOM     15  C   UNL     1      -2.221   5.765  -4.128  0.00  0.00    +0.023 C 
ATOM     16  C   UNL     1      -2.520   5.690  -6.547  0.00  0.00    +0.023 C 
ENDBRANCH  12  14
ENDBRANCH   7  10
ENDBRANCH   2   7
BRANCH   1  17
ATOM     17  N   UNL     1       1.344   6.252  -9.704  0.00  0.00    -0.211 NA
BRANCH  17  21
ATOM     18  C   UNL     1       0.726   8.142 -14.130  0.00  0.00    +0.031 C 
ATOM     19  C   UNL     1       0.558   6.971 -13.218  0.00  0.00    -0.021 A 
ATOM     20  C   UNL     1       0.493   7.105 -11.840  0.00  0.00    +0.012 A 
ATOM     21  C   UNL     1       0.762   6.047 -10.983  0.00  0.00    +0.070 A 
ATOM     22  C   UNL     1       0.507   4.785 -11.502  0.00  0.00    +0.016 A 
ATOM     23  C   UNL     1       0.504   4.583 -12.874  0.00  0.00    +0.001 A 
ATOM     24  C   UNL     1       0.637   5.680 -13.711  0.00  0.00    -0.004 A 
ENDBRANCH  17  21
ENDBRANCH   1  17
TORSDOF 5
ENDMDL
MODEL 5
REMARK VINA RESULT:      -7.4      4.883      7.510
REMARK  Name = 
REMARK  5 active torsions:
REMARK  status: ('A' for Active; 'I' for Inactive)
REMARK    1  A    between atoms: C_6  and  N_7
REMARK    2  A    between atoms: N_7  and  C_8
REMARK    3  A    between atoms: C_13  and  S_14
REMARK    4  A    between atoms: S_14  and  N_17
REMARK    5  A    between atoms: N_20  and  C_21
REMARK                            x       y       z     vdW  Elec       q    Type
REMARK                         _______ _______ _______ _____ _____    ______ ____
ROOT
ATOM      1  C   UNL     1       2.838   5.565 -10.679  0.00  0.00    +0.093 A 
ATOM      2  C   UNL     1       2.246   6.200  -9.594  0.00  0.00    +0.163 A 
ATOM      3  C   UNL     1       1.005   6.768  -9.851  0.00  0.00    +0.121 A 
ATOM      4  N   UNL     1       0.531   6.946 -11.098  0.00  0.00    -0.241 NA
ATOM      5  C   UNL     1       0.937   6.096 -12.070  0.00  0.00    +0.100 A 
ATOM      6  C   UNL     1       2.178   5.503 -11.901  0.00  0.00    +0.039 A 
ENDROOT
BRANCH   2   7
ATOM      7  S   UNL     1       2.482   5.440  -8.023  0.00  0.00    +0.107 S 
ATOM      8  O   UNL     1       3.842   5.747  -7.464  0.00  0.00    -0.146 OA
ATOM      9  O   UNL     1       2.412   3.941  -8.225  0.00  0.00    -0.146 OA
BRANCH   7  10
ATOM     10  N   UNL     1       1.241   5.840  -6.915  0.00  0.00    -0.071 NA
ATOM     11  C   UNL     1       1.060   5.248  -5.791  0.00  0.00    +0.371 C 
ATOM     12  N   UNL     1      -0.251   5.211  -5.246  0.00  0.00    -0.185 NA
ATOM     13  O   UNL     1       2.153   4.622  -5.234  0.00  0.00    -0.244 OA
BRANCH  12  14
ATOM     14  C   UNL     1      -1.174   6.240  -5.644  0.00  0.00    +0.097 C 
ATOM     15  C   UNL     1      -1.590   7.027  -4.419  0.00  0.00    +0.023 C 
ATOM     16  C   UNL     1      -2.422   5.710  -6.295  0.00  0.00    +0.023 C 
ENDBRANCH  12  14
ENDBRANCH   7  10
ENDBRANCH   2   7
BRANCH   1  17
ATOM     17  N   UNL     1       4.182   5.139 -10.528  0.00  0.00    -0.211 NA
BRANCH  17  21
ATOM     18  C   UNL     1       6.845   5.869 -14.517  0.00  0.00    +0.031 C 
ATOM     19  C   UNL     1       6.547   6.255 -13.105  0.00  0.00    -0.021 A 
ATOM     20  C   UNL     1       5.953   5.384 -12.206  0.00  0.00    +0.012 A 
ATOM     21  C   UNL     1       5.298   5.832 -11.067  0.00  0.00    +0.070 A 
ATOM     22  C   UNL     1       5.752   7.041 -10.560  0.00  0.00    +0.016 A 
ATOM     23  C   UNL     1       6.403   7.945 -11.388  0.00  0.00    +0.001 A 
ATOM     24  C   UNL     1       6.695   7.567 -12.689  0.00  0.00    -0.004 A 
ENDBRANCH  17  21
ENDBRANCH   1  17
TORSDOF 5
ENDMDL
MODEL 6
REMARK VINA RESULT:      -7.4      2.566      5.413
REMARK  Name = 
REMARK  5 active torsions:
REMARK  status: ('A' for Active; 'I' for Inactive)
REMARK    1  A    between atoms: C_6  and  N_7
REMARK    2  A    between atoms: N_7  and  C_8
REMARK    3  A    between atoms: C_13  and  S_14
REMARK    4  A    between atoms: S_14  and  N_17
REMARK    5  A    between atoms: N_20  and  C_21
REMARK                            x       y       z     vdW  Elec       q    Type
REMARK                         _______ _______ _______ _____ _____    ______ ____
ROOT
ATOM      1  C   UNL     1       2.190   6.435  -2.702  0.00  0.00    +0.093 A 
ATOM      2  C   UNL     1       3.088   6.890  -3.660  0.00  0.00    +0.163 A 
ATOM      3  C   UNL     1       4.060   7.761  -3.186  0.00  0.00    +0.121 A 
ATOM      4  N   UNL     1       3.984   8.347  -1.977  0.00  0.00    -0.241 NA
ATOM      5  C   UNL     1       3.323   7.701  -0.988  0.00  0.00    +0.100 A 
ATOM      6  C   UNL     1       2.319   6.828  -1.376  0.00  0.00    +0.039 A 
ENDROOT
BRANCH   2   7
ATOM      7  S   UNL     1       3.571   5.726  -4.890  0.00  0.00    +0.107 S 
ATOM      8  O   UNL     1       3.797   4.363  -4.297  0.00  0.00    -0.146 OA
ATOM      9  O   UNL     1       4.893   6.187  -5.463  0.00  0.00    -0.146 OA
BRANCH   7  10
ATOM     10  N   UNL     1       2.467   5.666  -6.196  0.00  0.00    -0.071 NA
ATOM     11  C   UNL     1       2.077   6.695  -6.858  0.00  0.00    +0.371 C 
ATOM     12  N   UNL     1       0.796   6.663  -7.469  0.00  0.00    -0.185 NA
ATOM     13  O   UNL     1       2.912   7.791  -6.855  0.00  0.00    -0.244 OA
BRANCH  12  14
ATOM     14  C   UNL     1       0.238   5.378  -7.794  0.00  0.00    +0.097 C 
ATOM     15  C   UNL     1       0.036   5.295  -9.293  0.00  0.00    +0.023 C 
ATOM     16  C   UNL     1      -1.089   5.115  -7.137  0.00  0.00    +0.023 C 
ENDBRANCH  12  14
ENDBRANCH   7  10
ENDBRANCH   2   7
BRANCH   1  17
ATOM     17  N   UNL     1       1.067   5.700  -3.163  0.00  0.00    -0.211 NA
BRANCH  17  21
ATOM     18  C   UNL     1      -2.800   7.676  -5.328  0.00  0.00    +0.031 C 
ATOM     19  C   UNL     1      -2.227   7.010  -4.120  0.00  0.00    -0.021 A 
ATOM     20  C   UNL     1      -0.874   7.047  -3.822  0.00  0.00    +0.012 A 
ATOM     21  C   UNL     1      -0.279   6.115  -2.981  0.00  0.00    +0.070 A 
ATOM     22  C   UNL     1      -1.116   5.563  -2.023  0.00  0.00    +0.016 A 
ATOM     23  C   UNL     1      -2.488   5.537  -2.226  0.00  0.00    +0.001 A 
ATOM     24  C   UNL     1      -3.010   6.178  -3.339  0.00  0.00    -0.004 A 
ENDBRANCH  17  21
ENDBRANCH   1  17
TORSDOF 5
ENDMDL
MODEL 7
REMARK VINA RESULT:      -7.4      4.211      7.330
REMARK  Name = 
REMARK  5 active torsions:
REMARK  status: ('A' for Active; 'I' for Inactive)
REMARK    1  A    between atoms: C_6  and  N_7
REMARK    2  A    between atoms: N_7  and  C_8
REMARK    3  A    between atoms: C_13  and  S_14
REMARK    4  A    between atoms: S_14  and  N_17
REMARK    5  A    between atoms: N_20  and  C_21
REMARK                            x       y       z     vdW  Elec       q    Type
REMARK                         _______ _______ _______ _____ _____    ______ ____
ROOT
ATOM      1  C   UNL     1       4.439   5.370  -8.009  0.00  0.00    +0.093 A 
ATOM      2  C   UNL     1       3.654   6.159  -8.842  0.00  0.00    +0.163 A 
ATOM      3  C   UNL     1       4.309   6.673  -9.953  0.00  0.00    +0.121 A 
ATOM      4  N   UNL     1       5.649   6.658 -10.079  0.00  0.00    -0.241 NA
ATOM      5  C   UNL     1       6.343   5.672  -9.462  0.00  0.00    +0.100 A 
ATOM      6  C   UNL     1       5.768   5.119  -8.329  0.00  0.00    +0.039 A 
ENDROOT
BRANCH   2   7
ATOM      7  S   UNL     1       1.982   5.647  -9.049  0.00  0.00    +0.107 S 
ATOM      8  O   UNL     1       1.884   4.159  -9.240  0.00  0.00    -0.146 OA
ATOM      9  O   UNL     1       1.459   6.292 -10.315  0.00  0.00    -0.146 OA
BRANCH   7  10
ATOM     10  N   UNL     1       0.975   6.185  -7.775  0.00  0.00    -0.071 NA
ATOM     11  C   UNL     1       1.185   7.250  -7.091  0.00  0.00    +0.371 C 
ATOM     12  N   UNL     1       0.705   7.306  -5.756  0.00  0.00    -0.185 NA
ATOM     13  O   UNL     1       1.937   8.237  -7.691  0.00  0.00    -0.244 OA
BRANCH  12  14
ATOM     14  C   UNL     1      -0.410   6.467  -5.407  0.00  0.00    +0.097 C 
ATOM     15  C   UNL     1      -1.538   7.338  -4.895  0.00  0.00    +0.023 C 
ATOM     16  C   UNL     1      -0.091   5.455  -4.341  0.00  0.00    +0.023 C 
ENDBRANCH  12  14
ENDBRANCH   7  10
ENDBRANCH   2   7
BRANCH   1  17
ATOM     17  N   UNL     1       3.878   4.981  -6.766  0.00  0.00    -0.211 NA
BRANCH  17  21
ATOM     18  C   UNL     1       4.115   4.832  -1.922  0.00  0.00    +0.031 C 
ATOM     19  C   UNL     1       4.176   5.653  -3.168  0.00  0.00    -0.021 A 
ATOM     20  C   UNL     1       3.567   5.258  -4.349  0.00  0.00    +0.012 A 
ATOM     21  C   UNL     1       3.955   5.763  -5.583  0.00  0.00    +0.070 A 
ATOM     22  C   UNL     1       4.500   7.039  -5.556  0.00  0.00    +0.016 A 
ATOM     23  C   UNL     1       5.082   7.524  -4.394  0.00  0.00    +0.001 A 
ATOM     24  C   UNL     1       4.998   6.764  -3.238  0.00  0.00    -0.004 A 
ENDBRANCH  17  21
ENDBRANCH   1  17
TORSDOF 5
ENDMDL
MODEL 8
REMARK VINA RESULT:      -7.3      3.891      5.994
REMARK  Name = 
REMARK  5 active torsions:
REMARK  status: ('A' for Active; 'I' for Inactive)
REMARK    1  A    between atoms: C_6  and  N_7
REMARK    2  A    between atoms: N_7  and  C_8
REMARK    3  A    between atoms: C_13  and  S_14
REMARK    4  A    between atoms: S_14  and  N_17
REMARK    5  A    between atoms: N_20  and  C_21
REMARK                            x       y       z     vdW  Elec       q    Type
REMARK                         _______ _______ _______ _____ _____    ______ ____
ROOT
ATOM      1  C   UNL     1       1.797   5.538  -4.615  0.00  0.00    +0.093 A 
ATOM      2  C   UNL     1       2.331   6.128  -5.754  0.00  0.00    +0.163 A 
ATOM      3  C   UNL     1       3.537   6.789  -5.562  0.00  0.00    +0.121 A 
ATOM      4  N   UNL     1       4.018   7.087  -4.341  0.00  0.00    -0.241 NA
ATOM      5  C   UNL     1       3.681   6.286  -3.303  0.00  0.00    +0.100 A 
ATOM      6  C   UNL     1       2.478   5.606  -3.405  0.00  0.00    +0.039 A 
ENDROOT
BRANCH   2   7
ATOM      7  S   UNL     1       2.121   5.242  -7.261  0.00  0.00    +0.107 S 
ATOM      8  O   UNL     1       0.721   5.385  -7.791  0.00  0.00    -0.146 OA
ATOM      9  O   UNL     1       2.337   3.774  -6.964  0.00  0.00    -0.146 OA
BRANCH   7  10
ATOM     10  N   UNL     1       3.285   5.677  -8.438  0.00  0.00    -0.071 NA
ATOM     11  C   UNL     1       3.211   6.729  -9.170  0.00  0.00    +0.371 C 
ATOM     12  N   UNL     1       3.828   6.711 -10.448  0.00  0.00    -0.185 NA
ATOM     13  O   UNL     1       2.463   7.777  -8.681  0.00  0.00    -0.244 OA
BRANCH  12  14
ATOM     14  C   UNL     1       4.920   5.798 -10.656  0.00  0.00    +0.097 C 
ATOM     15  C   UNL     1       6.221   6.508 -10.345  0.00  0.00    +0.023 C 
ATOM     16  C   UNL     1       5.008   5.274 -12.063  0.00  0.00    +0.023 C 
ENDBRANCH  12  14
ENDBRANCH   7  10
ENDBRANCH   2   7
BRANCH   1  17
ATOM     17  N   UNL     1       0.481   5.019  -4.709  0.00  0.00    -0.211 NA
BRANCH  17  21
ATOM     18  C   UNL     1      -1.969   7.087  -1.068  0.00  0.00    +0.031 C 
ATOM     19  C   UNL     1      -1.835   6.865  -2.539  0.00  0.00    -0.021 A 
ATOM     20  C   UNL     1      -1.182   5.763  -3.067  0.00  0.00    +0.012 A 
ATOM     21  C   UNL     1      -0.686   5.751  -4.364  0.00  0.00    +0.070 A 
ATOM     22  C   UNL     1      -1.354   6.572  -5.261  0.00  0.00    +0.016 A 
ATOM     23  C   UNL     1      -2.073   7.666  -4.803  0.00  0.00    +0.001 A 
ATOM     24  C   UNL     1      -2.211   7.850  -3.436  0.00  0.00    -0.004 A 
ENDBRANCH  17  21
ENDBRANCH   1  17
TORSDOF 5
ENDMDL
MODEL 9
REMARK VINA RESULT:      -7.3      4.578      6.626
REMARK  Name = 
REMARK  5 active torsions:
REMARK  status: ('A' for Active; 'I' for Inactive)
REMARK    1  A    between atoms: C_6  and  N_7
REMARK    2  A    between atoms: N_7  and  C_8
REMARK    3  A    between atoms: C_13  and  S_14
REMARK    4  A    between atoms: S_14  and  N_17
REMARK    5  A    between atoms: N_20  and  C_21
REMARK                            x       y       z     vdW  Elec       q    Type
REMARK                         _______ _______ _______ _____ _____    ______ ____
ROOT
ATOM      1  C   UNL     1       2.782   6.382 -10.036  0.00  0.00    +0.093 A 
ATOM      2  C   UNL     1       3.048   6.020  -8.720  0.00  0.00    +0.163 A 
ATOM      3  C   UNL     1       4.361   5.646  -8.468  0.00  0.00    +0.121 A 
ATOM      4  N   UNL     1       5.242   5.377  -9.449  0.00  0.00    -0.241 NA
ATOM      5  C   UNL     1       5.087   5.997 -10.643  0.00  0.00    +0.100 A 
ATOM      6  C   UNL     1       3.800   6.384 -10.982  0.00  0.00    +0.039 A 
ENDROOT
BRANCH   2   7
ATOM      7  S   UNL     1       2.213   6.944  -7.475  0.00  0.00    +0.107 S 
ATOM      8  O   UNL     1       0.817   6.431  -7.256  0.00  0.00    -0.146 OA
ATOM      9  O   UNL     1       2.090   8.370  -7.967  0.00  0.00    -0.146 OA
BRANCH   7  10
ATOM     10  N   UNL     1       3.096   7.007  -6.011  0.00  0.00    -0.071 NA
ATOM     11  C   UNL     1       3.025   6.119  -5.087  0.00  0.00    +0.371 C 
ATOM     12  N   UNL     1       3.283   6.511  -3.748  0.00  0.00    -0.185 NA
ATOM     13  O   UNL     1       2.623   4.857  -5.467  0.00  0.00    -0.244 OA
BRANCH  12  14
ATOM     14  C   UNL     1       4.108   7.669  -3.532  0.00  0.00    +0.097 C 
ATOM     15  C   UNL     1       5.562   7.269  -3.663  0.00  0.00    +0.023 C 
ATOM     16  C   UNL     1       3.924   8.296  -2.177  0.00  0.00    +0.023 C 
ENDBRANCH  12  14
ENDBRANCH   7  10
ENDBRANCH   2   7
BRANCH   1  17
ATOM     17  N   UNL     1       1.424   6.585 -10.391  0.00  0.00    -0.211 NA
BRANCH  17  21
ATOM     18  C   UNL     1       0.753   8.115 -14.947  0.00  0.00    +0.031 C 
ATOM     19  C   UNL     1       0.651   7.001 -13.957  0.00  0.00    -0.021 A 
ATOM     20  C   UNL     1       0.554   7.227 -12.592  0.00  0.00    +0.012 A 
ATOM     21  C   UNL     1       0.880   6.251 -11.659  0.00  0.00    +0.070 A 
ATOM     22  C   UNL     1       0.721   4.942 -12.091  0.00  0.00    +0.016 A 
ATOM     23  C   UNL     1       0.754   4.645 -13.445  0.00  0.00    +0.001 A 
ATOM     24  C   UNL     1       0.826   5.688 -14.356  0.00  0.00    -0.004 A 
ENDBRANCH  17  21
ENDBRANCH   1  17
TORSDOF 5
ENDMDL
