MODEL 1
REMARK VINA RESULT:      -6.9      0.000      0.000
REMARK  Name = 
REMARK  8 active torsions:
REMARK  status: ('A' for Active; 'I' for Inactive)
REMARK    1  A    between atoms: C_2  and  C_3
REMARK    2  A    between atoms: C_3  and  C_4
REMARK    3  A    between atoms: C_4  and  C_5
REMARK    4  A    between atoms: C_5  and  C_6
REMARK    5  A    between atoms: C_6  and  C_7
REMARK    6  A    between atoms: C_7  and  C_8
REMARK    7  A    between atoms: C_8  and  C_9
REMARK    8  A    between atoms: N_11  and  C_12
REMARK                            x       y       z     vdW  Elec       q    Type
REMARK                         _______ _______ _______ _____ _____    ______ ____
ROOT
ATOM      1  C   UNL     1      -0.383   5.488  -7.389  0.00  0.00    +0.087 C 
ENDROOT
BRANCH   1   2
ATOM      2  C   UNL     1       0.879   4.962  -6.781  0.00  0.00    +0.246 C 
ATOM      3  N   UNL     1       2.034   5.785  -6.691  0.00  0.00    -0.179 NA
ATOM      4  O   UNL     1       0.886   3.915  -6.068  0.00  0.00    -0.273 OA
BRANCH   3   5
ATOM      5  C   UNL     1       2.819   5.898  -5.499  0.00  0.00    +0.073 A 
ATOM      6  C   UNL     1       4.089   5.337  -5.514  0.00  0.00    +0.017 A 
ATOM      7  C   UNL     1       4.622   4.879  -4.317  0.00  0.00    +0.001 A 
ATOM      8  C   UNL     1       3.987   5.225  -3.131  0.00  0.00    +0.000 A 
ATOM      9  C   UNL     1       3.104   6.293  -3.201  0.00  0.00    +0.001 A 
ATOM     10  C   UNL     1       2.370   6.515  -4.360  0.00  0.00    +0.017 A 
ENDBRANCH   3   5
ENDBRANCH   1   2
BRANCH   1  11
ATOM     11  C   UNL     1      -1.532   5.471  -6.421  0.00  0.00    +0.010 C 
BRANCH  11  12
ATOM     12  C   UNL     1      -1.178   6.428  -5.297  0.00  0.00    +0.001 C 
BRANCH  12  13
ATOM     13  C   UNL     1      -2.367   7.264  -4.869  0.00  0.00    +0.000 C 
BRANCH  13  14
ATOM     14  C   UNL     1      -2.111   7.670  -3.423  0.00  0.00    +0.007 C 
BRANCH  14  15
ATOM     15  C   UNL     1      -3.042   6.878  -2.526  0.00  0.00    +0.051 C 
BRANCH  15  17
ATOM     16  O   UNL     1      -2.811   4.536  -2.805  0.00  0.00    -0.540 OA
ATOM     17  C   UNL     1      -2.393   5.570  -2.202  0.00  0.00    +0.087 C 
ATOM     18  N   UNL     1      -1.200   5.505  -1.426  0.00  0.00    -0.203 NA
ATOM     19  O   UNL     1      -0.234   4.606  -1.748  0.00  0.00    -0.403 OA
ENDBRANCH  15  17
ENDBRANCH  14  15
ENDBRANCH  13  14
ENDBRANCH  12  13
ENDBRANCH  11  12
ENDBRANCH   1  11
TORSDOF 8
ENDMDL
MODEL 2
REMARK VINA RESULT:      -6.7      3.681      4.690
REMARK  Name = 
REMARK  8 active torsions:
REMARK  status: ('A' for Active; 'I' for Inactive)
REMARK    1  A    between atoms: C_2  and  C_3
REMARK    2  A    between atoms: C_3  and  C_4
REMARK    3  A    between atoms: C_4  and  C_5
REMARK    4  A    between atoms: C_5  and  C_6
REMARK    5  A    between atoms: C_6  and  C_7
REMARK    6  A    between atoms: C_7  and  C_8
REMARK    7  A    between atoms: C_8  and  C_9
REMARK    8  A    between atoms: N_11  and  C_12
REMARK                            x       y       z     vdW  Elec       q    Type
REMARK                         _______ _______ _______ _____ _____    ______ ____
ROOT
ATOM      1  C   UNL     1       1.382   6.328  -9.375  0.00  0.00    +0.087 C 
ENDROOT
BRANCH   1   2
ATOM      2  C   UNL     1       2.790   6.195  -8.889  0.00  0.00    +0.246 C 
ATOM      3  N   UNL     1       3.793   5.637  -9.728  0.00  0.00    -0.179 NA
ATOM      4  O   UNL     1       3.205   6.829  -7.875  0.00  0.00    -0.273 OA
BRANCH   3   5
ATOM      5  C   UNL     1       5.083   6.232  -9.901  0.00  0.00    +0.073 A 
ATOM      6  C   UNL     1       5.158   7.382 -10.677  0.00  0.00    +0.017 A 
ATOM      7  C   UNL     1       6.337   7.638 -11.363  0.00  0.00    +0.001 A 
ATOM      8  C   UNL     1       7.465   6.890 -11.050  0.00  0.00    +0.000 A 
ATOM      9  C   UNL     1       7.431   6.213  -9.839  0.00  0.00    +0.001 A 
ATOM     10  C   UNL     1       6.228   5.717  -9.352  0.00  0.00    +0.017 A 
ENDBRANCH   3   5
ENDBRANCH   1   2
BRANCH   1  11
ATOM     11  C   UNL     1       0.513   5.188  -8.925  0.00  0.00    +0.010 C 
BRANCH  11  12
ATOM     12  C   UNL     1      -0.611   5.787  -8.100  0.00  0.00    +0.001 C 
BRANCH  12  13
ATOM     13  C   UNL     1      -0.874   4.990  -6.838  0.00  0.00    +0.000 C 
BRANCH  13  14
ATOM     14  C   UNL     1      -2.148   5.560  -6.226  0.00  0.00    +0.007 C 
BRANCH  14  15
ATOM     15  C   UNL     1      -1.767   6.476  -5.081  0.00  0.00    +0.051 C 
BRANCH  15  17
ATOM     16  O   UNL     1      -0.415   5.736  -3.280  0.00  0.00    -0.540 OA
ATOM     17  C   UNL     1      -1.539   5.643  -3.859  0.00  0.00    +0.087 C 
ATOM     18  N   UNL     1      -2.608   4.946  -3.226  0.00  0.00    -0.203 NA
ATOM     19  O   UNL     1      -2.662   4.880  -1.871  0.00  0.00    -0.403 OA
ENDBRANCH  15  17
ENDBRANCH  14  15
ENDBRANCH  13  14
ENDBRANCH  12  13
ENDBRANCH  11  12
ENDBRANCH   1  11
TORSDOF 8
ENDMDL
MODEL 3
REMARK VINA RESULT:      -6.7      4.476      8.495
REMARK  Name = 
REMARK  8 active torsions:
REMARK  status: ('A' for Active; 'I' for Inactive)
REMARK    1  A    between atoms: C_2  and  C_3
REMARK    2  A    between atoms: C_3  and  C_4
REMARK    3  A    between atoms: C_4  and  C_5
REMARK    4  A    between atoms: C_5  and  C_6
REMARK    5  A    between atoms: C_6  and  C_7
REMARK    6  A    between atoms: C_7  and  C_8
REMARK    7  A    between atoms: C_8  and  C_9
REMARK    8  A    between atoms: N_11  and  C_12
REMARK                            x       y       z     vdW  Elec       q    Type
REMARK                         _______ _______ _______ _____ _____    ______ ____
ROOT
ATOM      1  C   UNL     1       2.390   4.047  -8.536  0.00  0.00    +0.087 C 
ENDROOT
BRANCH   1   2
ATOM      2  C   UNL     1       1.934   4.552  -7.204  0.00  0.00    +0.246 C 
ATOM      3  N   UNL     1       1.201   5.765  -7.104  0.00  0.00    -0.179 NA
ATOM      4  O   UNL     1       1.906   3.801  -6.185  0.00  0.00    -0.273 OA
BRANCH   3   5
ATOM      5  C   UNL     1       0.011   5.894  -6.319  0.00  0.00    +0.073 A 
ATOM      6  C   UNL     1      -1.121   5.221  -6.760  0.00  0.00    +0.017 A 
ATOM      7  C   UNL     1      -2.366   5.752  -6.450  0.00  0.00    +0.001 A 
ATOM      8  C   UNL     1      -2.438   6.773  -5.510  0.00  0.00    +0.000 A 
ATOM      9  C   UNL     1      -1.329   6.927  -4.690  0.00  0.00    +0.001 A 
ATOM     10  C   UNL     1      -0.058   6.651  -5.179  0.00  0.00    +0.017 A 
ENDBRANCH   3   5
ENDBRANCH   1   2
BRANCH   1  11
ATOM     11  C   UNL     1       3.345   4.994  -9.208  0.00  0.00    +0.010 C 
BRANCH  11  12
ATOM     12  C   UNL     1       4.739   4.425  -9.020  0.00  0.00    +0.001 C 
BRANCH  12  13
ATOM     13  C   UNL     1       5.763   5.510  -8.757  0.00  0.00    +0.000 C 
BRANCH  13  14
ATOM     14  C   UNL     1       5.935   6.267 -10.069  0.00  0.00    +0.007 C 
BRANCH  14  15
ATOM     15  C   UNL     1       7.231   5.825 -10.717  0.00  0.00    +0.051 C 
BRANCH  15  17
ATOM     16  O   UNL     1       7.770   4.568 -12.653  0.00  0.00    -0.540 OA
ATOM     17  C   UNL     1       6.931   5.342 -12.101  0.00  0.00    +0.087 C 
ATOM     18  N   UNL     1       5.653   5.544 -12.697  0.00  0.00    -0.203 NA
ATOM     19  O   UNL     1       5.104   4.568 -13.464  0.00  0.00    -0.403 OA
ENDBRANCH  15  17
ENDBRANCH  14  15
ENDBRANCH  13  14
ENDBRANCH  12  13
ENDBRANCH  11  12
ENDBRANCH   1  11
TORSDOF 8
ENDMDL
MODEL 4
REMARK VINA RESULT:      -6.6      2.314      5.324
REMARK  Name = 
REMARK  8 active torsions:
REMARK  status: ('A' for Active; 'I' for Inactive)
REMARK    1  A    between atoms: C_2  and  C_3
REMARK    2  A    between atoms: C_3  and  C_4
REMARK    3  A    between atoms: C_4  and  C_5
REMARK    4  A    between atoms: C_5  and  C_6
REMARK    5  A    between atoms: C_6  and  C_7
REMARK    6  A    between atoms: C_7  and  C_8
REMARK    7  A    between atoms: C_8  and  C_9
REMARK    8  A    between atoms: N_11  and  C_12
REMARK                            x       y       z     vdW  Elec       q    Type
REMARK                         _______ _______ _______ _____ _____    ______ ____
ROOT
ATOM      1  C   UNL     1       3.385   4.797  -5.257  0.00  0.00    +0.087 C 
ENDROOT
BRANCH   1   2
ATOM      2  C   UNL     1       2.037   4.774  -5.905  0.00  0.00    +0.246 C 
ATOM      3  N   UNL     1       0.856   4.859  -5.118  0.00  0.00    -0.179 NA
ATOM      4  O   UNL     1       1.893   4.987  -7.145  0.00  0.00    -0.273 OA
BRANCH   3   5
ATOM      5  C   UNL     1      -0.232   5.732  -5.437  0.00  0.00    +0.073 A 
ATOM      6  C   UNL     1      -0.142   7.049  -5.003  0.00  0.00    +0.017 A 
ATOM      7  C   UNL     1      -1.318   7.736  -4.732  0.00  0.00    +0.001 A 
ATOM      8  C   UNL     1      -2.522   7.179  -5.143  0.00  0.00    +0.000 A 
ATOM      9  C   UNL     1      -2.437   6.183  -6.106  0.00  0.00    +0.001 A 
ATOM     10  C   UNL     1      -1.344   5.327  -6.128  0.00  0.00    +0.017 A 
ENDBRANCH   3   5
ENDBRANCH   1   2
BRANCH   1  11
ATOM     11  C   UNL     1       4.286   5.842  -5.852  0.00  0.00    +0.010 C 
BRANCH  11  12
ATOM     12  C   UNL     1       3.888   7.171  -5.237  0.00  0.00    +0.001 C 
BRANCH  12  13
ATOM     13  C   UNL     1       4.659   7.460  -3.965  0.00  0.00    +0.000 C 
BRANCH  13  14
ATOM     14  C   UNL     1       3.620   7.687  -2.873  0.00  0.00    +0.007 C 
BRANCH  14  15
ATOM     15  C   UNL     1       4.285   7.495  -1.525  0.00  0.00    +0.051 C 
BRANCH  15  17
ATOM     16  O   UNL     1       4.539   5.723   0.028  0.00  0.00    -0.540 OA
ATOM     17  C   UNL     1       3.954   6.125  -1.021  0.00  0.00    +0.087 C 
ATOM     18  N   UNL     1       2.860   5.384  -1.552  0.00  0.00    -0.203 NA
ATOM     19  O   UNL     1       2.086   4.635  -0.724  0.00  0.00    -0.403 OA
ENDBRANCH  15  17
ENDBRANCH  14  15
ENDBRANCH  13  14
ENDBRANCH  12  13
ENDBRANCH  11  12
ENDBRANCH   1  11
TORSDOF 8
ENDMDL
MODEL 5
REMARK VINA RESULT:      -6.6      1.714      2.283
REMARK  Name = 
REMARK  8 active torsions:
REMARK  status: ('A' for Active; 'I' for Inactive)
REMARK    1  A    between atoms: C_2  and  C_3
REMARK    2  A    between atoms: C_3  and  C_4
REMARK    3  A    between atoms: C_4  and  C_5
REMARK    4  A    between atoms: C_5  and  C_6
REMARK    5  A    between atoms: C_6  and  C_7
REMARK    6  A    between atoms: C_7  and  C_8
REMARK    7  A    between atoms: C_8  and  C_9
REMARK    8  A    between atoms: N_11  and  C_12
REMARK                            x       y       z     vdW  Elec       q    Type
REMARK                         _______ _______ _______ _____ _____    ______ ____
ROOT
ATOM      1  C   UNL     1       1.427   6.143  -6.527  0.00  0.00    +0.087 C 
ENDROOT
BRANCH   1   2
ATOM      2  C   UNL     1       2.437   6.798  -5.640  0.00  0.00    +0.246 C 
ATOM      3  N   UNL     1       2.192   6.939  -4.247  0.00  0.00    -0.179 NA
ATOM      4  O   UNL     1       3.635   6.969  -6.012  0.00  0.00    -0.273 OA
BRANCH   3   5
ATOM      5  C   UNL     1       3.163   6.612  -3.248  0.00  0.00    +0.073 A 
ATOM      6  C   UNL     1       3.407   5.265  -3.010  0.00  0.00    +0.017 A 
ATOM      7  C   UNL     1       3.819   4.885  -1.740  0.00  0.00    +0.001 A 
ATOM      8  C   UNL     1       4.213   5.871  -0.845  0.00  0.00    +0.000 A 
ATOM      9  C   UNL     1       4.520   7.107  -1.396  0.00  0.00    +0.001 A 
ATOM     10  C   UNL     1       3.840   7.556  -2.521  0.00  0.00    +0.017 A 
ENDBRANCH   3   5
ENDBRANCH   1   2
BRANCH   1  11
ATOM     11  C   UNL     1       0.017   6.421  -6.089  0.00  0.00    +0.010 C 
BRANCH  11  12
ATOM     12  C   UNL     1      -0.860   5.351  -6.712  0.00  0.00    +0.001 C 
BRANCH  12  13
ATOM     13  C   UNL     1      -2.309   5.488  -6.290  0.00  0.00    +0.000 C 
BRANCH  13  14
ATOM     14  C   UNL     1      -2.300   6.196  -4.941  0.00  0.00    +0.007 C 
BRANCH  14  15
ATOM     15  C   UNL     1      -2.929   5.281  -3.910  0.00  0.00    +0.051 C 
BRANCH  15  17
ATOM     16  O   UNL     1      -2.656   5.096  -1.563  0.00  0.00    -0.540 OA
ATOM     17  C   UNL     1      -2.084   5.301  -2.675  0.00  0.00    +0.087 C 
ATOM     18  N   UNL     1      -0.662   5.318  -2.749  0.00  0.00    -0.203 NA
ATOM     19  O   UNL     1       0.069   4.595  -1.862  0.00  0.00    -0.403 OA
ENDBRANCH  15  17
ENDBRANCH  14  15
ENDBRANCH  13  14
ENDBRANCH  12  13
ENDBRANCH  11  12
ENDBRANCH   1  11
TORSDOF 8
ENDMDL
MODEL 6
REMARK VINA RESULT:      -6.5      5.394      8.163
REMARK  Name = 
REMARK  8 active torsions:
REMARK  status: ('A' for Active; 'I' for Inactive)
REMARK    1  A    between atoms: C_2  and  C_3
REMARK    2  A    between atoms: C_3  and  C_4
REMARK    3  A    between atoms: C_4  and  C_5
REMARK    4  A    between atoms: C_5  and  C_6
REMARK    5  A    between atoms: C_6  and  C_7
REMARK    6  A    between atoms: C_7  and  C_8
REMARK    7  A    between atoms: C_8  and  C_9
REMARK    8  A    between atoms: N_11  and  C_12
REMARK                            x       y       z     vdW  Elec       q    Type
REMARK                         _______ _______ _______ _____ _____    ______ ____
ROOT
ATOM      1  C   UNL     1       1.944   4.685  -8.550  0.00  0.00    +0.087 C 
ENDROOT
BRANCH   1   2
ATOM      2  C   UNL     1       3.414   4.902  -8.379  0.00  0.00    +0.246 C 
ATOM      3  N   UNL     1       4.287   4.842  -9.498  0.00  0.00    -0.179 NA
ATOM      4  O   UNL     1       3.889   5.436  -7.333  0.00  0.00    -0.273 OA
BRANCH   3   5
ATOM      5  C   UNL     1       5.296   5.825  -9.753  0.00  0.00    +0.073 A 
ATOM      6  C   UNL     1       4.892   7.019 -10.336  0.00  0.00    +0.017 A 
ATOM      7  C   UNL     1       5.800   7.705 -11.131  0.00  0.00    +0.001 A 
ATOM      8  C   UNL     1       7.133   7.315 -11.106  0.00  0.00    +0.000 A 
ATOM      9  C   UNL     1       7.519   6.531 -10.028  0.00  0.00    +0.001 A 
ATOM     10  C   UNL     1       6.622   5.633  -9.463  0.00  0.00    +0.017 A 
ENDBRANCH   3   5
ENDBRANCH   1   2
BRANCH   1  11
ATOM     11  C   UNL     1       1.159   5.958  -8.410  0.00  0.00    +0.010 C 
BRANCH  11  12
ATOM     12  C   UNL     1       1.165   6.633  -9.770  0.00  0.00    +0.001 C 
BRANCH  12  13
ATOM     13  C   UNL     1      -0.004   6.191 -10.627  0.00  0.00    +0.000 C 
BRANCH  13  14
ATOM     14  C   UNL     1       0.594   5.557 -11.878  0.00  0.00    +0.007 C 
BRANCH  14  15
ATOM     15  C   UNL     1       1.816   6.353 -12.287  0.00  0.00    +0.051 C 
BRANCH  15  17
ATOM     16  O   UNL     1       3.842   5.412 -13.080  0.00  0.00    -0.540 OA
ATOM     17  C   UNL     1       2.598   5.550 -13.279  0.00  0.00    +0.087 C 
ATOM     18  N   UNL     1       1.949   4.774 -14.281  0.00  0.00    -0.203 NA
ATOM     19  O   UNL     1       2.444   3.555 -14.616  0.00  0.00    -0.403 OA
ENDBRANCH  15  17
ENDBRANCH  14  15
ENDBRANCH  13  14
ENDBRANCH  12  13
ENDBRANCH  11  12
ENDBRANCH   1  11
TORSDOF 8
ENDMDL
MODEL 7
REMARK VINA RESULT:      -6.4      2.930      4.727
REMARK  Name = 
REMARK  8 active torsions:
REMARK  status: ('A' for Active; 'I' for Inactive)
REMARK    1  A    between atoms: C_2  and  C_3
REMARK    2  A    between atoms: C_3  and  C_4
REMARK    3  A    between atoms: C_4  and  C_5
REMARK    4  A    between atoms: C_5  and  C_6
REMARK    5  A    between atoms: C_6  and  C_7
REMARK    6  A    between atoms: C_7  and  C_8
REMARK    7  A    between atoms: C_8  and  C_9
REMARK    8  A    between atoms: N_11  and  C_12
REMARK                            x       y       z     vdW  Elec       q    Type
REMARK                         _______ _______ _______ _____ _____    ______ ____
ROOT
ATOM      1  C   UNL     1       2.067   6.834  -6.167  0.00  0.00    +0.087 C 
ENDROOT
BRANCH   1   2
ATOM      2  C   UNL     1       2.368   7.165  -7.594  0.00  0.00    +0.246 C 
ATOM      3  N   UNL     1       2.538   6.132  -8.554  0.00  0.00    -0.179 NA
ATOM      4  O   UNL     1       2.184   8.329  -8.058  0.00  0.00    -0.273 OA
BRANCH   3   5
ATOM      5  C   UNL     1       1.910   6.152  -9.840  0.00  0.00    +0.073 A 
ATOM      6  C   UNL     1       0.527   6.027  -9.879  0.00  0.00    +0.017 A 
ATOM      7  C   UNL     1      -0.051   5.448 -10.999  0.00  0.00    +0.001 A 
ATOM      8  C   UNL     1       0.734   5.255 -12.129  0.00  0.00    +0.000 A 
ATOM      9  C   UNL     1       1.914   5.983 -12.183  0.00  0.00    +0.001 A 
ATOM     10  C   UNL     1       2.606   6.275 -11.015  0.00  0.00    +0.017 A 
ENDBRANCH   3   5
ENDBRANCH   1   2
BRANCH   1  11
ATOM     11  C   UNL     1       0.591   6.807  -5.887  0.00  0.00    +0.010 C 
BRANCH  11  12
ATOM     12  C   UNL     1       0.121   5.385  -6.131  0.00  0.00    +0.001 C 
BRANCH  12  13
ATOM     13  C   UNL     1      -1.314   5.339  -6.619  0.00  0.00    +0.000 C 
BRANCH  13  14
ATOM     14  C   UNL     1      -2.112   6.256  -5.700  0.00  0.00    +0.007 C 
BRANCH  14  15
ATOM     15  C   UNL     1      -2.952   5.400  -4.773  0.00  0.00    +0.051 C 
BRANCH  15  17
ATOM     16  O   UNL     1      -2.672   4.657  -2.539  0.00  0.00    -0.540 OA
ATOM     17  C   UNL     1      -2.459   5.589  -3.373  0.00  0.00    +0.087 C 
ATOM     18  N   UNL     1      -1.583   6.659  -3.032  0.00  0.00    -0.203 NA
ATOM     19  O   UNL     1      -0.576   6.451  -2.145  0.00  0.00    -0.403 OA
ENDBRANCH  15  17
ENDBRANCH  14  15
ENDBRANCH  13  14
ENDBRANCH  12  13
ENDBRANCH  11  12
ENDBRANCH   1  11
TORSDOF 8
ENDMDL
MODEL 8
REMARK VINA RESULT:      -6.4      2.902      3.782
REMARK  Name = 
REMARK  8 active torsions:
REMARK  status: ('A' for Active; 'I' for Inactive)
REMARK    1  A    between atoms: C_2  and  C_3
REMARK    2  A    between atoms: C_3  and  C_4
REMARK    3  A    between atoms: C_4  and  C_5
REMARK    4  A    between atoms: C_5  and  C_6
REMARK    5  A    between atoms: C_6  and  C_7
REMARK    6  A    between atoms: C_7  and  C_8
REMARK    7  A    between atoms: C_8  and  C_9
REMARK    8  A    between atoms: N_11  and  C_12
REMARK                            x       y       z     vdW  Elec       q    Type
REMARK                         _______ _______ _______ _____ _____    ______ ____
ROOT
ATOM      1  C   UNL     1       1.010   6.492  -7.260  0.00  0.00    +0.087 C 
ENDROOT
BRANCH   1   2
ATOM      2  C   UNL     1       2.484   6.252  -7.186  0.00  0.00    +0.246 C 
ATOM      3  N   UNL     1       3.139   5.473  -8.178  0.00  0.00    -0.179 NA
ATOM      4  O   UNL     1       3.235   6.956  -6.449  0.00  0.00    -0.273 OA
BRANCH   3   5
ATOM      5  C   UNL     1       4.359   5.879  -8.808  0.00  0.00    +0.073 A 
ATOM      6  C   UNL     1       4.277   6.866  -9.782  0.00  0.00    +0.017 A 
ATOM      7  C   UNL     1       5.221   6.868 -10.800  0.00  0.00    +0.001 A 
ATOM      8  C   UNL     1       6.342   6.058 -10.668  0.00  0.00    +0.000 A 
ATOM      9  C   UNL     1       6.618   5.602  -9.387  0.00  0.00    +0.001 A 
ATOM     10  C   UNL     1       5.579   5.335  -8.504  0.00  0.00    +0.017 A 
ENDBRANCH   3   5
ENDBRANCH   1   2
BRANCH   1  11
ATOM     11  C   UNL     1       0.221   5.413  -6.574  0.00  0.00    +0.010 C 
BRANCH  11  12
ATOM     12  C   UNL     1      -1.166   5.419  -7.190  0.00  0.00    +0.001 C 
BRANCH  12  13
ATOM     13  C   UNL     1      -2.254   5.400  -6.136  0.00  0.00    +0.000 C 
BRANCH  13  14
ATOM     14  C   UNL     1      -1.799   6.343  -5.029  0.00  0.00    +0.007 C 
BRANCH  14  15
ATOM     15  C   UNL     1      -2.771   6.235  -3.871  0.00  0.00    +0.051 C 
BRANCH  15  17
ATOM     16  O   UNL     1      -2.700   4.868  -1.935  0.00  0.00    -0.540 OA
ATOM     17  C   UNL     1      -2.051   5.645  -2.699  0.00  0.00    +0.087 C 
ATOM     18  N   UNL     1      -0.638   5.755  -2.564  0.00  0.00    -0.203 NA
ATOM     19  O   UNL     1       0.078   4.707  -2.082  0.00  0.00    -0.403 OA
ENDBRANCH  15  17
ENDBRANCH  14  15
ENDBRANCH  13  14
ENDBRANCH  12  13
ENDBRANCH  11  12
ENDBRANCH   1  11
TORSDOF 8
ENDMDL
MODEL 9
REMARK VINA RESULT:      -6.4      4.250      8.192
REMARK  Name = 
REMARK  8 active torsions:
REMARK  status: ('A' for Active; 'I' for Inactive)
REMARK    1  A    between atoms: C_2  and  C_3
REMARK    2  A    between atoms: C_3  and  C_4
REMARK    3  A    between atoms: C_4  and  C_5
REMARK    4  A    between atoms: C_5  and  C_6
REMARK    5  A    between atoms: C_6  and  C_7
REMARK    6  A    between atoms: C_7  and  C_8
REMARK    7  A    between atoms: C_8  and  C_9
REMARK    8  A    between atoms: N_11  and  C_12
REMARK                            x       y       z     vdW  Elec       q    Type
REMARK                         _______ _______ _______ _____ _____    ______ ____
ROOT
ATOM      1  C   UNL     1       3.954   6.694  -5.403  0.00  0.00    +0.087 C 
ENDROOT
BRANCH   1   2
ATOM      2  C   UNL     1       2.675   6.312  -4.729  0.00  0.00    +0.246 C 
ATOM      3  N   UNL     1       1.455   6.951  -5.081  0.00  0.00    -0.179 NA
ATOM      4  O   UNL     1       2.568   5.237  -4.068  0.00  0.00    -0.273 OA
BRANCH   3   5
ATOM      5  C   UNL     1       0.243   6.231  -5.334  0.00  0.00    +0.073 A 
ATOM      6  C   UNL     1       0.160   5.518  -6.522  0.00  0.00    +0.017 A 
ATOM      7  C   UNL     1      -1.091   5.333  -7.094  0.00  0.00    +0.001 A 
ATOM      8  C   UNL     1      -2.218   5.638  -6.341  0.00  0.00    +0.000 A 
ATOM      9  C   UNL     1      -2.025   5.744  -4.971  0.00  0.00    +0.001 A 
ATOM     10  C   UNL     1      -0.823   6.229  -4.472  0.00  0.00    +0.017 A 
ENDBRANCH   3   5
ENDBRANCH   1   2
BRANCH   1  11
ATOM     11  C   UNL     1       4.454   5.619  -6.327  0.00  0.00    +0.010 C 
BRANCH  11  12
ATOM     12  C   UNL     1       3.699   5.775  -7.635  0.00  0.00    +0.001 C 
BRANCH  12  13
ATOM     13  C   UNL     1       4.293   4.920  -8.737  0.00  0.00    +0.000 C 
BRANCH  13  14
ATOM     14  C   UNL     1       5.654   5.523  -9.064  0.00  0.00    +0.007 C 
BRANCH  14  15
ATOM     15  C   UNL     1       5.547   6.278 -10.374  0.00  0.00    +0.051 C 
BRANCH  15  17
ATOM     16  O   UNL     1       7.906   6.413 -10.555  0.00  0.00    -0.540 OA
ATOM     17  C   UNL     1       6.823   6.098 -11.134  0.00  0.00    +0.087 C 
ATOM     18  N   UNL     1       6.858   5.387 -12.367  0.00  0.00    -0.203 NA
ATOM     19  O   UNL     1       7.907   4.571 -12.647  0.00  0.00    -0.403 OA
ENDBRANCH  15  17
ENDBRANCH  14  15
ENDBRANCH  13  14
ENDBRANCH  12  13
ENDBRANCH  11  12
ENDBRANCH   1  11
TORSDOF 8
ENDMDL
