MODEL 1
REMARK VINA RESULT:      -8.5      0.000      0.000
REMARK  Name = 
REMARK  4 active torsions:
REMARK  status: ('A' for Active; 'I' for Inactive)
REMARK    1  A    between atoms: C_3  and  C_4
REMARK    2  A    between atoms: C_4  and  C_5
REMARK    3  A    between atoms: C_16  and  C_17
REMARK    4  A    between atoms: C_20  and  S_21
REMARK                            x       y       z     vdW  Elec       q    Type
REMARK                         _______ _______ _______ _____ _____    ______ ____
ROOT
ATOM      1  C   UNL     1       3.829   4.979  -9.642  0.00  0.00    +0.031 C 
ATOM      2  C   UNL     1       2.858   5.262  -8.813  0.00  0.00    -0.025 C 
ATOM      3  C   UNL     1       2.981   5.805  -7.454  0.00  0.00    -0.004 C 
ATOM      4  C   UNL     1       4.073   6.180  -6.820  0.00  0.00    -0.000 C 
ATOM      5  C   UNL     1       1.639   6.044  -6.909  0.00  0.00    -0.000 A 
ATOM      6  C   UNL     1       0.789   5.476  -7.850  0.00  0.00    -0.002 A 
ATOM      7  C   UNL     1      -0.546   5.337  -7.499  0.00  0.00    +0.029 A 
ATOM      8  C   UNL     1      -1.032   5.862  -6.312  0.00  0.00    +0.140 A 
ATOM      9  C   UNL     1      -0.213   6.731  -5.605  0.00  0.00    +0.030 A 
ATOM     10  F   UNL     1      -2.192   5.449  -5.756  0.00  0.00    -0.204 F 
ATOM     11  C   UNL     1       1.146   6.735  -5.812  0.00  0.00    +0.002 A 
ATOM     12  C   UNL     1       1.571   4.983  -8.980  0.00  0.00    -0.015 C 
ENDROOT
BRANCH   4  13
ATOM     13  C   UNL     1       4.052   6.185  -5.355  0.00  0.00    +0.000 A 
ATOM     14  C   UNL     1       4.222   7.350  -4.638  0.00  0.00    +0.001 A 
ATOM     15  C   UNL     1       4.184   7.259  -3.264  0.00  0.00    +0.009 A 
ATOM     16  C   UNL     1       4.360   6.045  -2.630  0.00  0.00    +0.056 A 
ATOM     17  C   UNL     1       4.005   4.906  -3.336  0.00  0.00    +0.009 A 
ATOM     18  C   UNL     1       3.933   4.966  -4.718  0.00  0.00    +0.001 A 
BRANCH  16  19
ATOM     19  S   UNL     1       4.106   5.945  -0.838  0.00  0.00    +0.066 S 
ATOM     20  O   UNL     1       3.842   4.419  -0.691  0.00  0.00    -0.251 OA
ATOM     21  C   UNL     1       2.384   6.581  -0.717  0.00  0.00    +0.111 C 
ENDBRANCH  16  19
ENDBRANCH   4  13
BRANCH  12  22
ATOM     22  C   UNL     1       0.981   4.615 -10.284  0.00  0.00    +0.140 C 
BRANCH  22  23
ATOM     23  C   UNL     1       0.674   5.811 -11.103  0.00  0.00    +0.369 C 
ATOM     24  O   UNL     1       1.488   6.170 -12.174  0.00  0.00    -0.245 OA
ATOM     25  O   UNL     1      -0.541   6.160 -11.202  0.00  0.00    -0.245 OA
ENDBRANCH  22  23
ENDBRANCH  12  22
TORSDOF 4
ENDMDL
MODEL 2
REMARK VINA RESULT:      -8.2      3.951      8.070
REMARK  Name = 
REMARK  4 active torsions:
REMARK  status: ('A' for Active; 'I' for Inactive)
REMARK    1  A    between atoms: C_3  and  C_4
REMARK    2  A    between atoms: C_4  and  C_5
REMARK    3  A    between atoms: C_16  and  C_17
REMARK    4  A    between atoms: C_20  and  S_21
REMARK                            x       y       z     vdW  Elec       q    Type
REMARK                         _______ _______ _______ _____ _____    ______ ____
ROOT
ATOM      1  C   UNL     1       0.509   4.811  -5.777  0.00  0.00    +0.031 C 
ATOM      2  C   UNL     1       1.487   5.104  -6.595  0.00  0.00    -0.025 C 
ATOM      3  C   UNL     1       1.373   5.584  -7.978  0.00  0.00    -0.004 C 
ATOM      4  C   UNL     1       0.282   5.881  -8.653  0.00  0.00    -0.000 C 
ATOM      5  C   UNL     1       2.716   5.862  -8.502  0.00  0.00    -0.000 A 
ATOM      6  C   UNL     1       3.567   5.372  -7.519  0.00  0.00    -0.002 A 
ATOM      7  C   UNL     1       4.916   5.281  -7.833  0.00  0.00    +0.029 A 
ATOM      8  C   UNL     1       5.407   5.778  -9.030  0.00  0.00    +0.140 A 
ATOM      9  C   UNL     1       4.567   6.579  -9.791  0.00  0.00    +0.030 A 
ATOM     10  F   UNL     1       6.598   5.397  -9.541  0.00  0.00    -0.204 F 
ATOM     11  C   UNL     1       3.205   6.529  -9.616  0.00  0.00    +0.002 A 
ATOM     12  C   UNL     1       2.781   4.891  -6.387  0.00  0.00    -0.015 C 
ENDROOT
BRANCH   4  13
ATOM     13  C   UNL     1       0.338   5.827 -10.116  0.00  0.00    +0.000 A 
ATOM     14  C   UNL     1       0.531   4.637 -10.784  0.00  0.00    +0.001 A 
ATOM     15  C   UNL     1       0.565   4.683 -12.160  0.00  0.00    +0.009 A 
ATOM     16  C   UNL     1       0.789   5.873 -12.824  0.00  0.00    +0.056 A 
ATOM     17  C   UNL     1       0.412   7.039 -12.175  0.00  0.00    +0.009 A 
ATOM     18  C   UNL     1       0.267   7.026 -10.797  0.00  0.00    +0.001 A 
BRANCH  16  19
ATOM     19  S   UNL     1       0.631   5.916 -14.628  0.00  0.00    +0.066 S 
ATOM     20  O   UNL     1       2.133   5.842 -15.030  0.00  0.00    -0.251 OA
ATOM     21  C   UNL     1       0.320   7.711 -14.886  0.00  0.00    +0.111 C 
ENDBRANCH  16  19
ENDBRANCH   4  13
BRANCH  12  22
ATOM     22  C   UNL     1       3.354   4.605  -5.056  0.00  0.00    +0.140 C 
BRANCH  22  23
ATOM     23  C   UNL     1       3.842   5.837  -4.393  0.00  0.00    +0.369 C 
ATOM     24  O   UNL     1       2.950   6.733  -3.808  0.00  0.00    -0.245 OA
ATOM     25  O   UNL     1       5.001   5.810  -3.880  0.00  0.00    -0.245 OA
ENDBRANCH  22  23
ENDBRANCH  12  22
TORSDOF 4
ENDMDL
MODEL 3
REMARK VINA RESULT:      -8.2      3.715      6.364
REMARK  Name = 
REMARK  4 active torsions:
REMARK  status: ('A' for Active; 'I' for Inactive)
REMARK    1  A    between atoms: C_3  and  C_4
REMARK    2  A    between atoms: C_4  and  C_5
REMARK    3  A    between atoms: C_16  and  C_17
REMARK    4  A    between atoms: C_20  and  S_21
REMARK                            x       y       z     vdW  Elec       q    Type
REMARK                         _______ _______ _______ _____ _____    ______ ____
ROOT
ATOM      1  C   UNL     1      -1.688   5.304  -6.737  0.00  0.00    +0.031 C 
ATOM      2  C   UNL     1      -0.529   5.663  -6.251  0.00  0.00    -0.025 C 
ATOM      3  C   UNL     1       0.687   5.992  -7.005  0.00  0.00    -0.004 C 
ATOM      4  C   UNL     1       0.845   6.059  -8.311  0.00  0.00    -0.000 C 
ATOM      5  C   UNL     1       1.734   6.418  -6.068  0.00  0.00    -0.000 A 
ATOM      6  C   UNL     1       1.191   6.154  -4.817  0.00  0.00    -0.002 A 
ATOM      7  C   UNL     1       2.042   6.237  -3.724  0.00  0.00    +0.029 A 
ATOM      8  C   UNL     1       3.344   6.690  -3.864  0.00  0.00    +0.140 A 
ATOM      9  C   UNL     1       3.697   7.282  -5.069  0.00  0.00    +0.030 A 
ATOM     10  F   UNL     1       4.301   6.446  -2.943  0.00  0.00    -0.204 F 
ATOM     11  C   UNL     1       2.963   7.045  -6.206  0.00  0.00    +0.002 A 
ATOM     12  C   UNL     1      -0.177   5.667  -4.970  0.00  0.00    -0.015 C 
ENDROOT
BRANCH   4  13
ATOM     13  C   UNL     1       2.194   5.879  -8.854  0.00  0.00    +0.000 A 
ATOM     14  C   UNL     1       2.866   4.682  -8.728  0.00  0.00    +0.001 A 
ATOM     15  C   UNL     1       4.128   4.605  -9.273  0.00  0.00    +0.009 A 
ATOM     16  C   UNL     1       4.840   5.748  -9.577  0.00  0.00    +0.056 A 
ATOM     17  C   UNL     1       4.108   6.888  -9.871  0.00  0.00    +0.009 A 
ATOM     18  C   UNL     1       2.798   6.980  -9.429  0.00  0.00    +0.001 A 
BRANCH  16  19
ATOM     19  S   UNL     1       6.409   5.596 -10.470  0.00  0.00    +0.066 S 
ATOM     20  O   UNL     1       7.401   5.613  -9.271  0.00  0.00    -0.251 OA
ATOM     21  C   UNL     1       6.610   7.322 -11.074  0.00  0.00    +0.111 C 
ENDBRANCH  16  19
ENDBRANCH   4  13
BRANCH  12  22
ATOM     22  C   UNL     1      -1.149   5.594  -3.860  0.00  0.00    +0.140 C 
BRANCH  22  23
ATOM     23  C   UNL     1      -1.558   6.941  -3.401  0.00  0.00    +0.369 C 
ATOM     24  O   UNL     1      -1.732   7.982  -4.310  0.00  0.00    -0.245 OA
ATOM     25  O   UNL     1      -2.260   7.016  -2.347  0.00  0.00    -0.245 OA
ENDBRANCH  22  23
ENDBRANCH  12  22
TORSDOF 4
ENDMDL
MODEL 4
REMARK VINA RESULT:      -8.2      2.828      6.899
REMARK  Name = 
REMARK  4 active torsions:
REMARK  status: ('A' for Active; 'I' for Inactive)
REMARK    1  A    between atoms: C_3  and  C_4
REMARK    2  A    between atoms: C_4  and  C_5
REMARK    3  A    between atoms: C_16  and  C_17
REMARK    4  A    between atoms: C_20  and  S_21
REMARK                            x       y       z     vdW  Elec       q    Type
REMARK                         _______ _______ _______ _____ _____    ______ ____
ROOT
ATOM      1  C   UNL     1       3.840   5.395  -3.436  0.00  0.00    +0.031 C 
ATOM      2  C   UNL     1       2.648   5.586  -3.939  0.00  0.00    -0.025 C 
ATOM      3  C   UNL     1       2.221   5.353  -5.325  0.00  0.00    -0.004 C 
ATOM      4  C   UNL     1       2.919   4.845  -6.320  0.00  0.00    -0.000 C 
ATOM      5  C   UNL     1       0.783   5.624  -5.437  0.00  0.00    -0.000 A 
ATOM      6  C   UNL     1       0.449   6.177  -4.207  0.00  0.00    -0.002 A 
ATOM      7  C   UNL     1      -0.807   6.755  -4.089  0.00  0.00    +0.029 A 
ATOM      8  C   UNL     1      -1.734   6.668  -5.115  0.00  0.00    +0.140 A 
ATOM      9  C   UNL     1      -1.466   5.789  -6.156  0.00  0.00    +0.030 A 
ATOM     10  F   UNL     1      -2.794   7.499  -5.210  0.00  0.00    -0.204 F 
ATOM     11  C   UNL     1      -0.182   5.364  -6.399  0.00  0.00    +0.002 A 
ATOM     12  C   UNL     1       1.618   6.165  -3.333  0.00  0.00    -0.015 C 
ENDROOT
BRANCH   4  13
ATOM     13  C   UNL     1       2.513   5.178  -7.688  0.00  0.00    +0.000 A 
ATOM     14  C   UNL     1       2.107   4.203  -8.574  0.00  0.00    +0.001 A 
ATOM     15  C   UNL     1       1.740   4.610  -9.837  0.00  0.00    +0.009 A 
ATOM     16  C   UNL     1       2.120   5.845 -10.322  0.00  0.00    +0.056 A 
ATOM     17  C   UNL     1       2.347   6.847  -9.391  0.00  0.00    +0.009 A 
ATOM     18  C   UNL     1       2.626   6.497  -8.080  0.00  0.00    +0.001 A 
BRANCH  16  19
ATOM     19  S   UNL     1       1.450   6.412 -11.907  0.00  0.00    +0.066 S 
ATOM     20  O   UNL     1       0.202   7.194 -11.405  0.00  0.00    -0.251 OA
ATOM     21  C   UNL     1       0.643   4.865 -12.492  0.00  0.00    +0.111 C 
ENDBRANCH  16  19
ENDBRANCH   4  13
BRANCH  12  22
ATOM     22  C   UNL     1       1.549   6.376  -1.872  0.00  0.00    +0.140 C 
BRANCH  22  23
ATOM     23  C   UNL     1       1.081   5.162  -1.164  0.00  0.00    +0.369 C 
ATOM     24  O   UNL     1      -0.088   4.514  -1.557  0.00  0.00    -0.245 OA
ATOM     25  O   UNL     1       1.956   4.422  -0.621  0.00  0.00    -0.245 OA
ENDBRANCH  22  23
ENDBRANCH  12  22
TORSDOF 4
ENDMDL
MODEL 5
REMARK VINA RESULT:      -8.1      2.960      4.581
REMARK  Name = 
REMARK  4 active torsions:
REMARK  status: ('A' for Active; 'I' for Inactive)
REMARK    1  A    between atoms: C_3  and  C_4
REMARK    2  A    between atoms: C_4  and  C_5
REMARK    3  A    between atoms: C_16  and  C_17
REMARK    4  A    between atoms: C_20  and  S_21
REMARK                            x       y       z     vdW  Elec       q    Type
REMARK                         _______ _______ _______ _____ _____    ______ ____
ROOT
ATOM      1  C   UNL     1      -0.079   5.635 -10.969  0.00  0.00    +0.031 C 
ATOM      2  C   UNL     1       1.205   5.730 -10.738  0.00  0.00    -0.025 C 
ATOM      3  C   UNL     1       1.900   5.472  -9.470  0.00  0.00    -0.004 C 
ATOM      4  C   UNL     1       1.394   5.034  -8.336  0.00  0.00    -0.000 C 
ATOM      5  C   UNL     1       3.346   5.623  -9.675  0.00  0.00    -0.000 A 
ATOM      6  C   UNL     1       3.450   6.135 -10.962  0.00  0.00    -0.002 A 
ATOM      7  C   UNL     1       4.693   6.604 -11.361  0.00  0.00    +0.029 A 
ATOM      8  C   UNL     1       5.809   6.447 -10.554  0.00  0.00    +0.140 A 
ATOM      9  C   UNL     1       5.702   5.604  -9.458  0.00  0.00    +0.030 A 
ATOM     10  F   UNL     1       6.929   7.187 -10.711  0.00  0.00    -0.204 F 
ATOM     11  C   UNL     1       4.470   5.289  -8.935  0.00  0.00    +0.002 A 
ATOM     12  C   UNL     1       2.123   6.215 -11.565  0.00  0.00    -0.015 C 
ENDROOT
BRANCH   4  13
ATOM     13  C   UNL     1       2.110   5.342  -7.095  0.00  0.00    +0.000 A 
ATOM     14  C   UNL     1       2.533   4.344  -6.243  0.00  0.00    +0.001 A 
ATOM     15  C   UNL     1       3.203   4.729  -5.102  0.00  0.00    +0.009 A 
ATOM     16  C   UNL     1       3.117   6.025  -4.634  0.00  0.00    +0.056 A 
ATOM     17  C   UNL     1       2.863   7.018  -5.566  0.00  0.00    +0.009 A 
ATOM     18  C   UNL     1       2.278   6.674  -6.774  0.00  0.00    +0.001 A 
BRANCH  16  19
ATOM     19  S   UNL     1       4.168   6.529  -3.246  0.00  0.00    +0.066 S 
ATOM     20  O   UNL     1       3.201   7.510  -2.522  0.00  0.00    -0.251 OA
ATOM     21  C   UNL     1       5.271   7.734  -4.093  0.00  0.00    +0.111 C 
ENDBRANCH  16  19
ENDBRANCH   4  13
BRANCH  12  22
ATOM     22  C   UNL     1       1.892   6.407 -13.012  0.00  0.00    +0.140 C 
BRANCH  22  23
ATOM     23  C   UNL     1       2.163   5.169 -13.779  0.00  0.00    +0.369 C 
ATOM     24  O   UNL     1       1.123   4.321 -14.154  0.00  0.00    -0.245 OA
ATOM     25  O   UNL     1       3.174   5.159 -14.543  0.00  0.00    -0.245 OA
ENDBRANCH  22  23
ENDBRANCH  12  22
TORSDOF 4
ENDMDL
MODEL 6
REMARK VINA RESULT:      -8.1      3.754      4.959
REMARK  Name = 
REMARK  4 active torsions:
REMARK  status: ('A' for Active; 'I' for Inactive)
REMARK    1  A    between atoms: C_3  and  C_4
REMARK    2  A    between atoms: C_4  and  C_5
REMARK    3  A    between atoms: C_16  and  C_17
REMARK    4  A    between atoms: C_20  and  S_21
REMARK                            x       y       z     vdW  Elec       q    Type
REMARK                         _______ _______ _______ _____ _____    ______ ____
ROOT
ATOM      1  C   UNL     1       6.312   5.433  -8.903  0.00  0.00    +0.031 C 
ATOM      2  C   UNL     1       5.117   5.656  -9.386  0.00  0.00    -0.025 C 
ATOM      3  C   UNL     1       3.901   5.982  -8.632  0.00  0.00    -0.004 C 
ATOM      4  C   UNL     1       3.772   6.183  -7.336  0.00  0.00    -0.000 C 
ATOM      5  C   UNL     1       2.801   6.228  -9.574  0.00  0.00    -0.000 A 
ATOM      6  C   UNL     1       3.330   5.864 -10.806  0.00  0.00    -0.002 A 
ATOM      7  C   UNL     1       2.447   5.766 -11.873  0.00  0.00    +0.029 A 
ATOM      8  C   UNL     1       1.119   6.141 -11.739  0.00  0.00    +0.140 A 
ATOM      9  C   UNL     1       0.756   6.838 -10.595  0.00  0.00    +0.030 A 
ATOM     10  F   UNL     1       0.158   5.730 -12.595  0.00  0.00    -0.204 F 
ATOM     11  C   UNL     1       1.535   6.780  -9.464  0.00  0.00    +0.002 A 
ATOM     12  C   UNL     1       4.732   5.492 -10.647  0.00  0.00    -0.015 C 
ENDROOT
BRANCH   4  13
ATOM     13  C   UNL     1       2.454   5.973  -6.732  0.00  0.00    +0.000 A 
ATOM     14  C   UNL     1       1.893   4.716  -6.650  0.00  0.00    +0.001 A 
ATOM     15  C   UNL     1       0.652   4.615  -6.061  0.00  0.00    +0.009 A 
ATOM     16  C   UNL     1      -0.156   5.725  -5.918  0.00  0.00    +0.056 A 
ATOM     17  C   UNL     1       0.473   6.957  -5.827  0.00  0.00    +0.009 A 
ATOM     18  C   UNL     1       1.761   7.093  -6.317  0.00  0.00    +0.001 A 
BRANCH  16  19
ATOM     19  S   UNL     1      -1.690   5.577  -4.965  0.00  0.00    +0.066 S 
ATOM     20  O   UNL     1      -2.691   5.266  -6.116  0.00  0.00    -0.251 OA
ATOM     21  C   UNL     1      -2.072   7.355  -4.683  0.00  0.00    +0.111 C 
ENDBRANCH  16  19
ENDBRANCH   4  13
BRANCH  12  22
ATOM     22  C   UNL     1       5.678   5.363 -11.775  0.00  0.00    +0.140 C 
BRANCH  22  23
ATOM     23  C   UNL     1       5.991   6.677 -12.381  0.00  0.00    +0.369 C 
ATOM     24  O   UNL     1       6.867   7.561 -11.755  0.00  0.00    -0.245 OA
ATOM     25  O   UNL     1       5.934   6.772 -13.644  0.00  0.00    -0.245 OA
ENDBRANCH  22  23
ENDBRANCH  12  22
TORSDOF 4
ENDMDL
MODEL 7
REMARK VINA RESULT:      -7.9      2.695      6.995
REMARK  Name = 
REMARK  4 active torsions:
REMARK  status: ('A' for Active; 'I' for Inactive)
REMARK    1  A    between atoms: C_3  and  C_4
REMARK    2  A    between atoms: C_4  and  C_5
REMARK    3  A    between atoms: C_16  and  C_17
REMARK    4  A    between atoms: C_20  and  S_21
REMARK                            x       y       z     vdW  Elec       q    Type
REMARK                         _______ _______ _______ _____ _____    ______ ____
ROOT
ATOM      1  C   UNL     1       5.895   7.313  -3.881  0.00  0.00    +0.031 C 
ATOM      2  C   UNL     1       4.655   6.899  -3.907  0.00  0.00    -0.025 C 
ATOM      3  C   UNL     1       3.924   6.355  -5.058  0.00  0.00    -0.004 C 
ATOM      4  C   UNL     1       4.376   6.110  -6.271  0.00  0.00    -0.000 C 
ATOM      5  C   UNL     1       2.583   5.943  -4.625  0.00  0.00    -0.000 A 
ATOM      6  C   UNL     1       2.492   6.416  -3.322  0.00  0.00    -0.002 A 
ATOM      7  C   UNL     1       1.243   6.382  -2.719  0.00  0.00    +0.029 A 
ATOM      8  C   UNL     1       0.162   5.783  -3.346  0.00  0.00    +0.140 A 
ATOM      9  C   UNL     1       0.413   5.012  -4.472  0.00  0.00    +0.030 A 
ATOM     10  F   UNL     1      -1.117   6.040  -2.994  0.00  0.00    -0.204 F 
ATOM     11  C   UNL     1       1.573   5.180  -5.191  0.00  0.00    +0.002 A 
ATOM     12  C   UNL     1       3.762   7.019  -2.931  0.00  0.00    -0.015 C 
ENDROOT
BRANCH   4  13
ATOM     13  C   UNL     1       3.412   6.080  -7.374  0.00  0.00    +0.000 A 
ATOM     14  C   UNL     1       2.680   7.195  -7.719  0.00  0.00    +0.001 A 
ATOM     15  C   UNL     1       1.801   7.074  -8.773  0.00  0.00    +0.009 A 
ATOM     16  C   UNL     1       1.382   5.832  -9.206  0.00  0.00    +0.056 A 
ATOM     17  C   UNL     1       2.241   4.765  -8.991  0.00  0.00    +0.009 A 
ATOM     18  C   UNL     1       3.210   4.869  -8.006  0.00  0.00    +0.001 A 
BRANCH  16  19
ATOM     19  S   UNL     1       0.384   5.718 -10.714  0.00  0.00    +0.066 S 
ATOM     20  O   UNL     1       0.250   4.171 -10.829  0.00  0.00    -0.251 OA
ATOM     21  C   UNL     1       1.679   6.020 -11.986  0.00  0.00    +0.111 C 
ENDBRANCH  16  19
ENDBRANCH   4  13
BRANCH  12  22
ATOM     22  C   UNL     1       4.124   7.330  -1.532  0.00  0.00    +0.140 C 
BRANCH  22  23
ATOM     23  C   UNL     1       4.108   6.119  -0.680  0.00  0.00    +0.369 C 
ATOM     24  O   UNL     1       4.395   4.866  -1.215  0.00  0.00    -0.245 OA
ATOM     25  O   UNL     1       4.383   6.261   0.550  0.00  0.00    -0.245 OA
ENDBRANCH  22  23
ENDBRANCH  12  22
TORSDOF 4
ENDMDL
MODEL 8
REMARK VINA RESULT:      -7.7      3.626      7.311
REMARK  Name = 
REMARK  4 active torsions:
REMARK  status: ('A' for Active; 'I' for Inactive)
REMARK    1  A    between atoms: C_3  and  C_4
REMARK    2  A    between atoms: C_4  and  C_5
REMARK    3  A    between atoms: C_16  and  C_17
REMARK    4  A    between atoms: C_20  and  S_21
REMARK                            x       y       z     vdW  Elec       q    Type
REMARK                         _______ _______ _______ _____ _____    ______ ____
ROOT
ATOM      1  C   UNL     1      -2.562   6.849  -3.429  0.00  0.00    +0.031 C 
ATOM      2  C   UNL     1      -1.330   6.503  -3.161  0.00  0.00    -0.025 C 
ATOM      3  C   UNL     1      -0.196   6.464  -4.092  0.00  0.00    -0.004 C 
ATOM      4  C   UNL     1      -0.165   6.828  -5.358  0.00  0.00    -0.000 C 
ATOM      5  C   UNL     1       1.019   6.093  -3.356  0.00  0.00    -0.000 A 
ATOM      6  C   UNL     1       0.552   5.747  -2.094  0.00  0.00    -0.002 A 
ATOM      7  C   UNL     1       1.447   5.126  -1.233  0.00  0.00    +0.029 A 
ATOM      8  C   UNL     1       2.782   4.977  -1.575  0.00  0.00    +0.140 A 
ATOM      9  C   UNL     1       3.248   5.673  -2.682  0.00  0.00    +0.030 A 
ATOM     10  F   UNL     1       3.591   4.081  -0.970  0.00  0.00    -0.204 F 
ATOM     11  C   UNL     1       2.375   6.124  -3.643  0.00  0.00    +0.002 A 
ATOM     12  C   UNL     1      -0.887   5.980  -2.023  0.00  0.00    -0.015 C 
ENDROOT
BRANCH   4  13
ATOM     13  C   UNL     1       0.860   6.238  -6.222  0.00  0.00    +0.000 A 
ATOM     14  C   UNL     1       0.927   4.877  -6.431  0.00  0.00    +0.001 A 
ATOM     15  C   UNL     1       1.922   4.413  -7.263  0.00  0.00    +0.009 A 
ATOM     16  C   UNL     1       3.021   5.195  -7.558  0.00  0.00    +0.056 A 
ATOM     17  C   UNL     1       2.850   6.569  -7.504  0.00  0.00    +0.009 A 
ATOM     18  C   UNL     1       1.805   7.090  -6.759  0.00  0.00    +0.001 A 
BRANCH  16  19
ATOM     19  S   UNL     1       4.200   4.618  -8.807  0.00  0.00    +0.066 S 
ATOM     20  O   UNL     1       5.434   5.489  -8.431  0.00  0.00    -0.251 OA
ATOM     21  C   UNL     1       3.594   5.542 -10.278  0.00  0.00    +0.111 C 
ENDBRANCH  16  19
ENDBRANCH   4  13
BRANCH  12  22
ATOM     22  C   UNL     1      -1.647   6.026  -0.757  0.00  0.00    +0.140 C 
BRANCH  22  23
ATOM     23  C   UNL     1      -1.191   7.131   0.116  0.00  0.00    +0.369 C 
ATOM     24  O   UNL     1      -1.461   8.458  -0.212  0.00  0.00    -0.245 OA
ATOM     25  O   UNL     1      -1.072   6.892   1.356  0.00  0.00    -0.245 OA
ENDBRANCH  22  23
ENDBRANCH  12  22
TORSDOF 4
ENDMDL
MODEL 9
REMARK VINA RESULT:      -7.6      3.483      5.070
REMARK  Name = 
REMARK  4 active torsions:
REMARK  status: ('A' for Active; 'I' for Inactive)
REMARK    1  A    between atoms: C_3  and  C_4
REMARK    2  A    between atoms: C_4  and  C_5
REMARK    3  A    between atoms: C_16  and  C_17
REMARK    4  A    between atoms: C_20  and  S_21
REMARK                            x       y       z     vdW  Elec       q    Type
REMARK                         _______ _______ _______ _____ _____    ______ ____
ROOT
ATOM      1  C   UNL     1      -0.740   5.376  -7.683  0.00  0.00    +0.031 C 
ATOM      2  C   UNL     1       0.149   5.728  -6.791  0.00  0.00    -0.025 C 
ATOM      3  C   UNL     1      -0.026   5.774  -5.334  0.00  0.00    -0.004 C 
ATOM      4  C   UNL     1      -1.075   5.411  -4.625  0.00  0.00    -0.000 C 
ATOM      5  C   UNL     1       1.248   6.149  -4.708  0.00  0.00    -0.000 A 
ATOM      6  C   UNL     1       2.060   6.491  -5.782  0.00  0.00    -0.002 A 
ATOM      7  C   UNL     1       3.266   7.115  -5.494  0.00  0.00    +0.029 A 
ATOM      8  C   UNL     1       3.696   7.271  -4.186  0.00  0.00    +0.140 A 
ATOM      9  C   UNL     1       3.015   6.579  -3.194  0.00  0.00    +0.030 A 
ATOM     10  F   UNL     1       4.641   8.170  -3.834  0.00  0.00    -0.204 F 
ATOM     11  C   UNL     1       1.736   6.125  -3.410  0.00  0.00    +0.002 A 
ATOM     12  C   UNL     1       1.346   6.251  -7.032  0.00  0.00    -0.015 C 
ENDROOT
BRANCH   4  13
ATOM     13  C   UNL     1      -1.253   6.008  -3.299  0.00  0.00    +0.000 A 
ATOM     14  C   UNL     1      -1.009   5.288  -2.149  0.00  0.00    +0.001 A 
ATOM     15  C   UNL     1      -1.199   5.934  -0.947  0.00  0.00    +0.009 A 
ATOM     16  C   UNL     1      -1.956   7.086  -0.874  0.00  0.00    +0.056 A 
ATOM     17  C   UNL     1      -2.024   7.871  -2.015  0.00  0.00    +0.009 A 
ATOM     18  C   UNL     1      -1.748   7.296  -3.245  0.00  0.00    +0.001 A 
BRANCH  16  19
ATOM     19  S   UNL     1      -2.013   8.002   0.689  0.00  0.00    +0.066 S 
ATOM     20  O   UNL     1      -0.986   9.129   0.375  0.00  0.00    -0.251 OA
ATOM     21  C   UNL     1      -0.976   6.910   1.745  0.00  0.00    +0.111 C 
ENDBRANCH  16  19
ENDBRANCH   4  13
BRANCH  12  22
ATOM     22  C   UNL     1       2.004   6.200  -8.354  0.00  0.00    +0.140 C 
BRANCH  22  23
ATOM     23  C   UNL     1       2.951   5.066  -8.451  0.00  0.00    +0.369 C 
ATOM     24  O   UNL     1       2.499   3.781  -8.745  0.00  0.00    -0.245 OA
ATOM     25  O   UNL     1       4.139   5.320  -8.814  0.00  0.00    -0.245 OA
ENDBRANCH  22  23
ENDBRANCH  12  22
TORSDOF 4
ENDMDL
