MODEL 1
REMARK VINA RESULT:      -6.9      0.000      0.000
REMARK  Name = 
REMARK  11 active torsions:
REMARK  status: ('A' for Active; 'I' for Inactive)
REMARK    1  A    between atoms: O_2  and  C_3
REMARK    2  A    between atoms: C_3  and  C_4
REMARK    3  A    between atoms: N_6  and  C_7
REMARK    4  A    between atoms: C_10  and  C_11
REMARK    5  A    between atoms: N_13  and  C_14
REMARK    6  A    between atoms: C_14  and  C_15
REMARK    7  A    between atoms: C_15  and  C_17
REMARK    8  A    between atoms: C_21  and  C_22
REMARK    9  A    between atoms: N_24  and  C_26
REMARK   10  A    between atoms: C_26  and  C_27
REMARK   11  A    between atoms: C_27  and  C_29
REMARK                            x       y       z     vdW  Elec       q    Type
REMARK                         _______ _______ _______ _____ _____    ______ ____
ROOT
ATOM      1  C   UNL     1       1.673   6.574  -8.874  0.00  0.00    +0.084 A 
ATOM      2  C   UNL     1       1.212   6.315  -7.590  0.00  0.00    +0.051 A 
ATOM      3  I   UNL     1      -0.781   5.628  -7.367  0.00  0.00    -0.041 I 
ATOM      4  C   UNL     1       2.137   6.210  -6.554  0.00  0.00    +0.066 A 
ATOM      5  C   UNL     1       3.479   6.106  -6.904  0.00  0.00    +0.040 A 
ATOM      6  I   UNL     1       4.920   5.742  -5.398  0.00  0.00    -0.042 I 
ATOM      7  C   UNL     1       3.903   6.098  -8.227  0.00  0.00    +0.067 A 
ATOM      8  C   UNL     1       3.003   6.394  -9.229  0.00  0.00    +0.051 A 
ATOM      9  I   UNL     1       3.438   6.108 -11.278  0.00  0.00    -0.041 I 
ENDROOT
BRANCH   4  10
ATOM     10  C   UNL     1       1.654   5.557  -5.345  0.00  0.00    +0.250 C 
ATOM     11  N   UNL     1       1.227   6.256  -4.177  0.00  0.00    -0.272 N 
ATOM     12  C   UNL     1      -0.081   6.903  -4.267  0.00  0.00    +0.115 C 
ATOM     13  O   UNL     1       1.283   4.347  -5.434  0.00  0.00    -0.270 OA
BRANCH  11  14
ATOM     14  C   UNL     1       1.628   5.608  -2.926  0.00  0.00    +0.129 C 
BRANCH  14  15
ATOM     15  C   UNL     1       0.387   6.022  -1.873  0.00  0.00    +0.204 C 
ATOM     16  O   UNL     1       0.086   4.531  -1.584  0.00  0.00    -0.218 OA
BRANCH  15  17
ATOM     17  C   UNL     1       1.449   6.095  -0.570  0.00  0.00    +0.217 C 
ATOM     18  O   UNL     1       2.027   4.840  -0.704  0.00  0.00    -0.218 OA
ENDBRANCH  15  17
ENDBRANCH  14  15
ENDBRANCH  11  14
ENDBRANCH   4  10
BRANCH   7  19
ATOM     19  C   UNL     1       5.129   5.397  -8.645  0.00  0.00    +0.266 C 
ATOM     20  N   UNL     1       6.190   6.024  -9.302  0.00  0.00    -0.199 NA
ATOM     21  O   UNL     1       5.376   4.216  -8.250  0.00  0.00    -0.268 OA
BRANCH  20  22
ATOM     22  C   UNL     1       7.535   5.677  -9.432  0.00  0.00    +0.151 C 
BRANCH  22  23
ATOM     23  C   UNL     1       8.087   6.332 -10.881  0.00  0.00    +0.206 C 
ATOM     24  O   UNL     1       7.046   7.481 -10.887  0.00  0.00    -0.218 OA
BRANCH  23  25
ATOM     25  C   UNL     1       7.077   5.321 -11.768  0.00  0.00    +0.217 C 
ATOM     26  O   UNL     1       7.966   4.639 -12.588  0.00  0.00    -0.218 OA
ENDBRANCH  23  25
ENDBRANCH  22  23
ENDBRANCH  20  22
ENDBRANCH   7  19
BRANCH   1  28
ATOM     27  C   UNL     1       0.138   6.260 -10.739  0.00  0.00    +0.276 C 
ATOM     28  N   UNL     1       0.749   7.153  -9.801  0.00  0.00    -0.176 NA
ATOM     29  O   UNL     1       0.269   5.021 -10.619  0.00  0.00    -0.270 OA
BRANCH  27  30
ATOM     30  C   UNL     1      -0.962   6.824 -11.582  0.00  0.00    +0.229 C 
BRANCH  30  32
ATOM     31  C   UNL     1       0.292   7.567 -13.264  0.00  0.00    +0.175 C 
ATOM     32  O   UNL     1      -0.453   7.960 -12.232  0.00  0.00    -0.342 OA
ENDBRANCH  30  32
ENDBRANCH  27  30
ENDBRANCH   1  28
TORSDOF 11
ENDMDL
MODEL 2
REMARK VINA RESULT:      -6.6      3.137      5.383
REMARK  Name = 
REMARK  11 active torsions:
REMARK  status: ('A' for Active; 'I' for Inactive)
REMARK    1  A    between atoms: O_2  and  C_3
REMARK    2  A    between atoms: C_3  and  C_4
REMARK    3  A    between atoms: N_6  and  C_7
REMARK    4  A    between atoms: C_10  and  C_11
REMARK    5  A    between atoms: N_13  and  C_14
REMARK    6  A    between atoms: C_14  and  C_15
REMARK    7  A    between atoms: C_15  and  C_17
REMARK    8  A    between atoms: C_21  and  C_22
REMARK    9  A    between atoms: N_24  and  C_26
REMARK   10  A    between atoms: C_26  and  C_27
REMARK   11  A    between atoms: C_27  and  C_29
REMARK                            x       y       z     vdW  Elec       q    Type
REMARK                         _______ _______ _______ _____ _____    ______ ____
ROOT
ATOM      1  C   UNL     1       0.846   5.752  -3.963  0.00  0.00    +0.084 A 
ATOM      2  C   UNL     1       1.334   6.174  -2.733  0.00  0.00    +0.051 A 
ATOM      3  I   UNL     1       0.397   5.431  -0.983  0.00  0.00    -0.041 I 
ATOM      4  C   UNL     1       2.579   6.796  -2.683  0.00  0.00    +0.066 A 
ATOM      5  C   UNL     1       3.376   6.721  -3.820  0.00  0.00    +0.040 A 
ATOM      6  I   UNL     1       5.356   7.465  -3.751  0.00  0.00    -0.042 I 
ATOM      7  C   UNL     1       2.972   6.051  -4.968  0.00  0.00    +0.067 A 
ATOM      8  C   UNL     1       1.670   5.610  -5.072  0.00  0.00    +0.051 A 
ATOM      9  I   UNL     1       1.021   4.315  -6.612  0.00  0.00    -0.041 I 
ENDROOT
BRANCH   4  10
ATOM     10  C   UNL     1       3.202   6.851  -1.368  0.00  0.00    +0.250 C 
ATOM     11  N   UNL     1       3.181   7.999  -0.522  0.00  0.00    -0.272 N 
ATOM     12  C   UNL     1       1.910   8.275   0.145  0.00  0.00    +0.115 C 
ATOM     13  O   UNL     1       3.486   5.750  -0.802  0.00  0.00    -0.270 OA
BRANCH  11  14
ATOM     14  C   UNL     1       4.437   8.219   0.199  0.00  0.00    +0.129 C 
BRANCH  14  15
ATOM     15  C   UNL     1       3.972   8.107   1.808  0.00  0.00    +0.204 C 
ATOM     16  O   UNL     1       4.822   6.828   2.004  0.00  0.00    -0.218 OA
BRANCH  15  17
ATOM     17  C   UNL     1       5.257   9.076   2.299  0.00  0.00    +0.217 C 
ATOM     18  O   UNL     1       4.884  10.252   1.665  0.00  0.00    -0.218 OA
ENDBRANCH  15  17
ENDBRANCH  14  15
ENDBRANCH  11  14
ENDBRANCH   4  10
BRANCH   7  19
ATOM     19  C   UNL     1       3.941   5.431  -5.887  0.00  0.00    +0.266 C 
ATOM     20  N   UNL     1       4.129   5.849  -7.207  0.00  0.00    -0.199 NA
ATOM     21  O   UNL     1       4.808   4.605  -5.466  0.00  0.00    -0.268 OA
BRANCH  20  22
ATOM     22  C   UNL     1       5.200   5.687  -8.086  0.00  0.00    +0.151 C 
BRANCH  22  23
ATOM     23  C   UNL     1       4.564   5.229  -9.576  0.00  0.00    +0.206 C 
ATOM     24  O   UNL     1       5.860   5.561 -10.357  0.00  0.00    -0.218 OA
BRANCH  23  25
ATOM     25  C   UNL     1       3.936   6.769  -9.826  0.00  0.00    +0.217 C 
ATOM     26  O   UNL     1       4.896   7.367 -10.631  0.00  0.00    -0.218 OA
ENDBRANCH  23  25
ENDBRANCH  22  23
ENDBRANCH  20  22
ENDBRANCH   7  19
BRANCH   1  28
ATOM     27  C   UNL     1      -1.331   6.751  -4.405  0.00  0.00    +0.276 C 
ATOM     28  N   UNL     1      -0.569   5.580  -4.087  0.00  0.00    -0.176 NA
ATOM     29  O   UNL     1      -0.759   7.812  -4.738  0.00  0.00    -0.270 OA
BRANCH  27  30
ATOM     30  C   UNL     1      -2.778   6.542  -4.718  0.00  0.00    +0.229 C 
BRANCH  30  32
ATOM     31  C   UNL     1      -3.592   6.481  -2.648  0.00  0.00    +0.175 C 
ATOM     32  O   UNL     1      -3.314   5.726  -3.709  0.00  0.00    -0.342 OA
ENDBRANCH  30  32
ENDBRANCH  27  30
ENDBRANCH   1  28
TORSDOF 11
ENDMDL
MODEL 3
REMARK VINA RESULT:      -6.5      2.884      9.406
REMARK  Name = 
REMARK  11 active torsions:
REMARK  status: ('A' for Active; 'I' for Inactive)
REMARK    1  A    between atoms: O_2  and  C_3
REMARK    2  A    between atoms: C_3  and  C_4
REMARK    3  A    between atoms: N_6  and  C_7
REMARK    4  A    between atoms: C_10  and  C_11
REMARK    5  A    between atoms: N_13  and  C_14
REMARK    6  A    between atoms: C_14  and  C_15
REMARK    7  A    between atoms: C_15  and  C_17
REMARK    8  A    between atoms: C_21  and  C_22
REMARK    9  A    between atoms: N_24  and  C_26
REMARK   10  A    between atoms: C_26  and  C_27
REMARK   11  A    between atoms: C_27  and  C_29
REMARK                            x       y       z     vdW  Elec       q    Type
REMARK                         _______ _______ _______ _____ _____    ______ ____
ROOT
ATOM      1  C   UNL     1       4.020   5.738 -11.106  0.00  0.00    +0.084 A 
ATOM      2  C   UNL     1       3.542   5.949 -12.393  0.00  0.00    +0.051 A 
ATOM      3  I   UNL     1       4.563   5.017 -13.999  0.00  0.00    -0.041 I 
ATOM      4  C   UNL     1       2.267   6.484 -12.555  0.00  0.00    +0.066 A 
ATOM      5  C   UNL     1       1.445   6.528 -11.434  0.00  0.00    +0.040 A 
ATOM      6  I   UNL     1      -0.570   7.137 -11.645  0.00  0.00    -0.042 I 
ATOM      7  C   UNL     1       1.855   6.056 -10.193  0.00  0.00    +0.067 A 
ATOM      8  C   UNL     1       3.177   5.710 -10.003  0.00  0.00    +0.051 A 
ATOM      9  I   UNL     1       3.855   4.692  -8.279  0.00  0.00    -0.041 I 
ENDROOT
BRANCH   4  10
ATOM     10  C   UNL     1       1.676   6.312 -13.875  0.00  0.00    +0.250 C 
ATOM     11  N   UNL     1       1.704   7.306 -14.897  0.00  0.00    -0.272 N 
ATOM     12  C   UNL     1       2.988   7.489 -15.571  0.00  0.00    +0.115 C 
ATOM     13  O   UNL     1       1.419   5.129 -14.258  0.00  0.00    -0.270 OA
BRANCH  11  14
ATOM     14  C   UNL     1       0.464   7.384 -15.673  0.00  0.00    +0.129 C 
BRANCH  14  15
ATOM     15  C   UNL     1       0.996   7.889 -17.184  0.00  0.00    +0.204 C 
ATOM     16  O   UNL     1       0.108   6.835 -17.889  0.00  0.00    -0.218 OA
BRANCH  15  17
ATOM     17  C   UNL     1      -0.230   9.038 -17.285  0.00  0.00    +0.217 C 
ATOM     18  O   UNL     1       0.306   9.989 -16.429  0.00  0.00    -0.218 OA
ENDBRANCH  15  17
ENDBRANCH  14  15
ENDBRANCH  11  14
ENDBRANCH   4  10
BRANCH   7  19
ATOM     19  C   UNL     1       0.899   5.518  -9.211  0.00  0.00    +0.266 C 
ATOM     20  N   UNL     1       0.613   6.140  -7.993  0.00  0.00    -0.199 NA
ATOM     21  O   UNL     1       0.125   4.557  -9.507  0.00  0.00    -0.268 OA
BRANCH  20  22
ATOM     22  C   UNL     1      -0.481   6.037  -7.134  0.00  0.00    +0.151 C 
BRANCH  22  23
ATOM     23  C   UNL     1       0.106   6.108  -5.558  0.00  0.00    +0.206 C 
ATOM     24  O   UNL     1       0.578   4.631  -5.550  0.00  0.00    -0.218 OA
BRANCH  23  25
ATOM     25  C   UNL     1      -1.402   5.701  -4.935  0.00  0.00    +0.217 C 
ATOM     26  O   UNL     1      -2.194   5.620  -6.073  0.00  0.00    -0.218 OA
ENDBRANCH  23  25
ENDBRANCH  22  23
ENDBRANCH  20  22
ENDBRANCH   7  19
BRANCH   1  28
ATOM     27  C   UNL     1       6.151   6.911 -10.973  0.00  0.00    +0.276 C 
ATOM     28  N   UNL     1       5.438   5.669 -10.933  0.00  0.00    -0.176 NA
ATOM     29  O   UNL     1       5.533   8.000 -10.970  0.00  0.00    -0.270 OA
BRANCH  27  30
ATOM     30  C   UNL     1       7.600   6.864 -10.608  0.00  0.00    +0.229 C 
BRANCH  30  32
ATOM     31  C   UNL     1       8.821   5.808 -12.140  0.00  0.00    +0.175 C 
ATOM     32  O   UNL     1       8.101   5.624 -11.035  0.00  0.00    -0.342 OA
ENDBRANCH  30  32
ENDBRANCH  27  30
ENDBRANCH   1  28
TORSDOF 11
ENDMDL
MODEL 4
REMARK VINA RESULT:      -6.2      3.330      8.720
REMARK  Name = 
REMARK  11 active torsions:
REMARK  status: ('A' for Active; 'I' for Inactive)
REMARK    1  A    between atoms: O_2  and  C_3
REMARK    2  A    between atoms: C_3  and  C_4
REMARK    3  A    between atoms: N_6  and  C_7
REMARK    4  A    between atoms: C_10  and  C_11
REMARK    5  A    between atoms: N_13  and  C_14
REMARK    6  A    between atoms: C_14  and  C_15
REMARK    7  A    between atoms: C_15  and  C_17
REMARK    8  A    between atoms: C_21  and  C_22
REMARK    9  A    between atoms: N_24  and  C_26
REMARK   10  A    between atoms: C_26  and  C_27
REMARK   11  A    between atoms: C_27  and  C_29
REMARK                            x       y       z     vdW  Elec       q    Type
REMARK                         _______ _______ _______ _____ _____    ______ ____
ROOT
ATOM      1  C   UNL     1       0.922   5.831  -2.570  0.00  0.00    +0.084 A 
ATOM      2  C   UNL     1       1.295   5.753  -3.906  0.00  0.00    +0.051 A 
ATOM      3  I   UNL     1      -0.219   5.954  -5.376  0.00  0.00    -0.041 I 
ATOM      4  C   UNL     1       2.644   5.864  -4.232  0.00  0.00    +0.066 A 
ATOM      5  C   UNL     1       3.508   6.309  -3.237  0.00  0.00    +0.040 A 
ATOM      6  I   UNL     1       5.533   6.694  -3.715  0.00  0.00    -0.042 I 
ATOM      7  C   UNL     1       3.065   6.642  -1.963  0.00  0.00    +0.067 A 
ATOM      8  C   UNL     1       1.768   6.347  -1.598  0.00  0.00    +0.051 A 
ATOM      9  I   UNL     1       0.886   7.079   0.178  0.00  0.00    -0.041 I 
ENDROOT
BRANCH   4  10
ATOM     10  C   UNL     1       2.930   6.174  -5.626  0.00  0.00    +0.250 C 
ATOM     11  N   UNL     1       3.379   5.214  -6.581  0.00  0.00    -0.272 N 
ATOM     12  C   UNL     1       2.365   4.280  -7.069  0.00  0.00    +0.115 C 
ATOM     13  O   UNL     1       2.453   7.250  -6.102  0.00  0.00    -0.270 OA
BRANCH  11  14
ATOM     14  C   UNL     1       4.385   5.737  -7.509  0.00  0.00    +0.129 C 
BRANCH  14  15
ATOM     15  C   UNL     1       3.668   5.506  -9.010  0.00  0.00    +0.204 C 
ATOM     16  O   UNL     1       3.510   7.033  -9.210  0.00  0.00    -0.218 OA
BRANCH  15  17
ATOM     17  C   UNL     1       5.163   5.526  -9.783  0.00  0.00    +0.217 C 
ATOM     18  O   UNL     1       5.974   5.379  -8.667  0.00  0.00    -0.218 OA
ENDBRANCH  15  17
ENDBRANCH  14  15
ENDBRANCH  11  14
ENDBRANCH   4  10
BRANCH   7  19
ATOM     19  C   UNL     1       3.755   7.649  -1.140  0.00  0.00    +0.266 C 
ATOM     20  N   UNL     1       4.566   7.327  -0.048  0.00  0.00    -0.199 NA
ATOM     21  O   UNL     1       3.814   8.864  -1.501  0.00  0.00    -0.268 OA
BRANCH  20  22
ATOM     22  C   UNL     1       5.578   8.039   0.596  0.00  0.00    +0.151 C 
BRANCH  22  23
ATOM     23  C   UNL     1       5.435   7.738   2.247  0.00  0.00    +0.206 C 
ATOM     24  O   UNL     1       4.108   6.949   2.100  0.00  0.00    -0.218 OA
BRANCH  23  25
ATOM     25  C   UNL     1       4.624   9.192   2.481  0.00  0.00    +0.217 C 
ATOM     26  O   UNL     1       3.342   8.781   2.819  0.00  0.00    -0.218 OA
ENDBRANCH  23  25
ENDBRANCH  22  23
ENDBRANCH  20  22
ENDBRANCH   7  19
BRANCH   1  28
ATOM     27  C   UNL     1      -1.432   6.144  -2.029  0.00  0.00    +0.276 C 
ATOM     28  N   UNL     1      -0.330   5.245  -2.201  0.00  0.00    -0.176 NA
ATOM     29  O   UNL     1      -1.335   7.344  -2.369  0.00  0.00    -0.270 OA
BRANCH  27  30
ATOM     30  C   UNL     1      -2.778   5.523  -1.828  0.00  0.00    +0.229 C 
BRANCH  30  32
ATOM     31  C   UNL     1      -3.551   5.200  -3.890  0.00  0.00    +0.175 C 
ATOM     32  O   UNL     1      -2.968   4.589  -2.860  0.00  0.00    -0.342 OA
ENDBRANCH  30  32
ENDBRANCH  27  30
ENDBRANCH   1  28
TORSDOF 11
ENDMDL
MODEL 5
REMARK VINA RESULT:      -6.2      3.259      7.356
REMARK  Name = 
REMARK  11 active torsions:
REMARK  status: ('A' for Active; 'I' for Inactive)
REMARK    1  A    between atoms: O_2  and  C_3
REMARK    2  A    between atoms: C_3  and  C_4
REMARK    3  A    between atoms: N_6  and  C_7
REMARK    4  A    between atoms: C_10  and  C_11
REMARK    5  A    between atoms: N_13  and  C_14
REMARK    6  A    between atoms: C_14  and  C_15
REMARK    7  A    between atoms: C_15  and  C_17
REMARK    8  A    between atoms: C_21  and  C_22
REMARK    9  A    between atoms: N_24  and  C_26
REMARK   10  A    between atoms: C_26  and  C_27
REMARK   11  A    between atoms: C_27  and  C_29
REMARK                            x       y       z     vdW  Elec       q    Type
REMARK                         _______ _______ _______ _____ _____    ______ ____
ROOT
ATOM      1  C   UNL     1       4.312   5.644 -12.997  0.00  0.00    +0.084 A 
ATOM      2  C   UNL     1       3.956   5.565 -11.657  0.00  0.00    +0.051 A 
ATOM      3  I   UNL     1       5.430   6.030 -10.207  0.00  0.00    -0.041 I 
ATOM      4  C   UNL     1       2.605   5.498 -11.325  0.00  0.00    +0.066 A 
ATOM      5  C   UNL     1       1.685   5.780 -12.330  0.00  0.00    +0.040 A 
ATOM      6  I   UNL     1      -0.372   5.895 -11.852  0.00  0.00    -0.042 I 
ATOM      7  C   UNL     1       2.075   6.125 -13.618  0.00  0.00    +0.067 A 
ATOM      8  C   UNL     1       3.399   6.000 -13.982  0.00  0.00    +0.051 A 
ATOM      9  I   UNL     1       4.167   6.781 -15.790  0.00  0.00    -0.041 I 
ENDROOT
BRANCH   4  10
ATOM     10  C   UNL     1       2.282   5.817  -9.941  0.00  0.00    +0.250 C 
ATOM     11  N   UNL     1       1.824   4.859  -8.988  0.00  0.00    -0.272 N 
ATOM     12  C   UNL     1       2.840   3.945  -8.468  0.00  0.00    +0.115 C 
ATOM     13  O   UNL     1       2.731   6.904  -9.465  0.00  0.00    -0.270 OA
BRANCH  11  14
ATOM     14  C   UNL     1       0.789   5.375  -8.090  0.00  0.00    +0.129 C 
BRANCH  14  15
ATOM     15  C   UNL     1       1.478   5.183  -6.571  0.00  0.00    +0.204 C 
ATOM     16  O   UNL     1       1.528   6.715  -6.358  0.00  0.00    -0.218 OA
BRANCH  15  17
ATOM     17  C   UNL     1      -0.035   5.097  -5.840  0.00  0.00    +0.217 C 
ATOM     18  O   UNL     1      -0.818   5.365  -6.953  0.00  0.00    -0.218 OA
ENDBRANCH  15  17
ENDBRANCH  14  15
ENDBRANCH  11  14
ENDBRANCH   4  10
BRANCH   7  19
ATOM     19  C   UNL     1       1.248   6.993 -14.473  0.00  0.00    +0.266 C 
ATOM     20  N   UNL     1       0.549   6.533 -15.592  0.00  0.00    -0.199 NA
ATOM     21  O   UNL     1       0.963   8.179 -14.122  0.00  0.00    -0.268 OA
BRANCH  20  22
ATOM     22  C   UNL     1      -0.549   7.055 -16.277  0.00  0.00    +0.151 C 
BRANCH  22  23
ATOM     23  C   UNL     1       0.024   7.723 -17.712  0.00  0.00    +0.206 C 
ATOM     24  O   UNL     1      -0.257   9.183 -17.275  0.00  0.00    -0.218 OA
BRANCH  23  25
ATOM     25  C   UNL     1      -1.490   7.574 -18.431  0.00  0.00    +0.217 C 
ATOM     26  O   UNL     1      -1.671   6.199 -18.488  0.00  0.00    -0.218 OA
ENDBRANCH  23  25
ENDBRANCH  22  23
ENDBRANCH  20  22
ENDBRANCH   7  19
BRANCH   1  28
ATOM     27  C   UNL     1       6.607   6.261 -13.532  0.00  0.00    +0.276 C 
ATOM     28  N   UNL     1       5.633   5.226 -13.354  0.00  0.00    -0.176 NA
ATOM     29  O   UNL     1       6.349   7.442 -13.206  0.00  0.00    -0.270 OA
BRANCH  27  30
ATOM     30  C   UNL     1       8.024   5.822 -13.719  0.00  0.00    +0.229 C 
BRANCH  30  32
ATOM     31  C   UNL     1       9.114   5.722 -11.781  0.00  0.00    +0.175 C 
ATOM     32  O   UNL     1       8.362   5.014 -12.622  0.00  0.00    -0.342 OA
ENDBRANCH  30  32
ENDBRANCH  27  30
ENDBRANCH   1  28
TORSDOF 11
ENDMDL
MODEL 6
REMARK VINA RESULT:      -5.5      3.126      8.038
REMARK  Name = 
REMARK  11 active torsions:
REMARK  status: ('A' for Active; 'I' for Inactive)
REMARK    1  A    between atoms: O_2  and  C_3
REMARK    2  A    between atoms: C_3  and  C_4
REMARK    3  A    between atoms: N_6  and  C_7
REMARK    4  A    between atoms: C_10  and  C_11
REMARK    5  A    between atoms: N_13  and  C_14
REMARK    6  A    between atoms: C_14  and  C_15
REMARK    7  A    between atoms: C_15  and  C_17
REMARK    8  A    between atoms: C_21  and  C_22
REMARK    9  A    between atoms: N_24  and  C_26
REMARK   10  A    between atoms: C_26  and  C_27
REMARK   11  A    between atoms: C_27  and  C_29
REMARK                            x       y       z     vdW  Elec       q    Type
REMARK                         _______ _______ _______ _____ _____    ______ ____
ROOT
ATOM      1  C   UNL     1       1.769   5.513 -10.306  0.00  0.00    +0.084 A 
ATOM      2  C   UNL     1       1.189   5.994 -11.473  0.00  0.00    +0.051 A 
ATOM      3  I   UNL     1      -0.694   6.954 -11.326  0.00  0.00    -0.041 I 
ATOM      4  C   UNL     1       1.979   6.113 -12.614  0.00  0.00    +0.066 A 
ATOM      5  C   UNL     1       3.356   5.997 -12.453  0.00  0.00    +0.040 A 
ATOM      6  I   UNL     1       4.629   6.366 -14.102  0.00  0.00    -0.042 I 
ATOM      7  C   UNL     1       3.943   5.779 -11.213  0.00  0.00    +0.067 A 
ATOM      8  C   UNL     1       3.146   5.472 -10.130  0.00  0.00    +0.051 A 
ATOM      9  I   UNL     1       3.877   5.431  -8.147  0.00  0.00    -0.041 I 
ENDROOT
BRANCH   4  10
ATOM     10  C   UNL     1       1.445   6.974 -13.660  0.00  0.00    +0.250 C 
ATOM     11  N   UNL     1       1.146   6.530 -14.982  0.00  0.00    -0.272 N 
ATOM     12  C   UNL     1      -0.067   5.725 -15.123  0.00  0.00    +0.115 C 
ATOM     13  O   UNL     1       0.913   8.071 -13.308  0.00  0.00    -0.270 OA
BRANCH  11  14
ATOM     14  C   UNL     1       1.488   7.506 -16.020  0.00  0.00    +0.129 C 
BRANCH  14  15
ATOM     15  C   UNL     1      -0.012   7.944 -16.635  0.00  0.00    +0.204 C 
ATOM     16  O   UNL     1       0.224   9.426 -16.254  0.00  0.00    -0.218 OA
BRANCH  15  17
ATOM     17  C   UNL     1       0.636   8.200 -18.167  0.00  0.00    +0.217 C 
ATOM     18  O   UNL     1       0.702   6.879 -18.586  0.00  0.00    -0.218 OA
ENDBRANCH  15  17
ENDBRANCH  14  15
ENDBRANCH  11  14
ENDBRANCH   4  10
BRANCH   7  19
ATOM     19  C   UNL     1       5.301   6.256 -10.902  0.00  0.00    +0.266 C 
ATOM     20  N   UNL     1       6.435   5.442 -10.954  0.00  0.00    -0.199 NA
ATOM     21  O   UNL     1       5.545   7.494 -10.762  0.00  0.00    -0.268 OA
BRANCH  20  22
ATOM     22  C   UNL     1       7.790   5.748 -11.083  0.00  0.00    +0.151 C 
BRANCH  22  23
ATOM     23  C   UNL     1       8.058   6.182 -12.687  0.00  0.00    +0.206 C 
ATOM     24  O   UNL     1       7.875   4.740 -13.224  0.00  0.00    -0.218 OA
BRANCH  23  25
ATOM     25  C   UNL     1       9.718   5.977 -12.506  0.00  0.00    +0.217 C 
ATOM     26  O   UNL     1       9.837   5.574 -11.183  0.00  0.00    -0.218 OA
ENDBRANCH  23  25
ENDBRANCH  22  23
ENDBRANCH  20  22
ENDBRANCH   7  19
BRANCH   1  28
ATOM     27  C   UNL     1       0.606   5.750  -8.179  0.00  0.00    +0.276 C 
ATOM     28  N   UNL     1       0.898   4.941  -9.325  0.00  0.00    -0.176 NA
ATOM     29  O   UNL     1       0.947   6.953  -8.144  0.00  0.00    -0.270 OA
BRANCH  27  30
ATOM     30  C   UNL     1      -0.446   5.236  -7.248  0.00  0.00    +0.229 C 
BRANCH  30  32
ATOM     31  C   UNL     1      -1.841   6.077  -5.732  0.00  0.00    +0.175 C 
ATOM     32  O   UNL     1      -0.612   6.192  -6.233  0.00  0.00    -0.342 OA
ENDBRANCH  30  32
ENDBRANCH  27  30
ENDBRANCH   1  28
TORSDOF 11
ENDMDL
MODEL 7
REMARK VINA RESULT:      -5.5      3.150      7.236
REMARK  Name = 
REMARK  11 active torsions:
REMARK  status: ('A' for Active; 'I' for Inactive)
REMARK    1  A    between atoms: O_2  and  C_3
REMARK    2  A    between atoms: C_3  and  C_4
REMARK    3  A    between atoms: N_6  and  C_7
REMARK    4  A    between atoms: C_10  and  C_11
REMARK    5  A    between atoms: N_13  and  C_14
REMARK    6  A    between atoms: C_14  and  C_15
REMARK    7  A    between atoms: C_15  and  C_17
REMARK    8  A    between atoms: C_21  and  C_22
REMARK    9  A    between atoms: N_24  and  C_26
REMARK   10  A    between atoms: C_26  and  C_27
REMARK   11  A    between atoms: C_27  and  C_29
REMARK                            x       y       z     vdW  Elec       q    Type
REMARK                         _______ _______ _______ _____ _____    ______ ____
ROOT
ATOM      1  C   UNL     1       3.333   6.301  -5.415  0.00  0.00    +0.084 A 
ATOM      2  C   UNL     1       3.934   6.286  -4.163  0.00  0.00    +0.051 A 
ATOM      3  I   UNL     1       5.547   7.617  -3.817  0.00  0.00    -0.041 I 
ATOM      4  C   UNL     1       3.277   5.652  -3.112  0.00  0.00    +0.066 A 
ATOM      5  C   UNL     1       1.945   5.302  -3.308  0.00  0.00    +0.040 A 
ATOM      6  I   UNL     1       0.827   4.520  -1.691  0.00  0.00    -0.042 I 
ATOM      7  C   UNL     1       1.273   5.573  -4.494  0.00  0.00    +0.067 A 
ATOM      8  C   UNL     1       1.983   6.023  -5.587  0.00  0.00    +0.051 A 
ATOM      9  I   UNL     1       1.047   6.764  -7.332  0.00  0.00    -0.041 I 
ENDROOT
BRANCH   4  10
ATOM     10  C   UNL     1       3.740   6.005  -1.777  0.00  0.00    +0.250 C 
ATOM     11  N   UNL     1       3.341   7.183  -1.079  0.00  0.00    -0.272 N 
ATOM     12  C   UNL     1       1.986   7.168  -0.529  0.00  0.00    +0.115 C 
ATOM     13  O   UNL     1       4.252   5.086  -1.066  0.00  0.00    -0.270 OA
BRANCH  11  14
ATOM     14  C   UNL     1       4.423   7.807  -0.314  0.00  0.00    +0.129 C 
BRANCH  14  15
ATOM     15  C   UNL     1       3.825   7.805   1.255  0.00  0.00    +0.204 C 
ATOM     16  O   UNL     1       4.899   6.785   1.702  0.00  0.00    -0.218 OA
BRANCH  15  17
ATOM     17  C   UNL     1       4.819   9.092   1.688  0.00  0.00    +0.217 C 
ATOM     18  O   UNL     1       4.260  10.068   0.876  0.00  0.00    -0.218 OA
ENDBRANCH  15  17
ENDBRANCH  14  15
ENDBRANCH  11  14
ENDBRANCH   4  10
BRANCH   7  19
ATOM     19  C   UNL     1      -0.181   5.801  -4.528  0.00  0.00    +0.266 C 
ATOM     20  N   UNL     1      -0.809   6.872  -3.887  0.00  0.00    -0.199 NA
ATOM     21  O   UNL     1      -0.930   5.145  -5.315  0.00  0.00    -0.268 OA
BRANCH  20  22
ATOM     22  C   UNL     1      -2.046   7.481  -4.097  0.00  0.00    +0.151 C 
BRANCH  22  23
ATOM     23  C   UNL     1      -2.939   7.309  -2.679  0.00  0.00    +0.206 C 
ATOM     24  O   UNL     1      -1.718   6.870  -1.832  0.00  0.00    -0.218 OA
BRANCH  23  25
ATOM     25  C   UNL     1      -3.326   5.720  -3.070  0.00  0.00    +0.217 C 
ATOM     26  O   UNL     1      -2.812   5.004  -1.998  0.00  0.00    -0.218 OA
ENDBRANCH  23  25
ENDBRANCH  22  23
ENDBRANCH  20  22
ENDBRANCH   7  19
BRANCH   1  28
ATOM     27  C   UNL     1       4.436   5.345  -7.365  0.00  0.00    +0.276 C 
ATOM     28  N   UNL     1       4.181   6.496  -6.550  0.00  0.00    -0.176 NA
ATOM     29  O   UNL     1       3.795   4.285  -7.189  0.00  0.00    -0.270 OA
BRANCH  27  30
ATOM     30  C   UNL     1       5.164   5.582  -8.649  0.00  0.00    +0.229 C 
BRANCH  30  32
ATOM     31  C   UNL     1       4.325   6.846 -10.278  0.00  0.00    +0.175 C 
ATOM     32  O   UNL     1       4.202   5.668  -9.669  0.00  0.00    -0.342 OA
ENDBRANCH  30  32
ENDBRANCH  27  30
ENDBRANCH   1  28
TORSDOF 11
ENDMDL
MODEL 8
REMARK VINA RESULT:      -5.3      2.836      6.541
REMARK  Name = 
REMARK  11 active torsions:
REMARK  status: ('A' for Active; 'I' for Inactive)
REMARK    1  A    between atoms: O_2  and  C_3
REMARK    2  A    between atoms: C_3  and  C_4
REMARK    3  A    between atoms: N_6  and  C_7
REMARK    4  A    between atoms: C_10  and  C_11
REMARK    5  A    between atoms: N_13  and  C_14
REMARK    6  A    between atoms: C_14  and  C_15
REMARK    7  A    between atoms: C_15  and  C_17
REMARK    8  A    between atoms: C_21  and  C_22
REMARK    9  A    between atoms: N_24  and  C_26
REMARK   10  A    between atoms: C_26  and  C_27
REMARK   11  A    between atoms: C_27  and  C_29
REMARK                            x       y       z     vdW  Elec       q    Type
REMARK                         _______ _______ _______ _____ _____    ______ ____
ROOT
ATOM      1  C   UNL     1       3.938   5.530 -11.556  0.00  0.00    +0.084 A 
ATOM      2  C   UNL     1       3.354   5.601 -10.298  0.00  0.00    +0.051 A 
ATOM      3  I   UNL     1       4.590   6.109  -8.653  0.00  0.00    -0.041 I 
ATOM      4  C   UNL     1       1.965   5.648 -10.205  0.00  0.00    +0.066 A 
ATOM      5  C   UNL     1       1.255   5.890 -11.376  0.00  0.00    +0.040 A 
ATOM      6  I   UNL     1      -0.839   6.177 -11.280  0.00  0.00    -0.042 I 
ATOM      7  C   UNL     1       1.883   6.087 -12.599  0.00  0.00    +0.067 A 
ATOM      8  C   UNL     1       3.237   5.847 -12.712  0.00  0.00    +0.051 A 
ATOM      9  I   UNL     1       4.359   6.406 -14.414  0.00  0.00    -0.041 I 
ENDROOT
BRANCH   4  10
ATOM     10  C   UNL     1       1.436   6.116  -8.931  0.00  0.00    +0.250 C 
ATOM     11  N   UNL     1       0.937   5.254  -7.910  0.00  0.00    -0.272 N 
ATOM     12  C   UNL     1       1.946   4.524  -7.145  0.00  0.00    +0.115 C 
ATOM     13  O   UNL     1       1.728   7.296  -8.568  0.00  0.00    -0.270 OA
BRANCH  11  14
ATOM     14  C   UNL     1      -0.247   5.780  -7.227  0.00  0.00    +0.129 C 
BRANCH  14  15
ATOM     15  C   UNL     1       0.111   5.528  -5.606  0.00  0.00    +0.204 C 
ATOM     16  O   UNL     1       0.384   7.038  -5.394  0.00  0.00    -0.218 OA
BRANCH  15  17
ATOM     17  C   UNL     1      -1.502   5.724  -5.167  0.00  0.00    +0.217 C 
ATOM     18  O   UNL     1      -1.382   5.456  -3.812  0.00  0.00    -0.218 OA
ENDBRANCH  15  17
ENDBRANCH  14  15
ENDBRANCH  11  14
ENDBRANCH   4  10
BRANCH   7  19
ATOM     19  C   UNL     1       1.284   6.920 -13.655  0.00  0.00    +0.266 C 
ATOM     20  N   UNL     1       0.776   6.403 -14.850  0.00  0.00    -0.199 NA
ATOM     21  O   UNL     1       1.012   8.142 -13.451  0.00  0.00    -0.268 OA
BRANCH  20  22
ATOM     22  C   UNL     1      -0.142   6.917 -15.766  0.00  0.00    +0.151 C 
BRANCH  22  23
ATOM     23  C   UNL     1       0.735   7.670 -16.990  0.00  0.00    +0.206 C 
ATOM     24  O   UNL     1       0.380   9.102 -16.515  0.00  0.00    -0.218 OA
BRANCH  23  25
ATOM     25  C   UNL     1      -0.588   7.612 -18.027  0.00  0.00    +0.217 C 
ATOM     26  O   UNL     1      -1.263   6.476 -17.603  0.00  0.00    -0.218 OA
ENDBRANCH  23  25
ENDBRANCH  22  23
ENDBRANCH  20  22
ENDBRANCH   7  19
BRANCH   1  28
ATOM     27  C   UNL     1       6.337   5.949 -11.601  0.00  0.00    +0.276 C 
ATOM     28  N   UNL     1       5.264   5.000 -11.638  0.00  0.00    -0.176 NA
ATOM     29  O   UNL     1       6.118   7.149 -11.323  0.00  0.00    -0.270 OA
BRANCH  27  30
ATOM     30  C   UNL     1       7.721   5.391 -11.498  0.00  0.00    +0.229 C 
BRANCH  30  32
ATOM     31  C   UNL     1       8.080   5.831 -13.650  0.00  0.00    +0.175 C 
ATOM     32  O   UNL     1       8.523   6.083 -12.419  0.00  0.00    -0.342 OA
ENDBRANCH  30  32
ENDBRANCH  27  30
ENDBRANCH   1  28
TORSDOF 11
ENDMDL
MODEL 9
REMARK VINA RESULT:      -5.2      3.781      7.656
REMARK  Name = 
REMARK  11 active torsions:
REMARK  status: ('A' for Active; 'I' for Inactive)
REMARK    1  A    between atoms: O_2  and  C_3
REMARK    2  A    between atoms: C_3  and  C_4
REMARK    3  A    between atoms: N_6  and  C_7
REMARK    4  A    between atoms: C_10  and  C_11
REMARK    5  A    between atoms: N_13  and  C_14
REMARK    6  A    between atoms: C_14  and  C_15
REMARK    7  A    between atoms: C_15  and  C_17
REMARK    8  A    between atoms: C_21  and  C_22
REMARK    9  A    between atoms: N_24  and  C_26
REMARK   10  A    between atoms: C_26  and  C_27
REMARK   11  A    between atoms: C_27  and  C_29
REMARK                            x       y       z     vdW  Elec       q    Type
REMARK                         _______ _______ _______ _____ _____    ______ ____
ROOT
ATOM      1  C   UNL     1       2.961   5.722  -3.951  0.00  0.00    +0.084 A 
ATOM      2  C   UNL     1       3.584   6.516  -2.996  0.00  0.00    +0.051 A 
ATOM      3  I   UNL     1       5.172   7.770  -3.627  0.00  0.00    -0.041 I 
ATOM      4  C   UNL     1       2.961   6.696  -1.764  0.00  0.00    +0.066 A 
ATOM      5  C   UNL     1       1.634   6.293  -1.654  0.00  0.00    +0.040 A 
ATOM      6  I   UNL     1       0.563   6.719   0.120  0.00  0.00    -0.042 I 
ATOM      7  C   UNL     1       0.935   5.738  -2.719  0.00  0.00    +0.067 A 
ATOM      8  C   UNL     1       1.615   5.389  -3.867  0.00  0.00    +0.051 A 
ATOM      9  I   UNL     1       0.632   4.837  -5.655  0.00  0.00    -0.041 I 
ENDROOT
BRANCH   4  10
ATOM     10  C   UNL     1       3.439   7.824  -0.977  0.00  0.00    +0.250 C 
ATOM     11  N   UNL     1       4.038   7.701   0.312  0.00  0.00    -0.272 N 
ATOM     12  C   UNL     1       5.410   7.196   0.329  0.00  0.00    +0.115 C 
ATOM     13  O   UNL     1       3.641   8.922  -1.581  0.00  0.00    -0.270 OA
BRANCH  11  14
ATOM     14  C   UNL     1       3.647   8.761   1.243  0.00  0.00    +0.129 C 
BRANCH  14  15
ATOM     15  C   UNL     1       5.105   9.188   1.960  0.00  0.00    +0.204 C 
ATOM     16  O   UNL     1       4.910  10.670   1.558  0.00  0.00    -0.218 OA
BRANCH  15  17
ATOM     17  C   UNL     1       4.354   9.457   3.442  0.00  0.00    +0.217 C 
ATOM     18  O   UNL     1       3.703  10.642   3.133  0.00  0.00    -0.218 OA
ENDBRANCH  15  17
ENDBRANCH  14  15
ENDBRANCH  11  14
ENDBRANCH   4  10
BRANCH   7  19
ATOM     19  C   UNL     1      -0.524   5.882  -2.851  0.00  0.00    +0.266 C 
ATOM     20  N   UNL     1      -1.150   7.069  -3.237  0.00  0.00    -0.199 NA
ATOM     21  O   UNL     1      -1.289   4.870  -2.813  0.00  0.00    -0.268 OA
BRANCH  20  22
ATOM     22  C   UNL     1      -2.409   7.318  -3.783  0.00  0.00    +0.151 C 
BRANCH  22  23
ATOM     23  C   UNL     1      -2.223   7.423  -5.453  0.00  0.00    +0.206 C 
ATOM     24  O   UNL     1      -3.550   8.195  -5.664  0.00  0.00    -0.218 OA
BRANCH  23  25
ATOM     25  C   UNL     1      -2.975   5.934  -5.670  0.00  0.00    +0.217 C 
ATOM     26  O   UNL     1      -2.623   5.596  -6.969  0.00  0.00    -0.218 OA
ENDBRANCH  23  25
ENDBRANCH  22  23
ENDBRANCH  20  22
ENDBRANCH   7  19
BRANCH   1  28
ATOM     27  C   UNL     1       3.811   5.835  -6.231  0.00  0.00    +0.276 C 
ATOM     28  N   UNL     1       3.785   5.151  -4.972  0.00  0.00    -0.176 NA
ATOM     29  O   UNL     1       3.289   6.965  -6.353  0.00  0.00    -0.270 OA
BRANCH  27  30
ATOM     30  C   UNL     1       4.809   5.351  -7.235  0.00  0.00    +0.229 C 
BRANCH  30  32
ATOM     31  C   UNL     1       3.698   4.343  -8.879  0.00  0.00    +0.175 C 
ATOM     32  O   UNL     1       4.233   5.505  -8.507  0.00  0.00    -0.342 OA
ENDBRANCH  30  32
ENDBRANCH  27  30
ENDBRANCH   1  28
TORSDOF 11
ENDMDL
