MODEL 1
REMARK VINA RESULT:      -5.4      0.000      0.000
REMARK  Name = 
REMARK  3 active torsions:
REMARK  status: ('A' for Active; 'I' for Inactive)
REMARK    1  A    between atoms: C_2  and  C_3
REMARK    2  A    between atoms: C_3  and  C_4
REMARK    3  A    between atoms: C_9  and  O_10
REMARK                            x       y       z     vdW  Elec       q    Type
REMARK                         _______ _______ _______ _____ _____    ______ ____
ROOT
ATOM      1  C   UNL     1       5.598   6.029 -10.338  0.00  0.00    -0.015 A 
ATOM      2  C   UNL     1       5.736   5.696 -11.675  0.00  0.00    +0.036 A 
ATOM      3  C   UNL     1       6.975   5.285 -12.151  0.00  0.00    +0.177 A 
ATOM      4  C   UNL     1       8.122   5.485 -11.394  0.00  0.00    +0.229 A 
ATOM      5  O   UNL     1       9.325   5.765 -12.019  0.00  0.00    -0.283 OA
ATOM      6  C   UNL     1       7.954   5.889 -10.079  0.00  0.00    +0.045 A 
ATOM      7  C   UNL     1       6.687   5.758  -9.521  0.00  0.00    -0.000 A 
ENDROOT
BRANCH   3   8
ATOM      8  O   UNL     1       7.138   4.883 -13.459  0.00  0.00    -0.468 OA
ATOM      9  C   UNL     1       6.803   5.777 -14.489  0.00  0.00    +0.253 C 
ENDBRANCH   3   8
BRANCH   1  10
ATOM     10  C   UNL     1       4.303   6.239  -9.670  0.00  0.00    +0.052 C 
BRANCH  10  12
ATOM     11  C   UNL     1       3.445   4.102  -8.840  0.00  0.00    -0.005 C 
ATOM     12  C   UNL     1       4.044   5.269  -8.574  0.00  0.00    -0.021 C 
ENDBRANCH  10  12
ENDBRANCH   1  10
TORSDOF 3
ENDMDL
MODEL 2
REMARK VINA RESULT:      -5.3      9.399     11.840
REMARK  Name = 
REMARK  3 active torsions:
REMARK  status: ('A' for Active; 'I' for Inactive)
REMARK    1  A    between atoms: C_2  and  C_3
REMARK    2  A    between atoms: C_3  and  C_4
REMARK    3  A    between atoms: C_9  and  O_10
REMARK                            x       y       z     vdW  Elec       q    Type
REMARK                         _______ _______ _______ _____ _____    ______ ____
ROOT
ATOM      1  C   UNL     1      -2.066   6.372  -4.091  0.00  0.00    -0.015 A 
ATOM      2  C   UNL     1      -0.992   5.717  -3.512  0.00  0.00    +0.036 A 
ATOM      3  C   UNL     1      -1.044   5.378  -2.165  0.00  0.00    +0.177 A 
ATOM      4  C   UNL     1      -2.007   5.937  -1.336  0.00  0.00    +0.229 A 
ATOM      5  O   UNL     1      -1.707   6.213  -0.012  0.00  0.00    -0.283 OA
ATOM      6  C   UNL     1      -3.031   6.650  -1.939  0.00  0.00    +0.045 A 
ATOM      7  C   UNL     1      -3.207   6.490  -3.309  0.00  0.00    -0.000 A 
ENDROOT
BRANCH   3   8
ATOM      8  O   UNL     1      -0.024   4.670  -1.569  0.00  0.00    -0.468 OA
ATOM      9  C   UNL     1       1.272   5.211  -1.576  0.00  0.00    +0.253 C 
ENDBRANCH   3   8
BRANCH   1  10
ATOM     10  C   UNL     1      -2.231   6.562  -5.541  0.00  0.00    +0.052 C 
BRANCH  10  12
ATOM     11  C   UNL     1      -0.954   5.421  -7.290  0.00  0.00    -0.005 C 
ATOM     12  C   UNL     1      -1.889   5.353  -6.335  0.00  0.00    -0.021 C 
ENDBRANCH  10  12
ENDBRANCH   1  10
TORSDOF 3
ENDMDL
MODEL 3
REMARK VINA RESULT:      -5.2      2.907      4.541
REMARK  Name = 
REMARK  3 active torsions:
REMARK  status: ('A' for Active; 'I' for Inactive)
REMARK    1  A    between atoms: C_2  and  C_3
REMARK    2  A    between atoms: C_3  and  C_4
REMARK    3  A    between atoms: C_9  and  O_10
REMARK                            x       y       z     vdW  Elec       q    Type
REMARK                         _______ _______ _______ _____ _____    ______ ____
ROOT
ATOM      1  C   UNL     1       6.101   6.356 -10.350  0.00  0.00    -0.015 A 
ATOM      2  C   UNL     1       4.787   6.505 -10.761  0.00  0.00    +0.036 A 
ATOM      3  C   UNL     1       3.767   5.932 -10.011  0.00  0.00    +0.177 A 
ATOM      4  C   UNL     1       4.057   4.980  -9.041  0.00  0.00    +0.229 A 
ATOM      5  O   UNL     1       3.174   3.940  -8.806  0.00  0.00    -0.283 OA
ATOM      6  C   UNL     1       5.389   4.802  -8.702  0.00  0.00    +0.045 A 
ATOM      7  C   UNL     1       6.292   5.781  -9.102  0.00  0.00    -0.000 A 
ENDROOT
BRANCH   3   8
ATOM      8  O   UNL     1       2.444   6.111 -10.351  0.00  0.00    -0.468 OA
ATOM      9  C   UNL     1       2.074   6.030 -11.703  0.00  0.00    +0.253 C 
ENDBRANCH   3   8
BRANCH   1  10
ATOM     10  C   UNL     1       7.231   7.111 -10.914  0.00  0.00    +0.052 C 
BRANCH  10  12
ATOM     11  C   UNL     1       8.900   5.759 -12.088  0.00  0.00    -0.005 C 
ATOM     12  C   UNL     1       7.787   6.500 -12.150  0.00  0.00    -0.021 C 
ENDBRANCH  10  12
ENDBRANCH   1  10
TORSDOF 3
ENDMDL
MODEL 4
REMARK VINA RESULT:      -5.1      3.201      5.375
REMARK  Name = 
REMARK  3 active torsions:
REMARK  status: ('A' for Active; 'I' for Inactive)
REMARK    1  A    between atoms: C_2  and  C_3
REMARK    2  A    between atoms: C_3  and  C_4
REMARK    3  A    between atoms: C_9  and  O_10
REMARK                            x       y       z     vdW  Elec       q    Type
REMARK                         _______ _______ _______ _____ _____    ______ ____
ROOT
ATOM      1  C   UNL     1       6.316   5.933  -9.779  0.00  0.00    -0.015 A 
ATOM      2  C   UNL     1       5.752   5.447  -8.611  0.00  0.00    +0.036 A 
ATOM      3  C   UNL     1       4.389   5.612  -8.391  0.00  0.00    +0.177 A 
ATOM      4  C   UNL     1       3.654   6.500  -9.166  0.00  0.00    +0.229 A 
ATOM      5  O   UNL     1       2.602   7.203  -8.605  0.00  0.00    -0.283 OA
ATOM      6  C   UNL     1       4.271   7.026 -10.290  0.00  0.00    +0.045 A 
ATOM      7  C   UNL     1       5.431   6.404 -10.739  0.00  0.00    -0.000 A 
ENDROOT
BRANCH   3   8
ATOM      8  O   UNL     1       3.779   5.088  -7.273  0.00  0.00    -0.468 OA
ATOM      9  C   UNL     1       4.254   5.459  -6.004  0.00  0.00    +0.253 C 
ENDBRANCH   3   8
BRANCH   1  10
ATOM     10  C   UNL     1       7.678   5.608 -10.234  0.00  0.00    +0.052 C 
BRANCH  10  12
ATOM     11  C   UNL     1       9.113   5.808 -12.206  0.00  0.00    -0.005 C 
ATOM     12  C   UNL     1       8.014   6.204 -11.553  0.00  0.00    -0.021 C 
ENDBRANCH  10  12
ENDBRANCH   1  10
TORSDOF 3
ENDMDL
MODEL 5
REMARK VINA RESULT:      -5.1      7.162      9.149
REMARK  Name = 
REMARK  3 active torsions:
REMARK  status: ('A' for Active; 'I' for Inactive)
REMARK    1  A    between atoms: C_2  and  C_3
REMARK    2  A    between atoms: C_3  and  C_4
REMARK    3  A    between atoms: C_9  and  O_10
REMARK                            x       y       z     vdW  Elec       q    Type
REMARK                         _______ _______ _______ _____ _____    ______ ____
ROOT
ATOM      1  C   UNL     1      -1.502   6.605  -5.276  0.00  0.00    -0.015 A 
ATOM      2  C   UNL     1      -0.184   7.025  -5.219  0.00  0.00    +0.036 A 
ATOM      3  C   UNL     1       0.703   6.626  -6.212  0.00  0.00    +0.177 A 
ATOM      4  C   UNL     1       0.371   5.592  -7.079  0.00  0.00    +0.229 A 
ATOM      5  O   UNL     1       1.353   4.733  -7.541  0.00  0.00    -0.283 OA
ATOM      6  C   UNL     1      -0.940   5.144  -7.062  0.00  0.00    +0.045 A 
ATOM      7  C   UNL     1      -1.888   5.947  -6.436  0.00  0.00    -0.000 A 
ENDROOT
BRANCH   3   8
ATOM      8  O   UNL     1       2.006   7.073  -6.225  0.00  0.00    -0.468 OA
ATOM      9  C   UNL     1       2.813   6.847  -5.098  0.00  0.00    +0.253 C 
ENDBRANCH   3   8
BRANCH   1  10
ATOM     10  C   UNL     1      -2.578   7.152  -4.434  0.00  0.00    +0.052 C 
BRANCH  10  12
ATOM     11  C   UNL     1      -3.184   6.651  -2.116  0.00  0.00    -0.005 C 
ATOM     12  C   UNL     1      -3.026   6.214  -3.371  0.00  0.00    -0.021 C 
ENDBRANCH  10  12
ENDBRANCH   1  10
TORSDOF 3
ENDMDL
MODEL 6
REMARK VINA RESULT:      -5.0      5.708      7.252
REMARK  Name = 
REMARK  3 active torsions:
REMARK  status: ('A' for Active; 'I' for Inactive)
REMARK    1  A    between atoms: C_2  and  C_3
REMARK    2  A    between atoms: C_3  and  C_4
REMARK    3  A    between atoms: C_9  and  O_10
REMARK                            x       y       z     vdW  Elec       q    Type
REMARK                         _______ _______ _______ _____ _____    ______ ____
ROOT
ATOM      1  C   UNL     1      -0.722   5.424  -6.941  0.00  0.00    -0.015 A 
ATOM      2  C   UNL     1      -0.309   5.454  -8.262  0.00  0.00    +0.036 A 
ATOM      3  C   UNL     1       1.000   5.111  -8.576  0.00  0.00    +0.177 A 
ATOM      4  C   UNL     1       1.965   5.029  -7.580  0.00  0.00    +0.229 A 
ATOM      5  O   UNL     1       3.273   5.393  -7.850  0.00  0.00    -0.283 OA
ATOM      6  C   UNL     1       1.528   5.074  -6.266  0.00  0.00    +0.045 A 
ATOM      7  C   UNL     1       0.172   4.876  -6.030  0.00  0.00    -0.000 A 
ENDROOT
BRANCH   3   8
ATOM      8  O   UNL     1       1.431   5.066  -9.884  0.00  0.00    -0.468 OA
ATOM      9  C   UNL     1       0.508   4.745 -10.892  0.00  0.00    +0.253 C 
ENDBRANCH   3   8
BRANCH   1  10
ATOM     10  C   UNL     1      -2.127   5.525  -6.514  0.00  0.00    +0.052 C 
BRANCH  10  12
ATOM     11  C   UNL     1      -2.447   7.446  -5.031  0.00  0.00    -0.005 C 
ATOM     12  C   UNL     1      -2.288   6.124  -5.163  0.00  0.00    -0.021 C 
ENDBRANCH  10  12
ENDBRANCH   1  10
TORSDOF 3
ENDMDL
MODEL 7
REMARK VINA RESULT:      -5.0      7.579      9.866
REMARK  Name = 
REMARK  3 active torsions:
REMARK  status: ('A' for Active; 'I' for Inactive)
REMARK    1  A    between atoms: C_2  and  C_3
REMARK    2  A    between atoms: C_3  and  C_4
REMARK    3  A    between atoms: C_9  and  O_10
REMARK                            x       y       z     vdW  Elec       q    Type
REMARK                         _______ _______ _______ _____ _____    ______ ____
ROOT
ATOM      1  C   UNL     1      -0.140   5.706  -6.962  0.00  0.00    -0.015 A 
ATOM      2  C   UNL     1       0.302   6.059  -5.698  0.00  0.00    +0.036 A 
ATOM      3  C   UNL     1      -0.592   6.044  -4.633  0.00  0.00    +0.177 A 
ATOM      4  C   UNL     1      -1.960   5.973  -4.864  0.00  0.00    +0.229 A 
ATOM      5  O   UNL     1      -2.840   6.631  -4.022  0.00  0.00    -0.283 OA
ATOM      6  C   UNL     1      -2.374   5.690  -6.156  0.00  0.00    +0.045 A 
ATOM      7  C   UNL     1      -1.426   5.189  -7.041  0.00  0.00    -0.000 A 
ENDROOT
BRANCH   3   8
ATOM      8  O   UNL     1      -0.177   6.326  -3.350  0.00  0.00    -0.468 OA
ATOM      9  C   UNL     1       0.119   5.261  -2.484  0.00  0.00    +0.253 C 
ENDBRANCH   3   8
BRANCH   1  10
ATOM     10  C   UNL     1       0.751   5.449  -8.105  0.00  0.00    +0.052 C 
BRANCH  10  12
ATOM     11  C   UNL     1       0.207   4.804 -10.402  0.00  0.00    -0.005 C 
ATOM     12  C   UNL     1       0.109   5.708  -9.420  0.00  0.00    -0.021 C 
ENDBRANCH  10  12
ENDBRANCH   1  10
TORSDOF 3
ENDMDL
MODEL 8
REMARK VINA RESULT:      -4.7      6.822      8.399
REMARK  Name = 
REMARK  3 active torsions:
REMARK  status: ('A' for Active; 'I' for Inactive)
REMARK    1  A    between atoms: C_2  and  C_3
REMARK    2  A    between atoms: C_3  and  C_4
REMARK    3  A    between atoms: C_9  and  O_10
REMARK                            x       y       z     vdW  Elec       q    Type
REMARK                         _______ _______ _______ _____ _____    ______ ____
ROOT
ATOM      1  C   UNL     1       0.421   5.664  -8.469  0.00  0.00    -0.015 A 
ATOM      2  C   UNL     1      -0.538   5.416  -7.501  0.00  0.00    +0.036 A 
ATOM      3  C   UNL     1      -0.412   6.005  -6.248  0.00  0.00    +0.177 A 
ATOM      4  C   UNL     1       0.790   6.584  -5.861  0.00  0.00    +0.229 A 
ATOM      5  O   UNL     1       1.194   6.524  -4.539  0.00  0.00    -0.283 OA
ATOM      6  C   UNL     1       1.759   6.754  -6.838  0.00  0.00    +0.045 A 
ATOM      7  C   UNL     1       1.363   6.638  -8.166  0.00  0.00    -0.000 A 
ENDROOT
BRANCH   3   8
ATOM      8  O   UNL     1      -1.377   5.834  -5.280  0.00  0.00    -0.468 OA
ATOM      9  C   UNL     1      -2.348   6.833  -5.108  0.00  0.00    +0.253 C 
ENDBRANCH   3   8
BRANCH   1  10
ATOM     10  C   UNL     1       0.271   5.304  -9.889  0.00  0.00    +0.052 C 
BRANCH  10  12
ATOM     11  C   UNL     1      -0.546   7.131 -11.298  0.00  0.00    -0.005 C 
ATOM     12  C   UNL     1       0.497   6.447 -10.811  0.00  0.00    -0.021 C 
ENDBRANCH  10  12
ENDBRANCH   1  10
TORSDOF 3
ENDMDL
MODEL 9
REMARK VINA RESULT:      -4.7      3.582      5.376
REMARK  Name = 
REMARK  3 active torsions:
REMARK  status: ('A' for Active; 'I' for Inactive)
REMARK    1  A    between atoms: C_2  and  C_3
REMARK    2  A    between atoms: C_3  and  C_4
REMARK    3  A    between atoms: C_9  and  O_10
REMARK                            x       y       z     vdW  Elec       q    Type
REMARK                         _______ _______ _______ _____ _____    ______ ____
ROOT
ATOM      1  C   UNL     1       4.978   5.511  -9.278  0.00  0.00    -0.015 A 
ATOM      2  C   UNL     1       3.824   4.983  -9.833  0.00  0.00    +0.036 A 
ATOM      3  C   UNL     1       2.743   4.690  -9.009  0.00  0.00    +0.177 A 
ATOM      4  C   UNL     1       2.903   4.638  -7.631  0.00  0.00    +0.229 A 
ATOM      5  O   UNL     1       2.171   3.732  -6.882  0.00  0.00    -0.283 OA
ATOM      6  C   UNL     1       4.099   5.106  -7.110  0.00  0.00    +0.045 A 
ATOM      7  C   UNL     1       4.906   5.875  -7.941  0.00  0.00    -0.000 A 
ENDROOT
BRANCH   3   8
ATOM      8  O   UNL     1       1.556   4.224  -9.530  0.00  0.00    -0.468 OA
ATOM      9  C   UNL     1       0.542   5.146  -9.838  0.00  0.00    +0.253 C 
ENDBRANCH   3   8
BRANCH   1  10
ATOM     10  C   UNL     1       6.082   6.084 -10.065  0.00  0.00    +0.052 C 
BRANCH  10  12
ATOM     11  C   UNL     1       6.526   8.106 -11.370  0.00  0.00    -0.005 C 
ATOM     12  C   UNL     1       5.649   7.174 -10.978  0.00  0.00    -0.021 C 
ENDBRANCH  10  12
ENDBRANCH   1  10
TORSDOF 3
ENDMDL
