MODEL 1
REMARK VINA RESULT:      -7.4      0.000      0.000
REMARK  Name = 
REMARK  7 active torsions:
REMARK  status: ('A' for Active; 'I' for Inactive)
REMARK    1  A    between atoms: N_2  and  C_3
REMARK    2  A    between atoms: C_3  and  C_5
REMARK    3  A    between atoms: C_10  and  O_11
REMARK    4  A    between atoms: O_11  and  C_12
REMARK    5  A    between atoms: C_15  and  O_16
REMARK    6  A    between atoms: O_16  and  C_17
REMARK    7  A    between atoms: C_23  and  N_24
REMARK                            x       y       z     vdW  Elec       q    Type
REMARK                         _______ _______ _______ _____ _____    ______ ____
ROOT
ATOM      1  C   UNL     1       3.107   7.180  -1.364  0.00  0.00    +0.168 C 
ATOM      2  C   UNL     1       4.660   6.511  -1.186  0.00  0.00    +0.123 C 
ATOM      3  N   UNL     1       4.382   5.717   0.121  0.00  0.00    -0.130 NA
ATOM      4  C   UNL     1       4.028   5.251  -2.032  0.00  0.00    +0.043 C 
ATOM      5  C   UNL     1       4.581   5.828  -3.436  0.00  0.00    +0.123 C 
ATOM      6  N   UNL     1       4.246   4.490  -4.159  0.00  0.00    -0.130 NA
ATOM      7  C   UNL     1       3.198   6.705  -3.959  0.00  0.00    +0.168 C 
ATOM      8  C   UNL     1       3.428   8.001  -2.843  0.00  0.00    +0.209 C 
ATOM      9  O   UNL     1       4.922   7.980  -2.813  0.00  0.00    -0.218 OA
ENDROOT
BRANCH   1  10
ATOM     10  O   UNL     1       3.252   8.492  -0.711  0.00  0.00    -0.328 OA
BRANCH  10  13
ATOM     11  C   UNL     1       1.816   8.451   2.443  0.00  0.00    +0.134 C 
ATOM     12  O   UNL     1       2.731   8.325   1.275  0.00  0.00    -0.331 OA
ATOM     13  C   UNL     1       2.039   8.903   0.056  0.00  0.00    +0.253 C 
ATOM     14  C   UNL     1       2.455  10.571   0.338  0.00  0.00    +0.148 C 
ATOM     15  N   UNL     1       3.835  10.620  -0.378  0.00  0.00    -0.128 NA
ATOM     16  C   UNL     1       3.196  10.412   1.774  0.00  0.00    +0.027 C 
ATOM     17  C   UNL     1       2.043  10.068   2.603  0.00  0.00    +0.033 C 
BRANCH  11  18
ATOM     18  C   UNL     1       0.344   8.601   1.579  0.00  0.00    +0.100 C 
ATOM     19  C   UNL     1       0.138   6.986   1.663  0.00  0.00    +0.021 C 
BRANCH  18  21
ATOM     20  C   UNL     1      -0.938   8.816   3.079  0.00  0.00    +0.107 C 
ATOM     21  N   UNL     1      -0.532   8.810   2.855  0.00  0.00    -0.215 NA
ENDBRANCH  18  21
ENDBRANCH  11  18
ENDBRANCH  10  13
ENDBRANCH   1  10
BRANCH   7  22
ATOM     22  O   UNL     1       2.106   6.111  -3.198  0.00  0.00    -0.327 OA
BRANCH  22  23
ATOM     23  C   UNL     1       1.071   5.479  -4.099  0.00  0.00    +0.268 C 
ATOM     24  C   UNL     1      -0.214   5.103  -2.998  0.00  0.00    +0.226 C 
ATOM     25  O   UNL     1       0.519   5.225  -1.717  0.00  0.00    -0.216 OA
ATOM     26  C   UNL     1      -0.887   6.663  -2.882  0.00  0.00    +0.138 C 
ATOM     27  C   UNL     1      -1.781   6.459  -4.227  0.00  0.00    +0.171 C 
ATOM     28  O   UNL     1      -2.604   5.408  -4.106  0.00  0.00    -0.222 OA
ATOM     29  C   UNL     1      -2.374   7.766  -4.595  0.00  0.00    +0.037 C 
ATOM     30  C   UNL     1      -0.693   6.170  -5.259  0.00  0.00    +0.176 C 
ATOM     31  O   UNL     1       0.422   6.757  -4.633  0.00  0.00    -0.326 OA
BRANCH  26  32
ATOM     32  N   UNL     1      -1.992   6.132  -1.921  0.00  0.00    -0.213 NA
ATOM     33  C   UNL     1      -2.283   7.208  -1.009  0.00  0.00    +0.108 C 
ENDBRANCH  26  32
ENDBRANCH  22  23
ENDBRANCH   7  22
TORSDOF 7
ENDMDL
MODEL 2
REMARK VINA RESULT:      -6.6      2.043      4.765
REMARK  Name = 
REMARK  7 active torsions:
REMARK  status: ('A' for Active; 'I' for Inactive)
REMARK    1  A    between atoms: N_2  and  C_3
REMARK    2  A    between atoms: C_3  and  C_5
REMARK    3  A    between atoms: C_10  and  O_11
REMARK    4  A    between atoms: O_11  and  C_12
REMARK    5  A    between atoms: C_15  and  O_16
REMARK    6  A    between atoms: O_16  and  C_17
REMARK    7  A    between atoms: C_23  and  N_24
REMARK                            x       y       z     vdW  Elec       q    Type
REMARK                         _______ _______ _______ _____ _____    ______ ____
ROOT
ATOM      1  C   UNL     1       0.814   6.696  -1.939  0.00  0.00    +0.168 C 
ATOM      2  C   UNL     1      -0.456   6.397  -0.849  0.00  0.00    +0.123 C 
ATOM      3  N   UNL     1      -0.644   7.861  -0.361  0.00  0.00    -0.130 NA
ATOM      4  C   UNL     1      -1.416   6.750  -2.136  0.00  0.00    +0.043 C 
ATOM      5  C   UNL     1      -1.569   5.192  -2.536  0.00  0.00    +0.123 C 
ATOM      6  N   UNL     1      -2.707   5.526  -3.546  0.00  0.00    -0.130 NA
ATOM      7  C   UNL     1      -0.298   5.058  -3.686  0.00  0.00    +0.168 C 
ATOM      8  C   UNL     1       0.959   5.076  -2.503  0.00  0.00    +0.209 C 
ATOM      9  O   UNL     1       0.219   4.372  -1.412  0.00  0.00    -0.218 OA
ENDROOT
BRANCH   1  10
ATOM     10  O   UNL     1       2.006   6.420  -1.119  0.00  0.00    -0.328 OA
BRANCH  10  13
ATOM     11  C   UNL     1       3.428   8.362   1.374  0.00  0.00    +0.134 C 
ATOM     12  O   UNL     1       2.723   7.305   0.596  0.00  0.00    -0.331 OA
ATOM     13  C   UNL     1       2.847   7.629  -0.880  0.00  0.00    +0.253 C 
ATOM     14  C   UNL     1       4.417   6.915  -1.129  0.00  0.00    +0.148 C 
ATOM     15  N   UNL     1       3.991   5.454  -1.449  0.00  0.00    -0.128 NA
ATOM     16  C   UNL     1       4.753   6.491   0.402  0.00  0.00    +0.027 C 
ATOM     17  C   UNL     1       4.927   7.819   0.986  0.00  0.00    +0.033 C 
BRANCH  11  18
ATOM     18  C   UNL     1       3.411   9.590   0.178  0.00  0.00    +0.100 C 
ATOM     19  C   UNL     1       2.012  10.159   0.794  0.00  0.00    +0.021 C 
BRANCH  18  21
ATOM     20  C   UNL     1       4.372  11.037   1.138  0.00  0.00    +0.107 C 
ATOM     21  N   UNL     1       4.234  10.608   1.030  0.00  0.00    -0.215 NA
ENDBRANCH  18  21
ENDBRANCH  11  18
ENDBRANCH  10  13
ENDBRANCH   1  10
BRANCH   7  22
ATOM     22  O   UNL     1      -0.063   6.435  -4.101  0.00  0.00    -0.327 OA
BRANCH  22  23
ATOM     23  C   UNL     1      -0.113   6.587  -5.603  0.00  0.00    +0.268 C 
ATOM     24  C   UNL     1       1.489   7.127  -5.986  0.00  0.00    +0.226 C 
ATOM     25  O   UNL     1       1.937   7.537  -4.635  0.00  0.00    -0.216 OA
ATOM     26  C   UNL     1       2.272   5.617  -5.903  0.00  0.00    +0.138 C 
ATOM     27  C   UNL     1       1.872   5.242  -7.436  0.00  0.00    +0.171 C 
ATOM     28  O   UNL     1       2.350   6.151  -8.297  0.00  0.00    -0.222 OA
ATOM     29  C   UNL     1       2.212   3.819  -7.671  0.00  0.00    +0.037 C 
ATOM     30  C   UNL     1       0.348   5.318  -7.367  0.00  0.00    +0.176 C 
ATOM     31  O   UNL     1       0.141   5.129  -5.989  0.00  0.00    -0.326 OA
BRANCH  26  32
ATOM     32  N   UNL     1       3.627   6.281  -6.290  0.00  0.00    -0.213 NA
ATOM     33  C   UNL     1       4.645   5.574  -5.557  0.00  0.00    +0.108 C 
ENDBRANCH  26  32
ENDBRANCH  22  23
ENDBRANCH   7  22
TORSDOF 7
ENDMDL
MODEL 3
REMARK VINA RESULT:      -6.4      2.631      6.326
REMARK  Name = 
REMARK  7 active torsions:
REMARK  status: ('A' for Active; 'I' for Inactive)
REMARK    1  A    between atoms: N_2  and  C_3
REMARK    2  A    between atoms: C_3  and  C_5
REMARK    3  A    between atoms: C_10  and  O_11
REMARK    4  A    between atoms: O_11  and  C_12
REMARK    5  A    between atoms: C_15  and  O_16
REMARK    6  A    between atoms: O_16  and  C_17
REMARK    7  A    between atoms: C_23  and  N_24
REMARK                            x       y       z     vdW  Elec       q    Type
REMARK                         _______ _______ _______ _____ _____    ______ ____
ROOT
ATOM      1  C   UNL     1       1.453   6.440  -6.080  0.00  0.00    +0.168 C 
ATOM      2  C   UNL     1       1.874   6.756  -7.696  0.00  0.00    +0.123 C 
ATOM      3  N   UNL     1       1.898   8.307  -7.592  0.00  0.00    -0.130 NA
ATOM      4  C   UNL     1       3.413   6.739  -7.120  0.00  0.00    +0.043 C 
ATOM      5  C   UNL     1       3.614   5.184  -7.510  0.00  0.00    +0.123 C 
ATOM      6  N   UNL     1       5.146   5.278  -7.245  0.00  0.00    -0.130 NA
ATOM      7  C   UNL     1       3.184   4.448  -6.017  0.00  0.00    +0.168 C 
ATOM      8  C   UNL     1       1.492   4.724  -6.210  0.00  0.00    +0.209 C 
ATOM      9  O   UNL     1       1.435   4.593  -7.698  0.00  0.00    -0.218 OA
ENDROOT
BRANCH   1  10
ATOM     10  O   UNL     1      -0.013   6.321  -6.152  0.00  0.00    -0.328 OA
BRANCH  10  13
ATOM     11  C   UNL     1      -1.528   7.323  -3.200  0.00  0.00    +0.134 C 
ATOM     12  O   UNL     1      -0.897   7.263  -4.549  0.00  0.00    -0.331 OA
ATOM     13  C   UNL     1      -0.623   5.811  -4.888  0.00  0.00    +0.253 C 
ATOM     14  C   UNL     1      -2.210   5.426  -5.496  0.00  0.00    +0.148 C 
ATOM     15  N   UNL     1      -2.029   5.846  -6.983  0.00  0.00    -0.128 NA
ATOM     16  C   UNL     1      -2.955   6.834  -5.181  0.00  0.00    +0.027 C 
ATOM     17  C   UNL     1      -2.982   6.769  -3.721  0.00  0.00    +0.033 C 
BRANCH  11  18
ATOM     18  C   UNL     1      -0.998   5.800  -2.620  0.00  0.00    +0.100 C 
ATOM     19  C   UNL     1       0.221   6.535  -1.826  0.00  0.00    +0.021 C 
BRANCH  18  21
ATOM     20  C   UNL     1      -2.049   5.653  -0.943  0.00  0.00    +0.107 C 
ATOM     21  N   UNL     1      -1.893   5.833  -1.341  0.00  0.00    -0.215 NA
ENDBRANCH  18  21
ENDBRANCH  11  18
ENDBRANCH  10  13
ENDBRANCH   1  10
BRANCH   7  22
ATOM     22  O   UNL     1       3.349   5.522  -5.045  0.00  0.00    -0.327 OA
BRANCH  22  23
ATOM     23  C   UNL     1       4.271   5.122  -3.916  0.00  0.00    +0.268 C 
ATOM     24  C   UNL     1       4.934   6.642  -3.409  0.00  0.00    +0.226 C 
ATOM     25  O   UNL     1       4.570   7.470  -4.582  0.00  0.00    -0.216 OA
ATOM     26  C   UNL     1       3.608   7.180  -2.486  0.00  0.00    +0.138 C 
ATOM     27  C   UNL     1       4.098   6.358  -1.168  0.00  0.00    +0.171 C 
ATOM     28  O   UNL     1       5.326   6.740  -0.788  0.00  0.00    -0.222 OA
ATOM     29  C   UNL     1       3.014   6.408  -0.159  0.00  0.00    +0.037 C 
ATOM     30  C   UNL     1       4.124   4.930  -1.708  0.00  0.00    +0.176 C 
ATOM     31  O   UNL     1       3.236   5.046  -2.793  0.00  0.00    -0.326 OA
BRANCH  26  32
ATOM     32  N   UNL     1       4.379   8.481  -2.110  0.00  0.00    -0.213 NA
ATOM     33  C   UNL     1       3.448   9.302  -1.380  0.00  0.00    +0.108 C 
ENDBRANCH  26  32
ENDBRANCH  22  23
ENDBRANCH   7  22
TORSDOF 7
ENDMDL
MODEL 4
REMARK VINA RESULT:      -6.3      2.861      6.451
REMARK  Name = 
REMARK  7 active torsions:
REMARK  status: ('A' for Active; 'I' for Inactive)
REMARK    1  A    between atoms: N_2  and  C_3
REMARK    2  A    between atoms: C_3  and  C_5
REMARK    3  A    between atoms: C_10  and  O_11
REMARK    4  A    between atoms: O_11  and  C_12
REMARK    5  A    between atoms: C_15  and  O_16
REMARK    6  A    between atoms: O_16  and  C_17
REMARK    7  A    between atoms: C_23  and  N_24
REMARK                            x       y       z     vdW  Elec       q    Type
REMARK                         _______ _______ _______ _____ _____    ______ ____
ROOT
ATOM      1  C   UNL     1       3.717   6.193  -4.585  0.00  0.00    +0.168 C 
ATOM      2  C   UNL     1       5.131   6.884  -3.944  0.00  0.00    +0.123 C 
ATOM      3  N   UNL     1       4.875   8.339  -4.428  0.00  0.00    -0.130 NA
ATOM      4  C   UNL     1       4.183   7.199  -2.640  0.00  0.00    +0.043 C 
ATOM      5  C   UNL     1       4.656   5.852  -1.884  0.00  0.00    +0.123 C 
ATOM      6  N   UNL     1       3.998   6.324  -0.553  0.00  0.00    -0.130 NA
ATOM      7  C   UNL     1       3.403   4.783  -2.375  0.00  0.00    +0.168 C 
ATOM      8  C   UNL     1       3.998   4.604  -3.985  0.00  0.00    +0.209 C 
ATOM      9  O   UNL     1       5.456   4.718  -3.675  0.00  0.00    -0.218 OA
ENDROOT
BRANCH   1  10
ATOM     10  O   UNL     1       4.175   5.683  -5.888  0.00  0.00    -0.328 OA
BRANCH  10  13
ATOM     11  C   UNL     1       1.738   7.029  -7.952  0.00  0.00    +0.134 C 
ATOM     12  O   UNL     1       2.895   6.814  -7.038  0.00  0.00    -0.331 OA
ATOM     13  C   UNL     1       3.054   5.324  -6.806  0.00  0.00    +0.253 C 
ATOM     14  C   UNL     1       3.984   4.978  -8.238  0.00  0.00    +0.148 C 
ATOM     15  N   UNL     1       5.415   5.253  -7.693  0.00  0.00    -0.128 NA
ATOM     16  C   UNL     1       3.954   6.448  -8.926  0.00  0.00    +0.027 C 
ATOM     17  C   UNL     1       2.540   6.515  -9.288  0.00  0.00    +0.033 C 
BRANCH  11  18
ATOM     18  C   UNL     1       0.941   5.535  -7.685  0.00  0.00    +0.100 C 
ATOM     19  C   UNL     1      -0.206   6.310  -6.822  0.00  0.00    +0.021 C 
BRANCH  18  21
ATOM     20  C   UNL     1      -0.276   5.480  -9.251  0.00  0.00    +0.107 C 
ATOM     21  N   UNL     1       0.070   5.623  -8.978  0.00  0.00    -0.215 NA
ENDBRANCH  18  21
ENDBRANCH  11  18
ENDBRANCH  10  13
ENDBRANCH   1  10
BRANCH   7  22
ATOM     22  O   UNL     1       2.322   5.679  -2.768  0.00  0.00    -0.327 OA
BRANCH  22  23
ATOM     23  C   UNL     1       1.036   4.929  -3.026  0.00  0.00    +0.268 C 
ATOM     24  C   UNL     1       0.260   4.960  -1.476  0.00  0.00    +0.226 C 
ATOM     25  O   UNL     1       1.416   5.343  -0.632  0.00  0.00    -0.216 OA
ATOM     26  C   UNL     1      -0.346   6.550  -1.549  0.00  0.00    +0.138 C 
ATOM     27  C   UNL     1      -1.674   6.085  -2.370  0.00  0.00    +0.171 C 
ATOM     28  O   UNL     1      -2.375   5.176  -1.679  0.00  0.00    -0.222 OA
ATOM     29  C   UNL     1      -2.382   7.300  -2.835  0.00  0.00    +0.037 C 
ATOM     30  C   UNL     1      -1.044   5.449  -3.607  0.00  0.00    +0.176 C 
ATOM     31  O   UNL     1       0.214   6.078  -3.611  0.00  0.00    -0.326 OA
BRANCH  26  32
ATOM     32  N   UNL     1      -1.005   6.380  -0.148  0.00  0.00    -0.213 NA
ATOM     33  C   UNL     1      -1.022   7.690   0.450  0.00  0.00    +0.108 C 
ENDBRANCH  26  32
ENDBRANCH  22  23
ENDBRANCH   7  22
TORSDOF 7
ENDMDL
MODEL 5
REMARK VINA RESULT:      -6.1      1.099      1.458
REMARK  Name = 
REMARK  7 active torsions:
REMARK  status: ('A' for Active; 'I' for Inactive)
REMARK    1  A    between atoms: N_2  and  C_3
REMARK    2  A    between atoms: C_3  and  C_5
REMARK    3  A    between atoms: C_10  and  O_11
REMARK    4  A    between atoms: O_11  and  C_12
REMARK    5  A    between atoms: C_15  and  O_16
REMARK    6  A    between atoms: O_16  and  C_17
REMARK    7  A    between atoms: C_23  and  N_24
REMARK                            x       y       z     vdW  Elec       q    Type
REMARK                         _______ _______ _______ _____ _____    ______ ____
ROOT
ATOM      1  C   UNL     1       3.095   7.072  -1.370  0.00  0.00    +0.168 C 
ATOM      2  C   UNL     1       4.694   6.505  -1.267  0.00  0.00    +0.123 C 
ATOM      3  N   UNL     1       4.540   5.723   0.067  0.00  0.00    -0.130 NA
ATOM      4  C   UNL     1       4.099   5.191  -2.054  0.00  0.00    +0.043 C 
ATOM      5  C   UNL     1       4.536   5.771  -3.497  0.00  0.00    +0.123 C 
ATOM      6  N   UNL     1       4.248   4.399  -4.176  0.00  0.00    -0.130 NA
ATOM      7  C   UNL     1       3.074   6.549  -3.957  0.00  0.00    +0.168 C 
ATOM      8  C   UNL     1       3.281   7.879  -2.879  0.00  0.00    +0.209 C 
ATOM      9  O   UNL     1       4.773   7.953  -2.932  0.00  0.00    -0.218 OA
ENDROOT
BRANCH   1  10
ATOM     10  O   UNL     1       3.191   8.404  -0.749  0.00  0.00    -0.328 OA
BRANCH  10  13
ATOM     11  C   UNL     1       1.258   8.074   2.108  0.00  0.00    +0.134 C 
ATOM     12  O   UNL     1       2.336   8.009   1.082  0.00  0.00    -0.331 OA
ATOM     13  C   UNL     1       1.917   8.847  -0.110  0.00  0.00    +0.253 C 
ATOM     14  C   UNL     1       2.451  10.387   0.507  0.00  0.00    +0.148 C 
ATOM     15  N   UNL     1       3.928  10.365   0.020  0.00  0.00    -0.128 NA
ATOM     16  C   UNL     1       2.924   9.920   1.989  0.00  0.00    +0.027 C 
ATOM     17  C   UNL     1       1.620   9.606   2.570  0.00  0.00    +0.033 C 
BRANCH  11  18
ATOM     18  C   UNL     1      -0.028   8.540   1.075  0.00  0.00    +0.100 C 
ATOM     19  C   UNL     1      -0.430   6.972   0.882  0.00  0.00    +0.021 C 
BRANCH  18  21
ATOM     20  C   UNL     1      -1.494   8.653   2.409  0.00  0.00    +0.107 C 
ATOM     21  N   UNL     1      -1.068   8.695   2.230  0.00  0.00    -0.215 NA
ENDBRANCH  18  21
ENDBRANCH  11  18
ENDBRANCH  10  13
ENDBRANCH   1  10
BRANCH   7  22
ATOM     22  O   UNL     1       2.065   5.903  -3.125  0.00  0.00    -0.327 OA
BRANCH  22  23
ATOM     23  C   UNL     1       1.264   4.884  -3.902  0.00  0.00    +0.268 C 
ATOM     24  C   UNL     1      -0.353   5.496  -3.777  0.00  0.00    +0.226 C 
ATOM     25  O   UNL     1      -0.166   6.454  -2.663  0.00  0.00    -0.216 OA
ATOM     26  C   UNL     1      -0.239   6.704  -4.973  0.00  0.00    +0.138 C 
ATOM     27  C   UNL     1      -0.571   5.652  -6.172  0.00  0.00    +0.171 C 
ATOM     28  O   UNL     1      -1.760   5.064  -5.984  0.00  0.00    -0.222 OA
ATOM     29  C   UNL     1      -0.330   6.332  -7.466  0.00  0.00    +0.037 C 
ATOM     30  C   UNL     1       0.561   4.642  -5.995  0.00  0.00    +0.176 C 
ATOM     31  O   UNL     1       1.506   5.428  -5.310  0.00  0.00    -0.326 OA
BRANCH  26  32
ATOM     32  N   UNL     1      -1.729   7.096  -4.741  0.00  0.00    -0.213 NA
ATOM     33  C   UNL     1      -1.747   8.526  -4.574  0.00  0.00    +0.108 C 
ENDBRANCH  26  32
ENDBRANCH  22  23
ENDBRANCH   7  22
TORSDOF 7
ENDMDL
MODEL 6
REMARK VINA RESULT:      -6.0      3.637      7.206
REMARK  Name = 
REMARK  7 active torsions:
REMARK  status: ('A' for Active; 'I' for Inactive)
REMARK    1  A    between atoms: N_2  and  C_3
REMARK    2  A    between atoms: C_3  and  C_5
REMARK    3  A    between atoms: C_10  and  O_11
REMARK    4  A    between atoms: O_11  and  C_12
REMARK    5  A    between atoms: C_15  and  O_16
REMARK    6  A    between atoms: O_16  and  C_17
REMARK    7  A    between atoms: C_23  and  N_24
REMARK                            x       y       z     vdW  Elec       q    Type
REMARK                         _______ _______ _______ _____ _____    ______ ____
ROOT
ATOM      1  C   UNL     1       3.619   6.110  -5.422  0.00  0.00    +0.168 C 
ATOM      2  C   UNL     1       4.900   6.577  -4.408  0.00  0.00    +0.123 C 
ATOM      3  N   UNL     1       5.031   8.040  -4.918  0.00  0.00    -0.130 NA
ATOM      4  C   UNL     1       3.697   7.082  -3.407  0.00  0.00    +0.043 C 
ATOM      5  C   UNL     1       3.716   5.698  -2.574  0.00  0.00    +0.123 C 
ATOM      6  N   UNL     1       2.808   6.310  -1.466  0.00  0.00    -0.130 NA
ATOM      7  C   UNL     1       2.485   4.835  -3.408  0.00  0.00    +0.168 C 
ATOM      8  C   UNL     1       3.458   4.515  -4.796  0.00  0.00    +0.209 C 
ATOM      9  O   UNL     1       4.774   4.395  -4.097  0.00  0.00    -0.218 OA
ENDROOT
BRANCH   1  10
ATOM     10  O   UNL     1       4.324   5.494  -6.559  0.00  0.00    -0.328 OA
BRANCH  10  13
ATOM     11  C   UNL     1       2.069   6.600  -8.946  0.00  0.00    +0.134 C 
ATOM     12  O   UNL     1       3.096   6.497  -7.873  0.00  0.00    -0.331 OA
ATOM     13  C   UNL     1       3.404   5.031  -7.640  0.00  0.00    +0.253 C 
ATOM     14  C   UNL     1       4.571   4.847  -8.921  0.00  0.00    +0.148 C 
ATOM     15  N   UNL     1       5.860   5.276  -8.163  0.00  0.00    -0.128 NA
ATOM     16  C   UNL     1       4.459   6.325  -9.585  0.00  0.00    +0.027 C 
ATOM     17  C   UNL     1       3.117   6.232 -10.154  0.00  0.00    +0.033 C 
BRANCH  11  18
ATOM     18  C   UNL     1       1.434   5.013  -8.823  0.00  0.00    +0.100 C 
ATOM     19  C   UNL     1       0.105   5.609  -8.091  0.00  0.00    +0.021 C 
BRANCH  18  21
ATOM     20  C   UNL     1       0.431   4.883 -10.531  0.00  0.00    +0.107 C 
ATOM     21  N   UNL     1       0.723   5.052 -10.213  0.00  0.00    -0.215 NA
ENDBRANCH  18  21
ENDBRANCH  11  18
ENDBRANCH  10  13
ENDBRANCH   1  10
BRANCH   7  22
ATOM     22  O   UNL     1       1.717   5.885  -4.066  0.00  0.00    -0.327 OA
BRANCH  22  23
ATOM     23  C   UNL     1       0.725   6.531  -3.126  0.00  0.00    +0.268 C 
ATOM     24  C   UNL     1      -0.388   7.296  -4.213  0.00  0.00    +0.226 C 
ATOM     25  O   UNL     1       0.420   7.259  -5.454  0.00  0.00    -0.216 OA
ATOM     26  C   UNL     1      -1.290   5.915  -4.635  0.00  0.00    +0.138 C 
ATOM     27  C   UNL     1      -2.247   6.049  -3.324  0.00  0.00    +0.171 C 
ATOM     28  O   UNL     1      -2.879   7.231  -3.305  0.00  0.00    -0.222 OA
ATOM     29  C   UNL     1      -3.071   4.821  -3.222  0.00  0.00    +0.037 C 
ATOM     30  C   UNL     1      -1.216   5.974  -2.200  0.00  0.00    +0.176 C 
ATOM     31  O   UNL     1      -0.162   5.314  -2.859  0.00  0.00    -0.326 OA
BRANCH  26  32
ATOM     32  N   UNL     1      -2.213   6.777  -5.546  0.00  0.00    -0.213 NA
ATOM     33  C   UNL     1      -2.807   5.868  -6.492  0.00  0.00    +0.108 C 
ENDBRANCH  26  32
ENDBRANCH  22  23
ENDBRANCH   7  22
TORSDOF 7
ENDMDL
MODEL 7
REMARK VINA RESULT:      -6.0      2.619      7.405
REMARK  Name = 
REMARK  7 active torsions:
REMARK  status: ('A' for Active; 'I' for Inactive)
REMARK    1  A    between atoms: N_2  and  C_3
REMARK    2  A    between atoms: C_3  and  C_5
REMARK    3  A    between atoms: C_10  and  O_11
REMARK    4  A    between atoms: O_11  and  C_12
REMARK    5  A    between atoms: C_15  and  O_16
REMARK    6  A    between atoms: O_16  and  C_17
REMARK    7  A    between atoms: C_23  and  N_24
REMARK                            x       y       z     vdW  Elec       q    Type
REMARK                         _______ _______ _______ _____ _____    ______ ____
ROOT
ATOM      1  C   UNL     1      -0.387   6.212  -4.330  0.00  0.00    +0.168 C 
ATOM      2  C   UNL     1      -1.635   6.156  -5.483  0.00  0.00    +0.123 C 
ATOM      3  N   UNL     1      -1.361   4.715  -5.999  0.00  0.00    -0.130 NA
ATOM      4  C   UNL     1      -2.510   5.502  -4.256  0.00  0.00    +0.043 C 
ATOM      5  C   UNL     1      -3.132   6.935  -3.844  0.00  0.00    +0.123 C 
ATOM      6  N   UNL     1      -4.170   6.255  -2.903  0.00  0.00    -0.130 NA
ATOM      7  C   UNL     1      -2.014   7.404  -2.626  0.00  0.00    +0.168 C 
ATOM      8  C   UNL     1      -0.752   7.787  -3.739  0.00  0.00    +0.209 C 
ATOM      9  O   UNL     1      -1.612   8.274  -4.860  0.00  0.00    -0.218 OA
ENDROOT
BRANCH   1  10
ATOM     10  O   UNL     1       0.709   6.847  -5.080  0.00  0.00    -0.328 OA
BRANCH  10  13
ATOM     11  C   UNL     1       2.728   6.496  -7.875  0.00  0.00    +0.134 C 
ATOM     12  O   UNL     1       1.860   7.012  -6.780  0.00  0.00    -0.331 OA
ATOM     13  C   UNL     1       1.550   5.869  -5.832  0.00  0.00    +0.253 C 
ATOM     14  C   UNL     1       3.003   5.977  -4.877  0.00  0.00    +0.148 C 
ATOM     15  N   UNL     1       2.544   7.024  -3.822  0.00  0.00    -0.128 NA
ATOM     16  C   UNL     1       3.773   7.140  -5.709  0.00  0.00    +0.027 C 
ATOM     17  C   UNL     1       4.069   6.402  -6.935  0.00  0.00    +0.033 C 
BRANCH  11  18
ATOM     18  C   UNL     1       2.337   4.834  -7.727  0.00  0.00    +0.100 C 
ATOM     19  C   UNL     1       1.233   4.996  -8.917  0.00  0.00    +0.021 C 
BRANCH  18  21
ATOM     20  C   UNL     1       3.630   4.032  -9.002  0.00  0.00    +0.107 C 
ATOM     21  N   UNL     1       3.415   4.358  -8.752  0.00  0.00    -0.215 NA
ENDBRANCH  18  21
ENDBRANCH  11  18
ENDBRANCH  10  13
ENDBRANCH   1  10
BRANCH   7  22
ATOM     22  O   UNL     1      -1.405   6.144  -2.216  0.00  0.00    -0.327 OA
BRANCH  22  23
ATOM     23  C   UNL     1      -1.514   5.926  -0.725  0.00  0.00    +0.268 C 
ATOM     24  C   UNL     1       0.141   5.721  -0.248  0.00  0.00    +0.226 C 
ATOM     25  O   UNL     1       0.747   5.469  -1.576  0.00  0.00    -0.216 OA
ATOM     26  C   UNL     1       0.588   7.364  -0.239  0.00  0.00    +0.138 C 
ATOM     27  C   UNL     1       0.025   7.585   1.272  0.00  0.00    +0.171 C 
ATOM     28  O   UNL     1       0.632   6.764   2.140  0.00  0.00    -0.222 OA
ATOM     29  C   UNL     1       0.040   9.038   1.566  0.00  0.00    +0.037 C 
ATOM     30  C   UNL     1      -1.441   7.193   1.099  0.00  0.00    +0.176 C 
ATOM     31  O   UNL     1      -1.600   7.388  -0.286  0.00  0.00    -0.326 OA
BRANCH  26  32
ATOM     32  N   UNL     1       2.027   6.986   0.222  0.00  0.00    -0.213 NA
ATOM     33  C   UNL     1       2.901   7.991  -0.325  0.00  0.00    +0.108 C 
ENDBRANCH  26  32
ENDBRANCH  22  23
ENDBRANCH   7  22
TORSDOF 7
ENDMDL
MODEL 8
REMARK VINA RESULT:      -5.8      4.189      8.167
REMARK  Name = 
REMARK  7 active torsions:
REMARK  status: ('A' for Active; 'I' for Inactive)
REMARK    1  A    between atoms: N_2  and  C_3
REMARK    2  A    between atoms: C_3  and  C_5
REMARK    3  A    between atoms: C_10  and  O_11
REMARK    4  A    between atoms: O_11  and  C_12
REMARK    5  A    between atoms: C_15  and  O_16
REMARK    6  A    between atoms: O_16  and  C_17
REMARK    7  A    between atoms: C_23  and  N_24
REMARK                            x       y       z     vdW  Elec       q    Type
REMARK                         _______ _______ _______ _____ _____    ______ ____
ROOT
ATOM      1  C   UNL     1       2.782   5.911  -6.290  0.00  0.00    +0.168 C 
ATOM      2  C   UNL     1       4.309   5.309  -5.851  0.00  0.00    +0.123 C 
ATOM      3  N   UNL     1       5.139   6.554  -6.271  0.00  0.00    -0.130 NA
ATOM      4  C   UNL     1       4.002   6.052  -4.418  0.00  0.00    +0.043 C 
ATOM      5  C   UNL     1       3.423   4.696  -3.759  0.00  0.00    +0.123 C 
ATOM      6  N   UNL     1       3.431   5.338  -2.340  0.00  0.00    -0.130 NA
ATOM      7  C   UNL     1       1.747   4.904  -4.079  0.00  0.00    +0.168 C 
ATOM      8  C   UNL     1       1.883   4.542  -5.761  0.00  0.00    +0.209 C 
ATOM      9  O   UNL     1       2.993   3.546  -5.664  0.00  0.00    -0.218 OA
ENDROOT
BRANCH   1  10
ATOM     10  O   UNL     1       2.612   5.382  -7.653  0.00  0.00    -0.328 OA
BRANCH  10  13
ATOM     11  C   UNL     1       4.316   5.209 -10.666  0.00  0.00    +0.134 C 
ATOM     12  O   UNL     1       3.536   4.911  -9.432  0.00  0.00    -0.331 OA
ATOM     13  C   UNL     1       3.286   6.212  -8.694  0.00  0.00    +0.253 C 
ATOM     14  C   UNL     1       1.877   6.705  -9.594  0.00  0.00    +0.148 C 
ATOM     15  N   UNL     1       0.775   5.983  -8.768  0.00  0.00    -0.128 NA
ATOM     16  C   UNL     1       1.845   5.514 -10.696  0.00  0.00    +0.027 C 
ATOM     17  C   UNL     1       3.039   5.863 -11.463  0.00  0.00    +0.033 C 
BRANCH  11  18
ATOM     18  C   UNL     1       4.965   6.719 -10.179  0.00  0.00    +0.100 C 
ATOM     19  C   UNL     1       6.256   5.951  -9.545  0.00  0.00    +0.021 C 
BRANCH  18  21
ATOM     20  C   UNL     1       5.926   7.241 -11.836  0.00  0.00    +0.107 C 
ATOM     21  N   UNL     1       5.731   6.965 -11.518  0.00  0.00    -0.215 NA
ENDBRANCH  18  21
ENDBRANCH  11  18
ENDBRANCH  10  13
ENDBRANCH   1  10
BRANCH   7  22
ATOM     22  O   UNL     1       1.616   6.340  -4.298  0.00  0.00    -0.327 OA
BRANCH  22  23
ATOM     23  C   UNL     1       0.619   6.964  -3.350  0.00  0.00    +0.268 C 
ATOM     24  C   UNL     1      -0.627   7.521  -4.420  0.00  0.00    +0.226 C 
ATOM     25  O   UNL     1       0.108   7.456  -5.704  0.00  0.00    -0.216 OA
ATOM     26  C   UNL     1      -1.406   6.027  -4.670  0.00  0.00    +0.138 C 
ATOM     27  C   UNL     1      -2.295   6.180  -3.314  0.00  0.00    +0.171 C 
ATOM     28  O   UNL     1      -3.042   7.292  -3.349  0.00  0.00    -0.222 OA
ATOM     29  C   UNL     1      -2.981   4.891  -3.060  0.00  0.00    +0.037 C 
ATOM     30  C   UNL     1      -1.199   6.303  -2.258  0.00  0.00    +0.176 C 
ATOM     31  O   UNL     1      -0.122   5.695  -2.929  0.00  0.00    -0.326 OA
BRANCH  26  32
ATOM     32  N   UNL     1      -2.462   6.713  -5.586  0.00  0.00    -0.213 NA
ATOM     33  C   UNL     1      -2.747   5.777  -6.642  0.00  0.00    +0.108 C 
ENDBRANCH  26  32
ENDBRANCH  22  23
ENDBRANCH   7  22
TORSDOF 7
ENDMDL
MODEL 9
REMARK VINA RESULT:      -5.8      2.317      6.857
REMARK  Name = 
REMARK  7 active torsions:
REMARK  status: ('A' for Active; 'I' for Inactive)
REMARK    1  A    between atoms: N_2  and  C_3
REMARK    2  A    between atoms: C_3  and  C_5
REMARK    3  A    between atoms: C_10  and  O_11
REMARK    4  A    between atoms: O_11  and  C_12
REMARK    5  A    between atoms: C_15  and  O_16
REMARK    6  A    between atoms: O_16  and  C_17
REMARK    7  A    between atoms: C_23  and  N_24
REMARK                            x       y       z     vdW  Elec       q    Type
REMARK                         _______ _______ _______ _____ _____    ______ ____
ROOT
ATOM      1  C   UNL     1      -0.412   6.391  -4.657  0.00  0.00    +0.168 C 
ATOM      2  C   UNL     1      -1.731   6.113  -5.692  0.00  0.00    +0.123 C 
ATOM      3  N   UNL     1      -1.298   4.705  -6.189  0.00  0.00    -0.130 NA
ATOM      4  C   UNL     1      -2.396   5.393  -4.373  0.00  0.00    +0.043 C 
ATOM      5  C   UNL     1      -3.182   6.740  -3.949  0.00  0.00    +0.123 C 
ATOM      6  N   UNL     1      -4.027   5.960  -2.899  0.00  0.00    -0.130 NA
ATOM      7  C   UNL     1      -2.043   7.412  -2.850  0.00  0.00    +0.168 C 
ATOM      8  C   UNL     1      -0.948   7.922  -4.081  0.00  0.00    +0.209 C 
ATOM      9  O   UNL     1      -1.961   8.236  -5.135  0.00  0.00    -0.218 OA
ENDROOT
BRANCH   1  10
ATOM     10  O   UNL     1       0.514   7.143  -5.521  0.00  0.00    -0.328 OA
BRANCH  10  13
ATOM     11  C   UNL     1       2.879   4.629  -5.207  0.00  0.00    +0.134 C 
ATOM     12  O   UNL     1       1.645   5.423  -5.463  0.00  0.00    -0.331 OA
ATOM     13  C   UNL     1       1.950   6.886  -5.206  0.00  0.00    +0.253 C 
ATOM     14  C   UNL     1       2.634   7.244  -6.768  0.00  0.00    +0.148 C 
ATOM     15  N   UNL     1       1.336   7.614  -7.541  0.00  0.00    -0.128 NA
ATOM     16  C   UNL     1       2.603   5.753  -7.411  0.00  0.00    +0.027 C 
ATOM     17  C   UNL     1       3.625   5.114  -6.586  0.00  0.00    +0.033 C 
BRANCH  11  18
ATOM     18  C   UNL     1       3.688   5.761  -4.205  0.00  0.00    +0.100 C 
ATOM     19  C   UNL     1       3.189   4.940  -2.888  0.00  0.00    +0.021 C 
BRANCH  18  21
ATOM     20  C   UNL     1       5.460   4.884  -4.031  0.00  0.00    +0.107 C 
ATOM     21  N   UNL     1       5.045   4.988  -4.210  0.00  0.00    -0.215 NA
ENDBRANCH  18  21
ENDBRANCH  11  18
ENDBRANCH  10  13
ENDBRANCH   1  10
BRANCH   7  22
ATOM     22  O   UNL     1      -1.227   6.268  -2.460  0.00  0.00    -0.327 OA
BRANCH  22  23
ATOM     23  C   UNL     1      -1.455   5.880  -1.017  0.00  0.00    +0.268 C 
ATOM     24  C   UNL     1       0.152   5.881  -0.364  0.00  0.00    +0.226 C 
ATOM     25  O   UNL     1       0.927   5.866  -1.627  0.00  0.00    -0.216 OA
ATOM     26  C   UNL     1       0.320   7.564  -0.159  0.00  0.00    +0.138 C 
ATOM     27  C   UNL     1      -0.427   7.536   1.288  0.00  0.00    +0.171 C 
ATOM     28  O   UNL     1       0.212   6.730   2.147  0.00  0.00    -0.222 OA
ATOM     29  C   UNL     1      -0.682   8.934   1.707  0.00  0.00    +0.037 C 
ATOM     30  C   UNL     1      -1.782   6.944   0.905  0.00  0.00    +0.176 C 
ATOM     31  O   UNL     1      -1.825   7.258  -0.466  0.00  0.00    -0.326 OA
BRANCH  26  32
ATOM     32  N   UNL     1       1.745   7.363   0.438  0.00  0.00    -0.213 NA
ATOM     33  C   UNL     1       2.500   8.535   0.076  0.00  0.00    +0.108 C 
ENDBRANCH  26  32
ENDBRANCH  22  23
ENDBRANCH   7  22
TORSDOF 7
ENDMDL
