MODEL 1
REMARK VINA RESULT:     -10.1      0.000      0.000
REMARK  Name = 
REMARK  8 active torsions:
REMARK  status: ('A' for Active; 'I' for Inactive)
REMARK    1  A    between atoms: O_2  and  C_3
REMARK    2  A    between atoms: C_7  and  O_8
REMARK    3  A    between atoms: O_8  and  C_9
REMARK    4  A    between atoms: C_15  and  C_16
REMARK    5  A    between atoms: N_18  and  S_19
REMARK    6  A    between atoms: S_19  and  C_22
REMARK    7  A    between atoms: C_40  and  C_41
REMARK    8  A    between atoms: C_43  and  C_44
REMARK                            x       y       z     vdW  Elec       q    Type
REMARK                         _______ _______ _______ _____ _____    ______ ____
ROOT
ATOM      1  C   UNL     1       3.666   6.301  -4.407  0.00  0.00    +0.167 C 
ATOM      2  C   UNL     1       2.060   6.425  -4.257  0.00  0.00    +0.053 C 
ATOM      3  C   UNL     1       1.553   5.838  -5.670  0.00  0.00    +0.089 C 
ATOM      4  C   UNL     1       2.850   6.329  -6.678  0.00  0.00    +0.090 C 
ATOM      5  C   UNL     1       3.811   5.070  -6.368  0.00  0.00    +0.242 C 
ATOM      6  N   UNL     1       4.232   4.617  -7.661  0.00  0.00    -0.200 NA
ATOM      7  C   UNL     1       4.479   5.293  -8.821  0.00  0.00    +0.154 C 
ATOM      8  C   UNL     1       3.524   4.697 -10.036  0.00  0.00    +0.051 C 
ATOM      9  C   UNL     1       2.433   3.974  -9.037  0.00  0.00    -0.029 C 
ATOM     10  C   UNL     1       1.234   4.082  -9.588  0.00  0.00    -0.031 C 
ATOM     11  C   UNL     1       0.815   5.499  -9.855  0.00  0.00    +0.026 C 
ATOM     12  C   UNL     1      -0.298   5.917  -8.922  0.00  0.00    +0.006 C 
ATOM     13  C   UNL     1      -0.113   5.212  -7.609  0.00  0.00    +0.022 C 
ATOM     14  C   UNL     1      -1.127   5.625  -6.574  0.00  0.00    +0.093 C 
ATOM     15  N   UNL     1      -0.674   6.796  -5.828  0.00  0.00    -0.278 N 
ATOM     16  C   UNL     1      -1.644   7.682  -5.194  0.00  0.00    +0.115 C 
ATOM     17  C   UNL     1       3.248   6.214  -9.416  0.00  0.00    +0.036 C 
ATOM     18  O   UNL     1       3.363   4.148  -5.665  0.00  0.00    -0.273 OA
ATOM     19  C   UNL     1       0.699   7.150  -6.044  0.00  0.00    +0.226 C 
ATOM     20  O   UNL     1       1.093   8.244  -5.640  0.00  0.00    -0.275 OA
ATOM     21  C   UNL     1       3.516   7.372  -5.627  0.00  0.00    +0.053 C 
ENDROOT
BRANCH   7  22
ATOM     22  C   UNL     1       5.770   5.786  -9.285  0.00  0.00    +0.280 C 
ATOM     23  N   UNL     1       5.671   6.499 -10.522  0.00  0.00    -0.062 NA
ATOM     24  O   UNL     1       6.904   5.400  -8.980  0.00  0.00    -0.270 OA
BRANCH  23  25
ATOM     25  S   UNL     1       6.928   7.420 -11.208  0.00  0.00    +0.074 S 
ATOM     26  O   UNL     1       6.338   8.718 -11.702  0.00  0.00    -0.153 OA
ATOM     27  O   UNL     1       7.900   7.730 -10.094  0.00  0.00    -0.153 OA
BRANCH  25  28
ATOM     28  C   UNL     1       7.774   6.597 -12.522  0.00  0.00    +0.151 C 
ATOM     29  C   UNL     1       7.694   5.097 -12.438  0.00  0.00    +0.027 C 
ATOM     30  C   UNL     1       9.036   5.805 -12.160  0.00  0.00    +0.027 C 
ENDBRANCH  25  28
ENDBRANCH  23  25
ENDBRANCH   7  22
BRANCH   1  31
ATOM     31  O   UNL     1       3.913   7.429  -3.389  0.00  0.00    -0.479 OA
BRANCH  31  37
ATOM     32  C   UNL     1       3.442   9.923   0.938  0.00  0.00    +0.136 A 
ATOM     33  C   UNL     1       3.621   8.552   1.136  0.00  0.00    +0.030 A 
ATOM     34  C   UNL     1       3.440   7.982   2.511  0.00  0.00    +0.036 C 
ATOM     35  C   UNL     1       3.380   7.634   0.122  0.00  0.00    +0.083 A 
ATOM     36  C   UNL     1       3.640   8.110  -1.157  0.00  0.00    +0.052 A 
ATOM     37  C   UNL     1       3.249   7.262  -2.186  0.00  0.00    +0.141 A 
ATOM     38  C   UNL     1       2.207   6.355  -2.005  0.00  0.00    +0.058 A 
ATOM     39  C   UNL     1       1.758   6.104  -0.708  0.00  0.00    +0.108 A 
ATOM     40  C   UNL     1       3.838   9.455  -1.415  0.00  0.00    +0.008 A 
ATOM     41  N   UNL     1       2.639   6.506   0.252  0.00  0.00    -0.243 NA
ATOM     42  C   UNL     1       3.601  10.351  -0.377  0.00  0.00    +0.037 A 
BRANCH  39  43
ATOM     43  C   UNL     1       0.311   5.986  -0.417  0.00  0.00    +0.128 A 
ATOM     44  S   UNL     1      -0.484   7.047   0.672  0.00  0.00    -0.065 S 
ATOM     45  C   UNL     1      -2.020   7.050  -0.098  0.00  0.00    +0.052 A 
ATOM     46  C   UNL     1      -1.819   6.145  -1.123  0.00  0.00    +0.066 A 
ATOM     47  N   UNL     1      -0.658   5.582  -1.191  0.00  0.00    -0.241 NA
BRANCH  46  48
ATOM     48  C   UNL     1      -2.935   5.636  -1.991  0.00  0.00    +0.041 C 
ATOM     49  C   UNL     1      -3.795   6.789  -2.392  0.00  0.00    +0.006 C 
ATOM     50  C   UNL     1      -2.366   4.922  -3.190  0.00  0.00    +0.006 C 
ENDBRANCH  46  48
ENDBRANCH  39  43
BRANCH  32  52
ATOM     51  C   UNL     1       2.771  11.360   2.536  0.00  0.00    +0.252 C 
ATOM     52  O   UNL     1       2.712  10.701   1.845  0.00  0.00    -0.472 OA
ENDBRANCH  32  52
ENDBRANCH  31  37
ENDBRANCH   1  31
TORSDOF 8
ENDMDL
MODEL 2
REMARK VINA RESULT:      -8.1      4.105     12.101
REMARK  Name = 
REMARK  8 active torsions:
REMARK  status: ('A' for Active; 'I' for Inactive)
REMARK    1  A    between atoms: O_2  and  C_3
REMARK    2  A    between atoms: C_7  and  O_8
REMARK    3  A    between atoms: O_8  and  C_9
REMARK    4  A    between atoms: C_15  and  C_16
REMARK    5  A    between atoms: N_18  and  S_19
REMARK    6  A    between atoms: S_19  and  C_22
REMARK    7  A    between atoms: C_40  and  C_41
REMARK    8  A    between atoms: C_43  and  C_44
REMARK                            x       y       z     vdW  Elec       q    Type
REMARK                         _______ _______ _______ _____ _____    ______ ____
ROOT
ATOM      1  C   UNL     1       0.722   5.970 -11.135  0.00  0.00    +0.167 C 
ATOM      2  C   UNL     1       2.324   6.083 -11.330  0.00  0.00    +0.053 C 
ATOM      3  C   UNL     1       2.864   5.571  -9.899  0.00  0.00    +0.089 C 
ATOM      4  C   UNL     1       1.592   6.118  -8.888  0.00  0.00    +0.090 C 
ATOM      5  C   UNL     1       0.623   4.846  -9.108  0.00  0.00    +0.242 C 
ATOM      6  N   UNL     1       0.232   4.463  -7.783  0.00  0.00    -0.200 NA
ATOM      7  C   UNL     1       0.013   5.200  -6.655  0.00  0.00    +0.154 C 
ATOM      8  C   UNL     1       0.996   4.669  -5.433  0.00  0.00    +0.051 C 
ATOM      9  C   UNL     1       2.063   3.891  -6.418  0.00  0.00    -0.029 C 
ATOM     10  C   UNL     1       3.274   4.026  -5.902  0.00  0.00    -0.031 C 
ATOM     11  C   UNL     1       3.701   5.454  -5.721  0.00  0.00    +0.026 C 
ATOM     12  C   UNL     1       4.791   5.820  -6.701  0.00  0.00    +0.006 C 
ATOM     13  C   UNL     1       4.574   5.047  -7.970  0.00  0.00    +0.022 C 
ATOM     14  C   UNL     1       5.564   5.402  -9.049  0.00  0.00    +0.093 C 
ATOM     15  N   UNL     1       5.094   6.533  -9.846  0.00  0.00    -0.278 N 
ATOM     16  C   UNL     1       6.050   7.381 -10.549  0.00  0.00    +0.115 C 
ATOM     17  C   UNL     1       1.258   6.149  -6.140  0.00  0.00    +0.036 C 
ATOM     18  O   UNL     1       1.053   3.887  -9.771  0.00  0.00    -0.273 OA
ATOM     19  C   UNL     1       3.727   6.900  -9.616  0.00  0.00    +0.226 C 
ATOM     20  O   UNL     1       3.324   7.972 -10.068  0.00  0.00    -0.275 OA
ATOM     21  C   UNL     1       0.901   7.105  -9.978  0.00  0.00    +0.053 C 
ENDROOT
BRANCH   7  22
ATOM     22  C   UNL     1      -1.266   5.720  -6.188  0.00  0.00    +0.280 C 
ATOM     23  N   UNL     1      -1.118   6.649  -5.109  0.00  0.00    -0.062 NA
ATOM     24  O   UNL     1      -2.397   5.243  -6.330  0.00  0.00    -0.270 OA
BRANCH  23  25
ATOM     25  S   UNL     1      -2.371   7.631  -4.503  0.00  0.00    +0.074 S 
ATOM     26  O   UNL     1      -1.764   8.941  -4.065  0.00  0.00    -0.153 OA
ATOM     27  O   UNL     1      -3.311   7.900  -5.655  0.00  0.00    -0.153 OA
BRANCH  25  28
ATOM     28  C   UNL     1      -3.262   6.898  -3.167  0.00  0.00    +0.151 C 
ATOM     29  C   UNL     1      -2.506   6.907  -1.866  0.00  0.00    +0.027 C 
ATOM     30  C   UNL     1      -2.729   5.572  -2.608  0.00  0.00    +0.027 C 
ENDBRANCH  25  28
ENDBRANCH  23  25
ENDBRANCH   7  22
BRANCH   1  31
ATOM     31  O   UNL     1       0.451   7.043 -12.206  0.00  0.00    -0.479 OA
BRANCH  31  37
ATOM     32  C   UNL     1       1.194   9.622 -16.444  0.00  0.00    +0.136 A 
ATOM     33  C   UNL     1       1.347   8.246 -16.630  0.00  0.00    +0.030 A 
ATOM     34  C   UNL     1       1.899   7.741 -17.929  0.00  0.00    +0.036 C 
ATOM     35  C   UNL     1       1.580   7.390 -15.561  0.00  0.00    +0.083 A 
ATOM     36  C   UNL     1       0.990   7.788 -14.367  0.00  0.00    +0.052 A 
ATOM     37  C   UNL     1       1.350   7.032 -13.259  0.00  0.00    +0.141 A 
ATOM     38  C   UNL     1       2.574   6.369 -13.215  0.00  0.00    +0.058 A 
ATOM     39  C   UNL     1       3.301   6.231 -14.397  0.00  0.00    +0.108 A 
ATOM     40  C   UNL     1       0.470   9.058 -14.193  0.00  0.00    +0.008 A 
ATOM     41  N   UNL     1       2.552   6.446 -15.516  0.00  0.00    -0.243 NA
ATOM     42  C   UNL     1       0.704   9.994 -15.195  0.00  0.00    +0.037 A 
BRANCH  39  43
ATOM     43  C   UNL     1       4.769   6.425 -14.410  0.00  0.00    +0.128 A 
ATOM     44  S   UNL     1       5.828   5.391 -13.545  0.00  0.00    -0.065 S 
ATOM     45  C   UNL     1       7.166   5.490 -14.616  0.00  0.00    +0.052 A 
ATOM     46  C   UNL     1       6.709   6.403 -15.548  0.00  0.00    +0.066 A 
ATOM     47  N   UNL     1       5.532   6.900 -15.355  0.00  0.00    -0.241 NA
BRANCH  46  48
ATOM     48  C   UNL     1       7.590   6.992 -16.613  0.00  0.00    +0.041 C 
ATOM     49  C   UNL     1       7.563   6.097 -17.808  0.00  0.00    +0.006 C 
ATOM     50  C   UNL     1       7.125   8.386 -16.950  0.00  0.00    +0.006 C 
ENDBRANCH  46  48
ENDBRANCH  39  43
BRANCH  32  52
ATOM     51  C   UNL     1       1.829  11.217 -17.900  0.00  0.00    +0.252 C 
ATOM     52  O   UNL     1       1.902  10.545 -17.222  0.00  0.00    -0.472 OA
ENDBRANCH  32  52
ENDBRANCH  31  37
ENDBRANCH   1  31
TORSDOF 8
ENDMDL
MODEL 3
REMARK VINA RESULT:      -7.6      3.089      7.584
REMARK  Name = 
REMARK  8 active torsions:
REMARK  status: ('A' for Active; 'I' for Inactive)
REMARK    1  A    between atoms: O_2  and  C_3
REMARK    2  A    between atoms: C_7  and  O_8
REMARK    3  A    between atoms: O_8  and  C_9
REMARK    4  A    between atoms: C_15  and  C_16
REMARK    5  A    between atoms: N_18  and  S_19
REMARK    6  A    between atoms: S_19  and  C_22
REMARK    7  A    between atoms: C_40  and  C_41
REMARK    8  A    between atoms: C_43  and  C_44
REMARK                            x       y       z     vdW  Elec       q    Type
REMARK                         _______ _______ _______ _____ _____    ______ ____
ROOT
ATOM      1  C   UNL     1       3.123   7.664  -4.030  0.00  0.00    +0.167 C 
ATOM      2  C   UNL     1       4.234   7.264  -5.136  0.00  0.00    +0.053 C 
ATOM      3  C   UNL     1       3.312   6.753  -6.356  0.00  0.00    +0.089 C 
ATOM      4  C   UNL     1       1.994   6.096  -5.477  0.00  0.00    +0.090 C 
ATOM      5  C   UNL     1       1.186   7.481  -5.294  0.00  0.00    +0.242 C 
ATOM      6  N   UNL     1      -0.155   7.166  -5.689  0.00  0.00    -0.200 NA
ATOM      7  C   UNL     1      -0.888   6.020  -5.571  0.00  0.00    +0.154 C 
ATOM      8  C   UNL     1      -1.404   5.523  -7.064  0.00  0.00    +0.051 C 
ATOM      9  C   UNL     1      -0.300   6.404  -7.912  0.00  0.00    -0.029 C 
ATOM     10  C   UNL     1       0.060   5.700  -8.975  0.00  0.00    -0.031 C 
ATOM     11  C   UNL     1       0.632   4.352  -8.644  0.00  0.00    +0.026 C 
ATOM     12  C   UNL     1       2.117   4.312  -8.929  0.00  0.00    +0.006 C 
ATOM     13  C   UNL     1       2.690   5.676  -8.675  0.00  0.00    +0.022 C 
ATOM     14  C   UNL     1       4.186   5.725  -8.850  0.00  0.00    +0.093 C 
ATOM     15  N   UNL     1       4.875   5.379  -7.609  0.00  0.00    -0.278 N 
ATOM     16  C   UNL     1       6.229   4.838  -7.648  0.00  0.00    +0.115 C 
ATOM     17  C   UNL     1      -0.246   4.660  -6.244  0.00  0.00    +0.036 C 
ATOM     18  O   UNL     1       1.622   8.496  -5.864  0.00  0.00    -0.273 OA
ATOM     19  C   UNL     1       4.029   5.315  -6.452  0.00  0.00    +0.226 C 
ATOM     20  O   UNL     1       4.480   4.811  -5.424  0.00  0.00    -0.275 OA
ATOM     21  C   UNL     1       2.727   6.082  -4.028  0.00  0.00    +0.053 C 
ENDROOT
BRANCH   7  22
ATOM     22  C   UNL     1      -1.811   5.683  -4.495  0.00  0.00    +0.280 C 
ATOM     23  N   UNL     1      -1.449   6.294  -3.252  0.00  0.00    -0.062 NA
ATOM     24  O   UNL     1      -2.595   4.730  -4.413  0.00  0.00    -0.270 OA
BRANCH  23  25
ATOM     25  S   UNL     1      -2.438   6.322  -1.866  0.00  0.00    +0.074 S 
ATOM     26  O   UNL     1      -3.839   6.673  -2.302  0.00  0.00    -0.153 OA
ATOM     27  O   UNL     1      -2.448   4.918  -1.308  0.00  0.00    -0.153 OA
BRANCH  25  28
ATOM     28  C   UNL     1      -1.886   7.451  -0.625  0.00  0.00    +0.151 C 
ATOM     29  C   UNL     1      -0.553   7.082  -0.031  0.00  0.00    +0.027 C 
ATOM     30  C   UNL     1      -1.832   6.937   0.820  0.00  0.00    +0.027 C 
ENDBRANCH  25  28
ENDBRANCH  23  25
ENDBRANCH   7  22
BRANCH   1  31
ATOM     31  O   UNL     1       4.113   7.462  -2.868  0.00  0.00    -0.479 OA
BRANCH  31  37
ATOM     32  C   UNL     1       4.766   7.255   2.101  0.00  0.00    +0.136 A 
ATOM     33  C   UNL     1       3.524   7.790   1.754  0.00  0.00    +0.030 A 
ATOM     34  C   UNL     1       2.672   8.411   2.820  0.00  0.00    +0.036 C 
ATOM     35  C   UNL     1       3.283   8.304   0.486  0.00  0.00    +0.083 A 
ATOM     36  C   UNL     1       3.988   7.674  -0.532  0.00  0.00    +0.052 A 
ATOM     37  C   UNL     1       3.881   8.281  -1.777  0.00  0.00    +0.141 A 
ATOM     38  C   UNL     1       3.620   9.646  -1.885  0.00  0.00    +0.058 A 
ATOM     39  C   UNL     1       3.181  10.332  -0.753  0.00  0.00    +0.108 A 
ATOM     40  C   UNL     1       5.043   6.817  -0.275  0.00  0.00    +0.008 A 
ATOM     41  N   UNL     1       2.715   9.508   0.228  0.00  0.00    -0.243 NA
ATOM     42  C   UNL     1       5.497   6.731   1.037  0.00  0.00    +0.037 A 
BRANCH  39  43
ATOM     43  C   UNL     1       3.705  11.680  -0.435  0.00  0.00    +0.128 A 
ATOM     44  S   UNL     1       4.756  11.954   0.893  0.00  0.00    -0.065 S 
ATOM     45  C   UNL     1       5.652  13.250   0.209  0.00  0.00    +0.052 A 
ATOM     46  C   UNL     1       5.002  13.430  -0.998  0.00  0.00    +0.066 A 
ATOM     47  N   UNL     1       3.985  12.670  -1.237  0.00  0.00    -0.241 NA
BRANCH  46  48
ATOM     48  C   UNL     1       5.282  14.592  -1.909  0.00  0.00    +0.041 C 
ATOM     49  C   UNL     1       6.016  15.640  -1.139  0.00  0.00    +0.006 C 
ATOM     50  C   UNL     1       6.070  14.125  -3.107  0.00  0.00    +0.006 C 
ENDBRANCH  46  48
ENDBRANCH  39  43
BRANCH  32  52
ATOM     51  C   UNL     1       6.271   7.802   3.684  0.00  0.00    +0.252 C 
ATOM     52  O   UNL     1       5.420   7.635   3.280  0.00  0.00    -0.472 OA
ENDBRANCH  32  52
ENDBRANCH  31  37
ENDBRANCH   1  31
TORSDOF 8
ENDMDL
MODEL 4
REMARK VINA RESULT:      -7.3      2.756      9.882
REMARK  Name = 
REMARK  8 active torsions:
REMARK  status: ('A' for Active; 'I' for Inactive)
REMARK    1  A    between atoms: O_2  and  C_3
REMARK    2  A    between atoms: C_7  and  O_8
REMARK    3  A    between atoms: O_8  and  C_9
REMARK    4  A    between atoms: C_15  and  C_16
REMARK    5  A    between atoms: N_18  and  S_19
REMARK    6  A    between atoms: S_19  and  C_22
REMARK    7  A    between atoms: C_40  and  C_41
REMARK    8  A    between atoms: C_43  and  C_44
REMARK                            x       y       z     vdW  Elec       q    Type
REMARK                         _______ _______ _______ _____ _____    ______ ____
ROOT
ATOM      1  C   UNL     1       3.650   6.788  -1.917  0.00  0.00    +0.167 C 
ATOM      2  C   UNL     1       4.701   7.366  -0.831  0.00  0.00    +0.053 C 
ATOM      3  C   UNL     1       3.772   7.509   0.479  0.00  0.00    +0.089 C 
ATOM      4  C   UNL     1       2.269   7.873  -0.261  0.00  0.00    +0.090 C 
ATOM      5  C   UNL     1       1.831   6.346  -0.547  0.00  0.00    +0.242 C 
ATOM      6  N   UNL     1       0.487   6.263  -0.055  0.00  0.00    -0.200 NA
ATOM      7  C   UNL     1      -0.522   7.183  -0.018  0.00  0.00    +0.154 C 
ATOM      8  C   UNL     1      -1.034   7.395   1.542  0.00  0.00    +0.051 C 
ATOM      9  C   UNL     1       0.318   6.763   2.239  0.00  0.00    -0.029 C 
ATOM     10  C   UNL     1       0.564   7.441   3.350  0.00  0.00    -0.031 C 
ATOM     11  C   UNL     1       0.747   8.915   3.133  0.00  0.00    +0.026 C 
ATOM     12  C   UNL     1       2.188   9.318   3.347  0.00  0.00    +0.006 C 
ATOM     13  C   UNL     1       3.071   8.178   2.925  0.00  0.00    +0.022 C 
ATOM     14  C   UNL     1       4.539   8.508   3.020  0.00  0.00    +0.093 C 
ATOM     15  N   UNL     1       5.021   9.129   1.789  0.00  0.00    -0.278 N 
ATOM     16  C   UNL     1       6.191  10.000   1.818  0.00  0.00    +0.115 C 
ATOM     17  C   UNL     1      -0.200   8.600   0.760  0.00  0.00    +0.036 C 
ATOM     18  O   UNL     1       2.553   5.435  -0.107  0.00  0.00    -0.273 OA
ATOM     19  C   UNL     1       4.103   9.070   0.689  0.00  0.00    +0.226 C 
ATOM     20  O   UNL     1       4.332   9.763  -0.303  0.00  0.00    -0.275 OA
ATOM     21  C   UNL     1       2.864   8.205  -1.736  0.00  0.00    +0.053 C 
ENDROOT
BRANCH   7  22
ATOM     22  C   UNL     1      -1.578   7.360  -1.006  0.00  0.00    +0.280 C 
ATOM     23  N   UNL     1      -1.618   6.293  -1.961  0.00  0.00    -0.062 NA
ATOM     24  O   UNL     1      -2.167   8.394  -1.338  0.00  0.00    -0.270 OA
BRANCH  23  25
ATOM     25  S   UNL     1      -2.875   6.051  -3.084  0.00  0.00    +0.074 S 
ATOM     26  O   UNL     1      -3.124   4.567  -3.190  0.00  0.00    -0.153 OA
ATOM     27  O   UNL     1      -4.108   6.704  -2.506  0.00  0.00    -0.153 OA
BRANCH  25  28
ATOM     28  C   UNL     1      -2.537   6.726  -4.681  0.00  0.00    +0.151 C 
ATOM     29  C   UNL     1      -1.915   8.096  -4.631  0.00  0.00    +0.027 C 
ATOM     30  C   UNL     1      -3.369   7.937  -5.123  0.00  0.00    +0.027 C 
ENDBRANCH  25  28
ENDBRANCH  23  25
ENDBRANCH   7  22
BRANCH   1  31
ATOM     31  O   UNL     1       4.466   7.343  -3.099  0.00  0.00    -0.479 OA
BRANCH  31  37
ATOM     32  C   UNL     1       0.647   5.236  -5.577  0.00  0.00    +0.136 A 
ATOM     33  C   UNL     1       1.789   4.433  -5.587  0.00  0.00    +0.030 A 
ATOM     34  C   UNL     1       1.822   3.218  -6.465  0.00  0.00    +0.036 C 
ATOM     35  C   UNL     1       3.049   4.958  -5.324  0.00  0.00    +0.083 A 
ATOM     36  C   UNL     1       3.053   6.022  -4.431  0.00  0.00    +0.052 A 
ATOM     37  C   UNL     1       4.279   6.658  -4.287  0.00  0.00    +0.141 A 
ATOM     38  C   UNL     1       5.216   6.643  -5.319  0.00  0.00    +0.058 A 
ATOM     39  C   UNL     1       5.033   5.749  -6.373  0.00  0.00    +0.108 A 
ATOM     40  C   UNL     1       1.891   6.681  -4.067  0.00  0.00    +0.008 A 
ATOM     41  N   UNL     1       4.154   4.748  -6.081  0.00  0.00    -0.243 NA
ATOM     42  C   UNL     1       0.726   6.357  -4.754  0.00  0.00    +0.037 A 
BRANCH  39  43
ATOM     43  C   UNL     1       5.279   6.167  -7.772  0.00  0.00    +0.128 A 
ATOM     44  S   UNL     1       6.652   5.632  -8.650  0.00  0.00    -0.065 S 
ATOM     45  C   UNL     1       5.931   5.617 -10.209  0.00  0.00    +0.052 A 
ATOM     46  C   UNL     1       4.671   6.116  -9.938  0.00  0.00    +0.066 A 
ATOM     47  N   UNL     1       4.422   6.449  -8.714  0.00  0.00    -0.241 NA
BRANCH  46  48
ATOM     48  C   UNL     1       3.691   6.489 -11.015  0.00  0.00    +0.041 C 
ATOM     49  C   UNL     1       4.048   5.752 -12.263  0.00  0.00    +0.006 C 
ATOM     50  C   UNL     1       2.288   6.174 -10.563  0.00  0.00    +0.006 C 
ENDBRANCH  46  48
ENDBRANCH  39  43
BRANCH  32  52
ATOM     51  C   UNL     1      -0.490   5.548  -7.494  0.00  0.00    +0.252 C 
ATOM     52  O   UNL     1      -0.277   5.202  -6.628  0.00  0.00    -0.472 OA
ENDBRANCH  32  52
ENDBRANCH  31  37
ENDBRANCH   1  31
TORSDOF 8
ENDMDL
