MODEL 1
REMARK VINA RESULT:      -8.2      0.000      0.000
REMARK  Name = 
REMARK  3 active torsions:
REMARK  status: ('A' for Active; 'I' for Inactive)
REMARK    1  A    between atoms: C_5  and  S_6
REMARK    2  A    between atoms: S_6  and  C_7
REMARK    3  A    between atoms: C_12  and  N_13
REMARK                            x       y       z     vdW  Elec       q    Type
REMARK                         _______ _______ _______ _____ _____    ______ ____
ROOT
ATOM      1  C   UNL     1       2.495   5.928 -10.405  0.00  0.00    +0.043 A 
ATOM      2  C   UNL     1       1.674   5.147  -9.601  0.00  0.00    +0.054 A 
ATOM      3  C   UNL     1       0.363   4.952 -10.019  0.00  0.00    +0.015 A 
ATOM      4  C   UNL     1       0.090   5.113 -11.363  0.00  0.00    +0.001 A 
ATOM      5  C   UNL     1       1.140   5.300 -12.254  0.00  0.00    +0.001 A 
ATOM      6  C   UNL     1       2.262   5.964 -11.774  0.00  0.00    +0.008 A 
ENDROOT
BRANCH   2   7
ATOM      7  N   UNL     1       1.871   5.311  -8.191  0.00  0.00    -0.304 N 
ATOM      8  C   UNL     1       2.598   4.366  -7.383  0.00  0.00    +0.110 C 
ATOM      9  C   UNL     1       1.780   3.881  -6.216  0.00  0.00    +0.110 C 
ATOM     10  N   UNL     1       0.535   4.580  -6.052  0.00  0.00    -0.214 NA
ATOM     11  C   UNL     1       0.641   6.008  -6.202  0.00  0.00    +0.110 C 
ATOM     12  C   UNL     1       1.177   6.419  -7.553  0.00  0.00    +0.110 C 
ENDBRANCH   2   7
BRANCH   1  13
ATOM     13  S   UNL     1       3.825   6.910  -9.700  0.00  0.00    -0.086 S 
BRANCH  13  19
ATOM     14  C   UNL     1       9.205   5.940 -12.160  0.00  0.00    +0.031 C 
ATOM     15  C   UNL     1       7.864   6.171 -11.549  0.00  0.00    -0.022 A 
ATOM     16  C   UNL     1       7.460   5.478 -10.443  0.00  0.00    -0.008 A 
ATOM     17  C   UNL     1       6.334   5.896  -9.783  0.00  0.00    -0.016 A 
ATOM     18  C   UNL     1       5.923   5.159  -8.550  0.00  0.00    +0.032 C 
ATOM     19  C   UNL     1       5.331   6.451 -10.563  0.00  0.00    +0.026 A 
ATOM     20  C   UNL     1       5.722   7.209 -11.661  0.00  0.00    +0.006 A 
ATOM     21  C   UNL     1       6.878   6.802 -12.293  0.00  0.00    -0.004 A 
ENDBRANCH  13  19
ENDBRANCH   1  13
TORSDOF 3
ENDMDL
MODEL 2
REMARK VINA RESULT:      -7.7      2.942      5.199
REMARK  Name = 
REMARK  3 active torsions:
REMARK  status: ('A' for Active; 'I' for Inactive)
REMARK    1  A    between atoms: C_5  and  S_6
REMARK    2  A    between atoms: S_6  and  C_7
REMARK    3  A    between atoms: C_12  and  N_13
REMARK                            x       y       z     vdW  Elec       q    Type
REMARK                         _______ _______ _______ _____ _____    ______ ____
ROOT
ATOM      1  C   UNL     1       3.585   6.503  -5.156  0.00  0.00    +0.043 A 
ATOM      2  C   UNL     1       2.591   6.998  -4.321  0.00  0.00    +0.054 A 
ATOM      3  C   UNL     1       2.940   7.284  -3.006  0.00  0.00    +0.015 A 
ATOM      4  C   UNL     1       4.273   7.522  -2.736  0.00  0.00    +0.001 A 
ATOM      5  C   UNL     1       5.173   7.625  -3.789  0.00  0.00    +0.001 A 
ATOM      6  C   UNL     1       4.905   6.870  -4.924  0.00  0.00    +0.008 A 
ENDROOT
BRANCH   2   7
ATOM      7  N   UNL     1       1.291   6.428  -4.521  0.00  0.00    -0.304 N 
ATOM      8  C   UNL     1       0.326   6.975  -5.440  0.00  0.00    +0.110 C 
ATOM      9  C   UNL     1      -0.987   7.268  -4.764  0.00  0.00    +0.110 C 
ATOM     10  N   UNL     1      -1.062   6.786  -3.412  0.00  0.00    -0.214 NA
ATOM     11  C   UNL     1      -0.540   5.456  -3.235  0.00  0.00    +0.110 C 
ATOM     12  C   UNL     1       0.909   5.333  -3.643  0.00  0.00    +0.110 C 
ENDBRANCH   2   7
BRANCH   1  13
ATOM     13  S   UNL     1       3.194   5.382  -6.504  0.00  0.00    -0.086 S 
BRANCH  13  19
ATOM     14  C   UNL     1       6.122   6.517 -11.611  0.00  0.00    +0.031 C 
ATOM     15  C   UNL     1       5.395   6.245 -10.337  0.00  0.00    -0.022 A 
ATOM     16  C   UNL     1       4.256   6.927 -10.011  0.00  0.00    -0.008 A 
ATOM     17  C   UNL     1       3.500   6.475  -8.962  0.00  0.00    -0.016 A 
ATOM     18  C   UNL     1       2.235   7.201  -8.639  0.00  0.00    +0.032 C 
ATOM     19  C   UNL     1       4.188   5.887  -7.913  0.00  0.00    +0.026 A 
ATOM     20  C   UNL     1       5.316   5.138  -8.229  0.00  0.00    +0.006 A 
ATOM     21  C   UNL     1       6.048   5.580  -9.310  0.00  0.00    -0.004 A 
ENDBRANCH  13  19
ENDBRANCH   1  13
TORSDOF 3
ENDMDL
MODEL 3
REMARK VINA RESULT:      -7.4      2.683      5.647
REMARK  Name = 
REMARK  3 active torsions:
REMARK  status: ('A' for Active; 'I' for Inactive)
REMARK    1  A    between atoms: C_5  and  S_6
REMARK    2  A    between atoms: S_6  and  C_7
REMARK    3  A    between atoms: C_12  and  N_13
REMARK                            x       y       z     vdW  Elec       q    Type
REMARK                         _______ _______ _______ _____ _____    ______ ____
ROOT
ATOM      1  C   UNL     1       3.739   4.978  -8.651  0.00  0.00    +0.043 A 
ATOM      2  C   UNL     1       3.278   5.333  -9.913  0.00  0.00    +0.054 A 
ATOM      3  C   UNL     1       4.016   6.271 -10.626  0.00  0.00    +0.015 A 
ATOM      4  C   UNL     1       5.347   6.426 -10.290  0.00  0.00    +0.001 A 
ATOM      5  C   UNL     1       5.927   5.549  -9.383  0.00  0.00    +0.001 A 
ATOM      6  C   UNL     1       5.103   5.030  -8.393  0.00  0.00    +0.008 A 
ENDROOT
BRANCH   2   7
ATOM      7  N   UNL     1       1.853   5.425 -10.035  0.00  0.00    -0.304 N 
ATOM      8  C   UNL     1       1.022   4.308 -10.406  0.00  0.00    +0.110 C 
ATOM      9  C   UNL     1       0.159   4.625 -11.598  0.00  0.00    +0.110 C 
ATOM     10  N   UNL     1       0.210   6.003 -12.001  0.00  0.00    -0.214 NA
ATOM     11  C   UNL     1       0.145   6.935 -10.906  0.00  0.00    +0.110 C 
ATOM     12  C   UNL     1       1.263   6.749  -9.907  0.00  0.00    +0.110 C 
ENDBRANCH   2   7
BRANCH   1  13
ATOM     13  S   UNL     1       2.602   4.486  -7.350  0.00  0.00    -0.086 S 
BRANCH  13  19
ATOM     14  C   UNL     1       5.125   7.308  -2.702  0.00  0.00    +0.031 C 
ATOM     15  C   UNL     1       4.487   6.608  -3.855  0.00  0.00    -0.022 A 
ATOM     16  C   UNL     1       3.599   7.250  -4.671  0.00  0.00    -0.008 A 
ATOM     17  C   UNL     1       3.233   6.645  -5.845  0.00  0.00    -0.016 A 
ATOM     18  C   UNL     1       2.294   7.373  -6.751  0.00  0.00    +0.032 C 
ATOM     19  C   UNL     1       3.171   5.261  -5.833  0.00  0.00    +0.026 A 
ATOM     20  C   UNL     1       4.105   4.586  -5.056  0.00  0.00    +0.006 A 
ATOM     21  C   UNL     1       4.494   5.222  -3.896  0.00  0.00    -0.004 A 
ENDBRANCH  13  19
ENDBRANCH   1  13
TORSDOF 3
ENDMDL
MODEL 4
REMARK VINA RESULT:      -7.2      3.992      7.178
REMARK  Name = 
REMARK  3 active torsions:
REMARK  status: ('A' for Active; 'I' for Inactive)
REMARK    1  A    between atoms: C_5  and  S_6
REMARK    2  A    between atoms: S_6  and  C_7
REMARK    3  A    between atoms: C_12  and  N_13
REMARK                            x       y       z     vdW  Elec       q    Type
REMARK                         _______ _______ _______ _____ _____    ______ ____
ROOT
ATOM      1  C   UNL     1       1.599   5.438  -5.141  0.00  0.00    +0.043 A 
ATOM      2  C   UNL     1       1.327   5.817  -6.450  0.00  0.00    +0.054 A 
ATOM      3  C   UNL     1       0.053   5.558  -6.942  0.00  0.00    +0.015 A 
ATOM      4  C   UNL     1      -0.967   5.402  -6.024  0.00  0.00    +0.001 A 
ATOM      5  C   UNL     1      -0.722   5.664  -4.682  0.00  0.00    +0.001 A 
ATOM      6  C   UNL     1       0.563   5.415  -4.216  0.00  0.00    +0.008 A 
ENDROOT
BRANCH   2   7
ATOM      7  N   UNL     1       2.410   5.639  -7.372  0.00  0.00    -0.304 N 
ATOM      8  C   UNL     1       3.299   6.704  -7.757  0.00  0.00    +0.110 C 
ATOM      9  C   UNL     1       3.352   6.877  -9.252  0.00  0.00    +0.110 C 
ATOM     10  N   UNL     1       2.658   5.849  -9.978  0.00  0.00    -0.214 NA
ATOM     11  C   UNL     1       2.900   4.519  -9.484  0.00  0.00    +0.110 C 
ATOM     12  C   UNL     1       2.505   4.347  -8.036  0.00  0.00    +0.110 C 
ENDBRANCH   2   7
BRANCH   1  13
ATOM     13  S   UNL     1       3.255   4.952  -4.640  0.00  0.00    -0.086 S 
BRANCH  13  19
ATOM     14  C   UNL     1       5.058   7.290   0.578  0.00  0.00    +0.031 C 
ATOM     15  C   UNL     1       4.603   6.717  -0.722  0.00  0.00    -0.022 A 
ATOM     16  C   UNL     1       4.706   7.426  -1.885  0.00  0.00    -0.008 A 
ATOM     17  C   UNL     1       4.504   6.772  -3.072  0.00  0.00    -0.016 A 
ATOM     18  C   UNL     1       4.660   7.545  -4.340  0.00  0.00    +0.032 C 
ATOM     19  C   UNL     1       3.578   5.741  -3.059  0.00  0.00    +0.026 A 
ATOM     20  C   UNL     1       3.498   4.968  -1.905  0.00  0.00    +0.006 A 
ATOM     21  C   UNL     1       3.741   5.629  -0.721  0.00  0.00    -0.004 A 
ENDBRANCH  13  19
ENDBRANCH   1  13
TORSDOF 3
ENDMDL
MODEL 5
REMARK VINA RESULT:      -7.2      3.270      5.239
REMARK  Name = 
REMARK  3 active torsions:
REMARK  status: ('A' for Active; 'I' for Inactive)
REMARK    1  A    between atoms: C_5  and  S_6
REMARK    2  A    between atoms: S_6  and  C_7
REMARK    3  A    between atoms: C_12  and  N_13
REMARK                            x       y       z     vdW  Elec       q    Type
REMARK                         _______ _______ _______ _____ _____    ______ ____
ROOT
ATOM      1  C   UNL     1      -0.058   5.944  -5.583  0.00  0.00    +0.043 A 
ATOM      2  C   UNL     1      -0.989   5.744  -4.571  0.00  0.00    +0.054 A 
ATOM      3  C   UNL     1      -2.334   5.780  -4.921  0.00  0.00    +0.015 A 
ATOM      4  C   UNL     1      -2.659   5.533  -6.240  0.00  0.00    +0.001 A 
ATOM      5  C   UNL     1      -1.669   5.107  -7.117  0.00  0.00    +0.001 A 
ATOM      6  C   UNL     1      -0.378   5.564  -6.880  0.00  0.00    +0.008 A 
ENDROOT
BRANCH   2   7
ATOM      7  N   UNL     1      -0.648   6.327  -3.308  0.00  0.00    -0.304 N 
ATOM      8  C   UNL     1       0.396   5.812  -2.459  0.00  0.00    +0.110 C 
ATOM      9  C   UNL     1      -0.107   5.509  -1.073  0.00  0.00    +0.110 C 
ATOM     10  N   UNL     1      -1.452   5.955  -0.835  0.00  0.00    -0.214 NA
ATOM     11  C   UNL     1      -1.728   7.276  -1.336  0.00  0.00    +0.110 C 
ATOM     12  C   UNL     1      -1.503   7.401  -2.824  0.00  0.00    +0.110 C 
ENDBRANCH   2   7
BRANCH   1  13
ATOM     13  S   UNL     1       1.532   6.709  -5.244  0.00  0.00    -0.086 S 
BRANCH  13  19
ATOM     14  C   UNL     1       5.660   5.811  -9.497  0.00  0.00    +0.031 C 
ATOM     15  C   UNL     1       4.630   6.024  -8.439  0.00  0.00    -0.022 A 
ATOM     16  C   UNL     1       4.653   5.311  -7.274  0.00  0.00    -0.008 A 
ATOM     17  C   UNL     1       3.841   5.712  -6.245  0.00  0.00    -0.016 A 
ATOM     18  C   UNL     1       3.904   4.952  -4.960  0.00  0.00    +0.032 C 
ATOM     19  C   UNL     1       2.625   6.273  -6.601  0.00  0.00    +0.026 A 
ATOM     20  C   UNL     1       2.594   7.051  -7.752  0.00  0.00    +0.006 A 
ATOM     21  C   UNL     1       3.443   6.662  -8.765  0.00  0.00    -0.004 A 
ENDBRANCH  13  19
ENDBRANCH   1  13
TORSDOF 3
ENDMDL
MODEL 6
REMARK VINA RESULT:      -7.1      2.963      5.288
REMARK  Name = 
REMARK  3 active torsions:
REMARK  status: ('A' for Active; 'I' for Inactive)
REMARK    1  A    between atoms: C_5  and  S_6
REMARK    2  A    between atoms: S_6  and  C_7
REMARK    3  A    between atoms: C_12  and  N_13
REMARK                            x       y       z     vdW  Elec       q    Type
REMARK                         _______ _______ _______ _____ _____    ______ ____
ROOT
ATOM      1  C   UNL     1       0.928   5.190  -6.602  0.00  0.00    +0.043 A 
ATOM      2  C   UNL     1       1.409   5.710  -5.407  0.00  0.00    +0.054 A 
ATOM      3  C   UNL     1       0.710   6.768  -4.839  0.00  0.00    +0.015 A 
ATOM      4  C   UNL     1      -0.616   6.922  -5.194  0.00  0.00    +0.001 A 
ATOM      5  C   UNL     1      -1.234   5.942  -5.961  0.00  0.00    +0.001 A 
ATOM      6  C   UNL     1      -0.435   5.253  -6.865  0.00  0.00    +0.008 A 
ENDROOT
BRANCH   2   7
ATOM      7  N   UNL     1       2.837   5.765  -5.301  0.00  0.00    -0.304 N 
ATOM      8  C   UNL     1       3.633   4.671  -4.809  0.00  0.00    +0.110 C 
ATOM      9  C   UNL     1       4.515   5.090  -3.663  0.00  0.00    +0.110 C 
ATOM     10  N   UNL     1       4.512   6.506  -3.419  0.00  0.00    -0.214 NA
ATOM     11  C   UNL     1       4.601   7.306  -4.613  0.00  0.00    +0.110 C 
ATOM     12  C   UNL     1       3.470   7.046  -5.580  0.00  0.00    +0.110 C 
ENDBRANCH   2   7
BRANCH   1  13
ATOM     13  S   UNL     1       2.038   4.470  -7.817  0.00  0.00    -0.086 S 
BRANCH  13  19
ATOM     14  C   UNL     1       0.172   7.318 -12.751  0.00  0.00    +0.031 C 
ATOM     15  C   UNL     1       0.645   6.606 -11.529  0.00  0.00    -0.022 A 
ATOM     16  C   UNL     1       1.885   6.842 -11.005  0.00  0.00    -0.008 A 
ATOM     17  C   UNL     1       2.174   6.352  -9.759  0.00  0.00    -0.016 A 
ATOM     18  C   UNL     1       3.517   6.651  -9.176  0.00  0.00    +0.032 C 
ATOM     19  C   UNL     1       1.580   5.148  -9.416  0.00  0.00    +0.026 A 
ATOM     20  C   UNL     1       0.294   4.913  -9.890  0.00  0.00    +0.006 A 
ATOM     21  C   UNL     1       0.002   5.444 -11.128  0.00  0.00    -0.004 A 
ENDBRANCH  13  19
ENDBRANCH   1  13
TORSDOF 3
ENDMDL
MODEL 7
REMARK VINA RESULT:      -7.1      1.886      4.888
REMARK  Name = 
REMARK  3 active torsions:
REMARK  status: ('A' for Active; 'I' for Inactive)
REMARK    1  A    between atoms: C_5  and  S_6
REMARK    2  A    between atoms: S_6  and  C_7
REMARK    3  A    between atoms: C_12  and  N_13
REMARK                            x       y       z     vdW  Elec       q    Type
REMARK                         _______ _______ _______ _____ _____    ______ ____
ROOT
ATOM      1  C   UNL     1       3.341   5.481  -9.878  0.00  0.00    +0.043 A 
ATOM      2  C   UNL     1       3.452   5.772  -8.524  0.00  0.00    +0.054 A 
ATOM      3  C   UNL     1       4.651   5.457  -7.896  0.00  0.00    +0.015 A 
ATOM      4  C   UNL     1       5.776   5.338  -8.688  0.00  0.00    +0.001 A 
ATOM      5  C   UNL     1       5.704   5.689 -10.030  0.00  0.00    +0.001 A 
ATOM      6  C   UNL     1       4.485   5.496 -10.667  0.00  0.00    +0.008 A 
ENDROOT
BRANCH   2   7
ATOM      7  N   UNL     1       2.260   5.557  -7.758  0.00  0.00    -0.304 N 
ATOM      8  C   UNL     1       1.329   6.609  -7.440  0.00  0.00    +0.110 C 
ATOM      9  C   UNL     1       1.086   6.712  -5.958  0.00  0.00    +0.110 C 
ATOM     10  N   UNL     1       1.681   5.648  -5.198  0.00  0.00    -0.214 NA
ATOM     11  C   UNL     1       1.504   4.343  -5.780  0.00  0.00    +0.110 C 
ATOM     12  C   UNL     1       2.081   4.237  -7.172  0.00  0.00    +0.110 C 
ENDBRANCH   2   7
BRANCH   1  13
ATOM     13  S   UNL     1       1.756   5.061 -10.612  0.00  0.00    -0.086 S 
BRANCH  13  19
ATOM     14  C   UNL     1       0.642   7.809 -15.822  0.00  0.00    +0.031 C 
ATOM     15  C   UNL     1       0.922   7.135 -14.521  0.00  0.00    -0.022 A 
ATOM     16  C   UNL     1       0.339   7.561 -13.361  0.00  0.00    -0.008 A 
ATOM     17  C   UNL     1       0.436   6.766 -12.249  0.00  0.00    -0.016 A 
ATOM     18  C   UNL     1      -0.240   7.219 -10.997  0.00  0.00    +0.032 C 
ATOM     19  C   UNL     1       1.601   6.027 -12.118  0.00  0.00    +0.026 A 
ATOM     20  C   UNL     1       2.179   5.534 -13.283  0.00  0.00    +0.006 A 
ATOM     21  C   UNL     1       2.041   6.323 -14.404  0.00  0.00    -0.004 A 
ENDBRANCH  13  19
ENDBRANCH   1  13
TORSDOF 3
ENDMDL
MODEL 8
REMARK VINA RESULT:      -7.0      3.773      6.474
REMARK  Name = 
REMARK  3 active torsions:
REMARK  status: ('A' for Active; 'I' for Inactive)
REMARK    1  A    between atoms: C_5  and  S_6
REMARK    2  A    between atoms: S_6  and  C_7
REMARK    3  A    between atoms: C_12  and  N_13
REMARK                            x       y       z     vdW  Elec       q    Type
REMARK                         _______ _______ _______ _____ _____    ______ ____
ROOT
ATOM      1  C   UNL     1       2.449   6.016  -5.044  0.00  0.00    +0.043 A 
ATOM      2  C   UNL     1       1.961   6.678  -3.924  0.00  0.00    +0.054 A 
ATOM      3  C   UNL     1       2.891   7.209  -3.037  0.00  0.00    +0.015 A 
ATOM      4  C   UNL     1       4.157   7.474  -3.520  0.00  0.00    +0.001 A 
ATOM      5  C   UNL     1       4.405   7.356  -4.881  0.00  0.00    +0.001 A 
ATOM      6  C   UNL     1       3.674   6.400  -5.575  0.00  0.00    +0.008 A 
ENDROOT
BRANCH   2   7
ATOM      7  N   UNL     1       0.787   6.101  -3.341  0.00  0.00    -0.304 N 
ATOM      8  C   UNL     1      -0.549   6.486  -3.716  0.00  0.00    +0.110 C 
ATOM      9  C   UNL     1      -1.364   6.915  -2.525  0.00  0.00    +0.110 C 
ATOM     10  N   UNL     1      -0.712   6.687  -1.265  0.00  0.00    -0.214 NA
ATOM     11  C   UNL     1      -0.068   5.404  -1.164  0.00  0.00    +0.110 C 
ATOM     12  C   UNL     1       0.985   5.188  -2.225  0.00  0.00    +0.110 C 
ENDBRANCH   2   7
BRANCH   1  13
ATOM     13  S   UNL     1       1.538   4.660  -5.792  0.00  0.00    -0.086 S 
BRANCH  13  19
ATOM     14  C   UNL     1       0.627   5.233 -11.689  0.00  0.00    +0.031 C 
ATOM     15  C   UNL     1       0.852   5.101 -10.221  0.00  0.00    -0.022 A 
ATOM     16  C   UNL     1      -0.095   5.499  -9.319  0.00  0.00    -0.008 A 
ATOM     17  C   UNL     1       0.056   5.135  -8.007  0.00  0.00    -0.016 A 
ATOM     18  C   UNL     1      -1.005   5.539  -7.036  0.00  0.00    +0.032 C 
ATOM     19  C   UNL     1       1.357   5.047  -7.536  0.00  0.00    +0.026 A 
ATOM     20  C   UNL     1       2.326   4.587  -8.420  0.00  0.00    +0.006 A 
ATOM     21  C   UNL     1       2.143   4.927  -9.743  0.00  0.00    -0.004 A 
ENDBRANCH  13  19
ENDBRANCH   1  13
TORSDOF 3
ENDMDL
MODEL 9
REMARK VINA RESULT:      -7.0      3.308      8.497
REMARK  Name = 
REMARK  3 active torsions:
REMARK  status: ('A' for Active; 'I' for Inactive)
REMARK    1  A    between atoms: C_5  and  S_6
REMARK    2  A    between atoms: S_6  and  C_7
REMARK    3  A    between atoms: C_12  and  N_13
REMARK                            x       y       z     vdW  Elec       q    Type
REMARK                         _______ _______ _______ _____ _____    ______ ____
ROOT
ATOM      1  C   UNL     1       2.285   5.929  -4.713  0.00  0.00    +0.043 A 
ATOM      2  C   UNL     1       3.130   5.137  -5.482  0.00  0.00    +0.054 A 
ATOM      3  C   UNL     1       4.438   4.976  -5.040  0.00  0.00    +0.015 A 
ATOM      4  C   UNL     1       4.688   5.179  -3.697  0.00  0.00    +0.001 A 
ATOM      5  C   UNL     1       3.622   5.375  -2.828  0.00  0.00    +0.001 A 
ATOM      6  C   UNL     1       2.497   6.007  -3.342  0.00  0.00    +0.008 A 
ENDROOT
BRANCH   2   7
ATOM      7  N   UNL     1       2.951   5.258  -6.899  0.00  0.00    -0.304 N 
ATOM      8  C   UNL     1       2.106   4.377  -7.664  0.00  0.00    +0.110 C 
ATOM      9  C   UNL     1       2.852   3.736  -8.803  0.00  0.00    +0.110 C 
ATOM     10  N   UNL     1       4.176   4.260  -8.997  0.00  0.00    -0.214 NA
ATOM     11  C   UNL     1       4.255   5.695  -8.915  0.00  0.00    +0.110 C 
ATOM     12  C   UNL     1       3.780   6.236  -7.587  0.00  0.00    +0.110 C 
ENDBRANCH   2   7
BRANCH   1  13
ATOM     13  S   UNL     1       0.951   6.868  -5.465  0.00  0.00    -0.086 S 
BRANCH  13  19
ATOM     14  C   UNL     1      -4.336   6.294  -2.698  0.00  0.00    +0.031 C 
ATOM     15  C   UNL     1      -3.019   6.426  -3.386  0.00  0.00    -0.022 A 
ATOM     16  C   UNL     1      -2.755   5.757  -4.547  0.00  0.00    -0.008 A 
ATOM     17  C   UNL     1      -1.636   6.098  -5.261  0.00  0.00    -0.016 A 
ATOM     18  C   UNL     1      -1.378   5.390  -6.551  0.00  0.00    +0.032 C 
ATOM     19  C   UNL     1      -0.537   6.512  -4.525  0.00  0.00    +0.026 A 
ATOM     20  C   UNL     1      -0.782   7.247  -3.370  0.00  0.00    +0.006 A 
ATOM     21  C   UNL     1      -1.931   6.921  -2.682  0.00  0.00    -0.004 A 
ENDBRANCH  13  19
ENDBRANCH   1  13
TORSDOF 3
ENDMDL
