MODEL 1
REMARK VINA RESULT:      -6.0      0.000      0.000
REMARK  Name = 
REMARK  9 active torsions:
REMARK  status: ('A' for Active; 'I' for Inactive)
REMARK    1  A    between atoms: C_2  and  C_3
REMARK    2  A    between atoms: C_3  and  C_4
REMARK    3  A    between atoms: C_4  and  N_5
REMARK    4  A    between atoms: N_5  and  C_6
REMARK    5  A    between atoms: C_9  and  C_10
REMARK    6  A    between atoms: C_10  and  O_12
REMARK    7  A    between atoms: O_12  and  C_13
REMARK    8  A    between atoms: C_13  and  C_14
REMARK    9  A    between atoms: C_14  and  N_15
REMARK                            x       y       z     vdW  Elec       q    Type
REMARK                         _______ _______ _______ _____ _____    ______ ____
ROOT
ATOM      1  C   UNL     1       5.902   5.781  -9.587  0.00  0.00    +0.065 A 
ATOM      2  C   UNL     1       5.492   5.074  -8.462  0.00  0.00    +0.016 A 
ATOM      3  C   UNL     1       4.273   5.343  -7.853  0.00  0.00    +0.008 A 
ATOM      4  C   UNL     1       3.430   6.336  -8.343  0.00  0.00    +0.076 A 
ATOM      5  C   UNL     1       3.633   6.648  -9.684  0.00  0.00    +0.008 A 
ATOM      6  C   UNL     1       4.876   6.431 -10.265  0.00  0.00    +0.016 A 
ENDROOT
BRANCH   4   7
ATOM      7  C   UNL     1       2.750   7.276  -7.438  0.00  0.00    +0.341 C 
ATOM      8  O   UNL     1       2.169   8.314  -7.861  0.00  0.00    -0.245 OA
BRANCH   7   9
ATOM      9  O   UNL     1       2.332   6.856  -6.172  0.00  0.00    -0.444 OA
BRANCH   9  10
ATOM     10  C   UNL     1       0.945   6.587  -6.033  0.00  0.00    +0.226 C 
BRANCH  10  11
ATOM     11  C   UNL     1       0.810   5.283  -5.262  0.00  0.00    +0.120 C 
BRANCH  11  12
ATOM     12  N   UNL     1      -0.257   5.502  -4.286  0.00  0.00    -0.267 NA
ATOM     13  C   UNL     1      -0.753   6.849  -4.481  0.00  0.00    +0.090 C 
ATOM     14  C   UNL     1       0.363   5.366  -2.971  0.00  0.00    +0.090 C 
ENDBRANCH  11  12
ENDBRANCH  10  11
ENDBRANCH   9  10
ENDBRANCH   7   9
ENDBRANCH   4   7
BRANCH   1  15
ATOM     15  N   UNL     1       7.269   6.185  -9.718  0.00  0.00    -0.238 NA
BRANCH  15  16
ATOM     16  C   UNL     1       7.775   6.780 -10.946  0.00  0.00    +0.112 C 
BRANCH  16  17
ATOM     17  C   UNL     1       8.552   5.793 -11.786  0.00  0.00    +0.023 C 
BRANCH  17  19
ATOM     18  C   UNL     1       6.874   6.544 -13.500  0.00  0.00    +0.000 C 
ATOM     19  C   UNL     1       7.702   5.403 -12.977  0.00  0.00    +0.002 C 
ENDBRANCH  17  19
ENDBRANCH  16  17
ENDBRANCH  15  16
ENDBRANCH   1  15
TORSDOF 9
ENDMDL
MODEL 2
REMARK VINA RESULT:      -6.0      4.886      6.596
REMARK  Name = 
REMARK  9 active torsions:
REMARK  status: ('A' for Active; 'I' for Inactive)
REMARK    1  A    between atoms: C_2  and  C_3
REMARK    2  A    between atoms: C_3  and  C_4
REMARK    3  A    between atoms: C_4  and  N_5
REMARK    4  A    between atoms: N_5  and  C_6
REMARK    5  A    between atoms: C_9  and  C_10
REMARK    6  A    between atoms: C_10  and  O_12
REMARK    7  A    between atoms: O_12  and  C_13
REMARK    8  A    between atoms: C_13  and  C_14
REMARK    9  A    between atoms: C_14  and  N_15
REMARK                            x       y       z     vdW  Elec       q    Type
REMARK                         _______ _______ _______ _____ _____    ______ ____
ROOT
ATOM      1  C   UNL     1      -0.165   5.991  -6.374  0.00  0.00    +0.065 A 
ATOM      2  C   UNL     1      -1.435   5.473  -6.601  0.00  0.00    +0.016 A 
ATOM      3  C   UNL     1      -2.453   5.643  -5.671  0.00  0.00    +0.008 A 
ATOM      4  C   UNL     1      -2.229   6.327  -4.480  0.00  0.00    +0.076 A 
ATOM      5  C   UNL     1      -1.157   7.213  -4.522  0.00  0.00    +0.008 A 
ATOM      6  C   UNL     1      -0.114   6.997  -5.415  0.00  0.00    +0.016 A 
ENDROOT
BRANCH   4   7
ATOM      7  C   UNL     1      -2.749   5.822  -3.200  0.00  0.00    +0.341 C 
ATOM      8  O   UNL     1      -2.964   4.594  -2.999  0.00  0.00    -0.245 OA
BRANCH   7   9
ATOM      9  O   UNL     1      -2.607   6.581  -2.034  0.00  0.00    -0.444 OA
BRANCH   9  10
ATOM     10  C   UNL     1      -1.843   5.987  -0.995  0.00  0.00    +0.226 C 
BRANCH  10  11
ATOM     11  C   UNL     1      -0.655   6.898  -0.726  0.00  0.00    +0.120 C 
BRANCH  11  12
ATOM     12  N   UNL     1       0.478   6.014  -0.458  0.00  0.00    -0.267 NA
ATOM     13  C   UNL     1       1.676   6.828  -0.474  0.00  0.00    +0.090 C 
ATOM     14  C   UNL     1       0.500   5.043  -1.548  0.00  0.00    +0.090 C 
ENDBRANCH  11  12
ENDBRANCH  10  11
ENDBRANCH   9  10
ENDBRANCH   7   9
ENDBRANCH   4   7
BRANCH   1  15
ATOM     15  N   UNL     1       0.993   5.227  -6.729  0.00  0.00    -0.238 NA
BRANCH  15  16
ATOM     16  C   UNL     1       1.491   5.185  -8.095  0.00  0.00    +0.112 C 
BRANCH  16  17
ATOM     17  C   UNL     1       1.423   6.532  -8.774  0.00  0.00    +0.023 C 
BRANCH  17  19
ATOM     18  C   UNL     1       0.127   4.984 -10.271  0.00  0.00    +0.000 C 
ATOM     19  C   UNL     1       0.608   6.390 -10.043  0.00  0.00    +0.002 C 
ENDBRANCH  17  19
ENDBRANCH  16  17
ENDBRANCH  15  16
ENDBRANCH   1  15
TORSDOF 9
ENDMDL
MODEL 3
REMARK VINA RESULT:      -5.9      4.206      8.061
REMARK  Name = 
REMARK  9 active torsions:
REMARK  status: ('A' for Active; 'I' for Inactive)
REMARK    1  A    between atoms: C_2  and  C_3
REMARK    2  A    between atoms: C_3  and  C_4
REMARK    3  A    between atoms: C_4  and  N_5
REMARK    4  A    between atoms: N_5  and  C_6
REMARK    5  A    between atoms: C_9  and  C_10
REMARK    6  A    between atoms: C_10  and  O_12
REMARK    7  A    between atoms: O_12  and  C_13
REMARK    8  A    between atoms: C_13  and  C_14
REMARK    9  A    between atoms: C_14  and  N_15
REMARK                            x       y       z     vdW  Elec       q    Type
REMARK                         _______ _______ _______ _____ _____    ______ ____
ROOT
ATOM      1  C   UNL     1       4.723   6.271  -9.716  0.00  0.00    +0.065 A 
ATOM      2  C   UNL     1       5.816   5.593  -9.187  0.00  0.00    +0.016 A 
ATOM      3  C   UNL     1       7.062   5.658  -9.798  0.00  0.00    +0.008 A 
ATOM      4  C   UNL     1       7.251   6.394 -10.963  0.00  0.00    +0.076 A 
ATOM      5  C   UNL     1       6.316   7.405 -11.160  0.00  0.00    +0.008 A 
ATOM      6  C   UNL     1       5.051   7.298 -10.594  0.00  0.00    +0.016 A 
ENDROOT
BRANCH   4   7
ATOM      7  C   UNL     1       8.041   5.860 -12.084  0.00  0.00    +0.341 C 
ATOM      8  O   UNL     1       9.303   5.825 -12.061  0.00  0.00    -0.245 OA
BRANCH   7   9
ATOM      9  O   UNL     1       7.456   4.981 -13.001  0.00  0.00    -0.444 OA
BRANCH   9  10
ATOM     10  C   UNL     1       7.246   5.496 -14.307  0.00  0.00    +0.226 C 
BRANCH  10  11
ATOM     11  C   UNL     1       5.823   6.029 -14.363  0.00  0.00    +0.120 C 
BRANCH  11  12
ATOM     12  N   UNL     1       5.876   7.233 -15.190  0.00  0.00    -0.267 NA
ATOM     13  C   UNL     1       4.739   7.194 -16.086  0.00  0.00    +0.090 C 
ATOM     14  C   UNL     1       7.126   7.155 -15.940  0.00  0.00    +0.090 C 
ENDBRANCH  11  12
ENDBRANCH  10  11
ENDBRANCH   9  10
ENDBRANCH   7   9
ENDBRANCH   4   7
BRANCH   1  15
ATOM     15  N   UNL     1       3.434   5.648  -9.730  0.00  0.00    -0.238 NA
BRANCH  15  16
ATOM     16  C   UNL     1       2.436   5.982 -10.734  0.00  0.00    +0.112 C 
BRANCH  16  17
ATOM     17  C   UNL     1       1.186   6.576 -10.128  0.00  0.00    +0.023 C 
BRANCH  17  19
ATOM     18  C   UNL     1       0.044   4.447 -10.820  0.00  0.00    +0.000 C 
ATOM     19  C   UNL     1       0.266   5.445  -9.717  0.00  0.00    +0.002 C 
ENDBRANCH  17  19
ENDBRANCH  16  17
ENDBRANCH  15  16
ENDBRANCH   1  15
TORSDOF 9
ENDMDL
MODEL 4
REMARK VINA RESULT:      -5.9      4.781      6.577
REMARK  Name = 
REMARK  9 active torsions:
REMARK  status: ('A' for Active; 'I' for Inactive)
REMARK    1  A    between atoms: C_2  and  C_3
REMARK    2  A    between atoms: C_3  and  C_4
REMARK    3  A    between atoms: C_4  and  N_5
REMARK    4  A    between atoms: N_5  and  C_6
REMARK    5  A    between atoms: C_9  and  C_10
REMARK    6  A    between atoms: C_10  and  O_12
REMARK    7  A    between atoms: O_12  and  C_13
REMARK    8  A    between atoms: C_13  and  C_14
REMARK    9  A    between atoms: C_14  and  N_15
REMARK                            x       y       z     vdW  Elec       q    Type
REMARK                         _______ _______ _______ _____ _____    ______ ____
ROOT
ATOM      1  C   UNL     1       0.094   5.918  -6.655  0.00  0.00    +0.065 A 
ATOM      2  C   UNL     1      -1.179   5.383  -6.813  0.00  0.00    +0.016 A 
ATOM      3  C   UNL     1      -2.124   5.474  -5.798  0.00  0.00    +0.008 A 
ATOM      4  C   UNL     1      -1.821   6.094  -4.590  0.00  0.00    +0.076 A 
ATOM      5  C   UNL     1      -0.773   7.007  -4.662  0.00  0.00    +0.008 A 
ATOM      6  C   UNL     1       0.201   6.868  -5.644  0.00  0.00    +0.016 A 
ENDROOT
BRANCH   4   7
ATOM      7  C   UNL     1      -2.228   5.504  -3.305  0.00  0.00    +0.341 C 
ATOM      8  O   UNL     1      -3.414   5.135  -3.081  0.00  0.00    -0.245 OA
BRANCH   7   9
ATOM      9  O   UNL     1      -1.274   4.922  -2.464  0.00  0.00    -0.444 OA
BRANCH   9  10
ATOM     10  C   UNL     1      -0.881   5.697  -1.341  0.00  0.00    +0.226 C 
BRANCH  10  11
ATOM     11  C   UNL     1       0.618   5.512  -1.164  0.00  0.00    +0.120 C 
BRANCH  11  12
ATOM     12  N   UNL     1       0.971   6.239   0.055  0.00  0.00    -0.267 NA
ATOM     13  C   UNL     1      -0.182   7.030   0.437  0.00  0.00    +0.090 C 
ATOM     14  C   UNL     1       2.093   7.103  -0.299  0.00  0.00    +0.090 C 
ENDBRANCH  11  12
ENDBRANCH  10  11
ENDBRANCH   9  10
ENDBRANCH   7   9
ENDBRANCH   4   7
BRANCH   1  15
ATOM     15  N   UNL     1       1.236   5.204  -7.143  0.00  0.00    -0.238 NA
BRANCH  15  16
ATOM     16  C   UNL     1       1.839   4.120  -6.384  0.00  0.00    +0.112 C 
BRANCH  16  17
ATOM     17  C   UNL     1       2.924   4.604  -5.451  0.00  0.00    +0.023 C 
BRANCH  17  19
ATOM     18  C   UNL     1       3.958   6.894  -5.409  0.00  0.00    +0.000 C 
ATOM     19  C   UNL     1       3.772   5.620  -6.187  0.00  0.00    +0.002 C 
ENDBRANCH  17  19
ENDBRANCH  16  17
ENDBRANCH  15  16
ENDBRANCH   1  15
TORSDOF 9
ENDMDL
MODEL 5
REMARK VINA RESULT:      -5.9      2.187      3.286
REMARK  Name = 
REMARK  9 active torsions:
REMARK  status: ('A' for Active; 'I' for Inactive)
REMARK    1  A    between atoms: C_2  and  C_3
REMARK    2  A    between atoms: C_3  and  C_4
REMARK    3  A    between atoms: C_4  and  N_5
REMARK    4  A    between atoms: N_5  and  C_6
REMARK    5  A    between atoms: C_9  and  C_10
REMARK    6  A    between atoms: C_10  and  O_12
REMARK    7  A    between atoms: O_12  and  C_13
REMARK    8  A    between atoms: C_13  and  C_14
REMARK    9  A    between atoms: C_14  and  N_15
REMARK                            x       y       z     vdW  Elec       q    Type
REMARK                         _______ _______ _______ _____ _____    ______ ____
ROOT
ATOM      1  C   UNL     1       7.325   6.701 -11.180  0.00  0.00    +0.065 A 
ATOM      2  C   UNL     1       6.260   7.594 -11.200  0.00  0.00    +0.016 A 
ATOM      3  C   UNL     1       5.101   7.341 -10.476  0.00  0.00    +0.008 A 
ATOM      4  C   UNL     1       4.968   6.181  -9.719  0.00  0.00    +0.076 A 
ATOM      5  C   UNL     1       6.175   5.602  -9.342  0.00  0.00    +0.008 A 
ATOM      6  C   UNL     1       7.314   5.813 -10.110  0.00  0.00    +0.016 A 
ENDROOT
BRANCH   4   7
ATOM      7  C   UNL     1       3.721   5.401  -9.731  0.00  0.00    +0.341 C 
ATOM      8  O   UNL     1       3.612   4.298  -9.124  0.00  0.00    -0.245 OA
BRANCH   7   9
ATOM      9  O   UNL     1       2.502   6.024 -10.017  0.00  0.00    -0.444 OA
BRANCH   9  10
ATOM     10  C   UNL     1       1.618   6.193  -8.919  0.00  0.00    +0.226 C 
BRANCH  10  11
ATOM     11  C   UNL     1       2.083   7.418  -8.146  0.00  0.00    +0.120 C 
BRANCH  11  12
ATOM     12  N   UNL     1       1.954   7.074  -6.731  0.00  0.00    -0.267 NA
ATOM     13  C   UNL     1       3.293   6.956  -6.191  0.00  0.00    +0.090 C 
ATOM     14  C   UNL     1       1.266   5.787  -6.689  0.00  0.00    +0.090 C 
ENDBRANCH  11  12
ENDBRANCH  10  11
ENDBRANCH   9  10
ENDBRANCH   7   9
ENDBRANCH   4   7
BRANCH   1  15
ATOM     15  N   UNL     1       8.048   6.424 -12.385  0.00  0.00    -0.238 NA
BRANCH  15  16
ATOM     16  C   UNL     1       7.554   5.474 -13.369  0.00  0.00    +0.112 C 
BRANCH  16  17
ATOM     17  C   UNL     1       6.901   6.154 -14.549  0.00  0.00    +0.023 C 
BRANCH  17  19
ATOM     18  C   UNL     1       4.934   5.044 -13.447  0.00  0.00    +0.000 C 
ATOM     19  C   UNL     1       5.403   6.170 -14.327  0.00  0.00    +0.002 C 
ENDBRANCH  17  19
ENDBRANCH  16  17
ENDBRANCH  15  16
ENDBRANCH   1  15
TORSDOF 9
ENDMDL
MODEL 6
REMARK VINA RESULT:      -5.9      3.729      4.702
REMARK  Name = 
REMARK  9 active torsions:
REMARK  status: ('A' for Active; 'I' for Inactive)
REMARK    1  A    between atoms: C_2  and  C_3
REMARK    2  A    between atoms: C_3  and  C_4
REMARK    3  A    between atoms: C_4  and  N_5
REMARK    4  A    between atoms: N_5  and  C_6
REMARK    5  A    between atoms: C_9  and  C_10
REMARK    6  A    between atoms: C_10  and  O_12
REMARK    7  A    between atoms: O_12  and  C_13
REMARK    8  A    between atoms: C_13  and  C_14
REMARK    9  A    between atoms: C_14  and  N_15
REMARK                            x       y       z     vdW  Elec       q    Type
REMARK                         _______ _______ _______ _____ _____    ______ ____
ROOT
ATOM      1  C   UNL     1       7.448   6.690 -11.104  0.00  0.00    +0.065 A 
ATOM      2  C   UNL     1       6.402   7.601 -11.192  0.00  0.00    +0.016 A 
ATOM      3  C   UNL     1       5.220   7.404 -10.487  0.00  0.00    +0.008 A 
ATOM      4  C   UNL     1       5.046   6.283  -9.681  0.00  0.00    +0.076 A 
ATOM      5  C   UNL     1       6.232   5.699  -9.248  0.00  0.00    +0.008 A 
ATOM      6  C   UNL     1       7.394   5.853  -9.996  0.00  0.00    +0.016 A 
ENDROOT
BRANCH   4   7
ATOM      7  C   UNL     1       3.784   5.526  -9.688  0.00  0.00    +0.341 C 
ATOM      8  O   UNL     1       3.734   4.300  -9.392  0.00  0.00    -0.245 OA
BRANCH   7   9
ATOM      9  O   UNL     1       2.561   6.196  -9.581  0.00  0.00    -0.444 OA
BRANCH   9  10
ATOM     10  C   UNL     1       1.523   5.732 -10.431  0.00  0.00    +0.226 C 
BRANCH  10  11
ATOM     11  C   UNL     1       1.813   6.254 -11.829  0.00  0.00    +0.120 C 
BRANCH  11  12
ATOM     12  N   UNL     1       0.513   6.570 -12.418  0.00  0.00    -0.267 NA
ATOM     13  C   UNL     1       0.730   7.588 -13.426  0.00  0.00    +0.090 C 
ATOM     14  C   UNL     1      -0.310   7.090 -11.329  0.00  0.00    +0.090 C 
ENDBRANCH  11  12
ENDBRANCH  10  11
ENDBRANCH   9  10
ENDBRANCH   7   9
ENDBRANCH   4   7
BRANCH   1  15
ATOM     15  N   UNL     1       8.194   6.343 -12.277  0.00  0.00    -0.238 NA
BRANCH  15  16
ATOM     16  C   UNL     1       7.612   5.541 -13.342  0.00  0.00    +0.112 C 
BRANCH  16  17
ATOM     17  C   UNL     1       7.071   6.388 -14.470  0.00  0.00    +0.023 C 
BRANCH  17  19
ATOM     18  C   UNL     1       5.064   5.196 -13.540  0.00  0.00    +0.000 C 
ATOM     19  C   UNL     1       5.566   6.228 -14.512  0.00  0.00    +0.002 C 
ENDBRANCH  17  19
ENDBRANCH  16  17
ENDBRANCH  15  16
ENDBRANCH   1  15
TORSDOF 9
ENDMDL
MODEL 7
REMARK VINA RESULT:      -5.7      4.525      8.609
REMARK  Name = 
REMARK  9 active torsions:
REMARK  status: ('A' for Active; 'I' for Inactive)
REMARK    1  A    between atoms: C_2  and  C_3
REMARK    2  A    between atoms: C_3  and  C_4
REMARK    3  A    between atoms: C_4  and  N_5
REMARK    4  A    between atoms: N_5  and  C_6
REMARK    5  A    between atoms: C_9  and  C_10
REMARK    6  A    between atoms: C_10  and  O_12
REMARK    7  A    between atoms: O_12  and  C_13
REMARK    8  A    between atoms: C_13  and  C_14
REMARK    9  A    between atoms: C_14  and  N_15
REMARK                            x       y       z     vdW  Elec       q    Type
REMARK                         _______ _______ _______ _____ _____    ______ ____
ROOT
ATOM      1  C   UNL     1      -2.174   6.146  -5.248  0.00  0.00    +0.065 A 
ATOM      2  C   UNL     1      -1.147   7.034  -4.948  0.00  0.00    +0.016 A 
ATOM      3  C   UNL     1       0.106   6.902  -5.533  0.00  0.00    +0.008 A 
ATOM      4  C   UNL     1       0.375   5.872  -6.428  0.00  0.00    +0.076 A 
ATOM      5  C   UNL     1      -0.753   5.346  -7.051  0.00  0.00    +0.008 A 
ATOM      6  C   UNL     1      -1.992   5.430  -6.426  0.00  0.00    +0.016 A 
ENDROOT
BRANCH   4   7
ATOM      7  C   UNL     1       1.630   5.108  -6.360  0.00  0.00    +0.341 C 
ATOM      8  O   UNL     1       1.647   3.849  -6.272  0.00  0.00    -0.245 OA
BRANCH   7   9
ATOM      9  O   UNL     1       2.822   5.670  -6.828  0.00  0.00    -0.444 OA
BRANCH   9  10
ATOM     10  C   UNL     1       3.895   5.714  -5.899  0.00  0.00    +0.226 C 
BRANCH  10  11
ATOM     11  C   UNL     1       3.862   7.080  -5.232  0.00  0.00    +0.120 C 
BRANCH  11  12
ATOM     12  N   UNL     1       3.528   6.835  -3.830  0.00  0.00    -0.267 NA
ATOM     13  C   UNL     1       4.135   7.893  -3.049  0.00  0.00    +0.090 C 
ATOM     14  C   UNL     1       4.118   5.543  -3.493  0.00  0.00    +0.090 C 
ENDBRANCH  11  12
ENDBRANCH  10  11
ENDBRANCH   9  10
ENDBRANCH   7   9
ENDBRANCH   4   7
BRANCH   1  15
ATOM     15  N   UNL     1      -3.045   5.683  -4.210  0.00  0.00    -0.238 NA
BRANCH  15  16
ATOM     16  C   UNL     1      -2.546   5.360  -2.882  0.00  0.00    +0.112 C 
BRANCH  16  17
ATOM     17  C   UNL     1      -2.843   6.446  -1.875  0.00  0.00    +0.023 C 
BRANCH  17  19
ATOM     18  C   UNL     1      -1.632   7.903  -0.224  0.00  0.00    +0.000 C 
ATOM     19  C   UNL     1      -1.648   6.590  -0.956  0.00  0.00    +0.002 C 
ENDBRANCH  17  19
ENDBRANCH  16  17
ENDBRANCH  15  16
ENDBRANCH   1  15
TORSDOF 9
ENDMDL
MODEL 8
REMARK VINA RESULT:      -5.7      3.562      8.487
REMARK  Name = 
REMARK  9 active torsions:
REMARK  status: ('A' for Active; 'I' for Inactive)
REMARK    1  A    between atoms: C_2  and  C_3
REMARK    2  A    between atoms: C_3  and  C_4
REMARK    3  A    between atoms: C_4  and  N_5
REMARK    4  A    between atoms: N_5  and  C_6
REMARK    5  A    between atoms: C_9  and  C_10
REMARK    6  A    between atoms: C_10  and  O_12
REMARK    7  A    between atoms: O_12  and  C_13
REMARK    8  A    between atoms: C_13  and  C_14
REMARK    9  A    between atoms: C_14  and  N_15
REMARK                            x       y       z     vdW  Elec       q    Type
REMARK                         _______ _______ _______ _____ _____    ______ ____
ROOT
ATOM      1  C   UNL     1       5.084   5.778  -9.271  0.00  0.00    +0.065 A 
ATOM      2  C   UNL     1       6.442   5.569  -9.061  0.00  0.00    +0.016 A 
ATOM      3  C   UNL     1       7.376   5.896 -10.037  0.00  0.00    +0.008 A 
ATOM      4  C   UNL     1       6.978   6.432 -11.258  0.00  0.00    +0.076 A 
ATOM      5  C   UNL     1       5.737   7.059 -11.231  0.00  0.00    +0.008 A 
ATOM      6  C   UNL     1       4.789   6.680 -10.288  0.00  0.00    +0.016 A 
ENDROOT
BRANCH   4   7
ATOM      7  C   UNL     1       7.568   5.968 -12.524  0.00  0.00    +0.341 C 
ATOM      8  O   UNL     1       7.828   4.751 -12.738  0.00  0.00    -0.245 OA
BRANCH   7   9
ATOM      9  O   UNL     1       7.454   6.746 -13.680  0.00  0.00    -0.444 OA
BRANCH   9  10
ATOM     10  C   UNL     1       6.732   6.161 -14.753  0.00  0.00    +0.226 C 
BRANCH  10  11
ATOM     11  C   UNL     1       7.081   6.938 -16.013  0.00  0.00    +0.120 C 
BRANCH  11  12
ATOM     12  N   UNL     1       6.186   8.094 -16.033  0.00  0.00    -0.267 NA
ATOM     13  C   UNL     1       4.854   7.606 -16.328  0.00  0.00    +0.090 C 
ATOM     14  C   UNL     1       6.666   8.960 -17.106  0.00  0.00    +0.090 C 
ENDBRANCH  11  12
ENDBRANCH  10  11
ENDBRANCH   9  10
ENDBRANCH   7   9
ENDBRANCH   4   7
BRANCH   1  15
ATOM     15  N   UNL     1       4.134   4.802  -8.827  0.00  0.00    -0.238 NA
BRANCH  15  16
ATOM     16  C   UNL     1       3.173   5.097  -7.776  0.00  0.00    +0.112 C 
BRANCH  16  17
ATOM     17  C   UNL     1       3.642   6.202  -6.860  0.00  0.00    +0.023 C 
BRANCH  17  19
ATOM     18  C   UNL     1       1.244   6.847  -6.471  0.00  0.00    +0.000 C 
ATOM     19  C   UNL     1       2.613   7.313  -6.882  0.00  0.00    +0.002 C 
ENDBRANCH  17  19
ENDBRANCH  16  17
ENDBRANCH  15  16
ENDBRANCH   1  15
TORSDOF 9
ENDMDL
MODEL 9
REMARK VINA RESULT:      -5.7      1.957      2.994
REMARK  Name = 
REMARK  9 active torsions:
REMARK  status: ('A' for Active; 'I' for Inactive)
REMARK    1  A    between atoms: C_2  and  C_3
REMARK    2  A    between atoms: C_3  and  C_4
REMARK    3  A    between atoms: C_4  and  N_5
REMARK    4  A    between atoms: N_5  and  C_6
REMARK    5  A    between atoms: C_9  and  C_10
REMARK    6  A    between atoms: C_10  and  O_12
REMARK    7  A    between atoms: O_12  and  C_13
REMARK    8  A    between atoms: C_13  and  C_14
REMARK    9  A    between atoms: C_14  and  N_15
REMARK                            x       y       z     vdW  Elec       q    Type
REMARK                         _______ _______ _______ _____ _____    ______ ____
ROOT
ATOM      1  C   UNL     1       3.956   6.129  -8.550  0.00  0.00    +0.065 A 
ATOM      2  C   UNL     1       3.020   7.143  -8.719  0.00  0.00    +0.016 A 
ATOM      3  C   UNL     1       2.096   7.437  -7.723  0.00  0.00    +0.008 A 
ATOM      4  C   UNL     1       2.072   6.718  -6.532  0.00  0.00    +0.076 A 
ATOM      5  C   UNL     1       3.275   6.094  -6.216  0.00  0.00    +0.008 A 
ATOM      6  C   UNL     1       4.164   5.750  -7.228  0.00  0.00    +0.016 A 
ENDROOT
BRANCH   4   7
ATOM      7  C   UNL     1       0.804   6.270  -5.936  0.00  0.00    +0.341 C 
ATOM      8  O   UNL     1       0.636   5.088  -5.524  0.00  0.00    -0.245 OA
BRANCH   7   9
ATOM      9  O   UNL     1      -0.088   7.202  -5.397  0.00  0.00    -0.444 OA
BRANCH   9  10
ATOM     10  C   UNL     1      -1.403   6.729  -5.146  0.00  0.00    +0.226 C 
BRANCH  10  11
ATOM     11  C   UNL     1      -2.029   7.655  -4.114  0.00  0.00    +0.120 C 
BRANCH  11  12
ATOM     12  N   UNL     1      -2.477   6.793  -3.021  0.00  0.00    -0.267 NA
ATOM     13  C   UNL     1      -1.365   6.641  -2.106  0.00  0.00    +0.090 C 
ATOM     14  C   UNL     1      -2.822   5.512  -3.630  0.00  0.00    +0.090 C 
ENDBRANCH  11  12
ENDBRANCH  10  11
ENDBRANCH   9  10
ENDBRANCH   7   9
ENDBRANCH   4   7
BRANCH   1  15
ATOM     15  N   UNL     1       4.276   5.262  -9.644  0.00  0.00    -0.238 NA
BRANCH  15  16
ATOM     16  C   UNL     1       5.344   5.577 -10.579  0.00  0.00    +0.112 C 
BRANCH  16  17
ATOM     17  C   UNL     1       6.637   5.927  -9.881  0.00  0.00    +0.023 C 
BRANCH  17  19
ATOM     18  C   UNL     1       6.332   7.947 -11.344  0.00  0.00    +0.000 C 
ATOM     19  C   UNL     1       7.313   7.042 -10.652  0.00  0.00    +0.002 C 
ENDBRANCH  17  19
ENDBRANCH  16  17
ENDBRANCH  15  16
ENDBRANCH   1  15
TORSDOF 9
ENDMDL
