MODEL 1
REMARK VINA RESULT:     -10.2      0.000      0.000
REMARK  Name = 
REMARK  5 active torsions:
REMARK  status: ('A' for Active; 'I' for Inactive)
REMARK    1  A    between atoms: C_4  and  C_5
REMARK    2  A    between atoms: C_15  and  C_16
REMARK    3  A    between atoms: C_16  and  C_18
REMARK    4  A    between atoms: C_19  and  C_20
REMARK    5  A    between atoms: C_20  and  C_22
REMARK                            x       y       z     vdW  Elec       q    Type
REMARK                         _______ _______ _______ _____ _____    ______ ____
ROOT
ATOM      1  C   UNL     1       4.134   6.810  -9.533  0.00  0.00    -0.009 C 
ATOM      2  C   UNL     1       2.932   6.285  -9.543  0.00  0.00    -0.045 C 
ATOM      3  C   UNL     1       1.817   7.147  -8.773  0.00  0.00    +0.018 C 
ATOM      4  C   UNL     1       2.742   7.298  -7.439  0.00  0.00    +0.004 C 
ATOM      5  C   UNL     1       2.014   6.627  -6.398  0.00  0.00    +0.001 C 
ATOM      6  C   UNL     1       0.507   6.652  -7.001  0.00  0.00    +0.004 C 
ATOM      7  C   UNL     1       1.053   5.798  -8.245  0.00  0.00    +0.004 C 
ATOM      8  C   UNL     1       1.962   4.768  -7.863  0.00  0.00    +0.000 C 
ATOM      9  C   UNL     1       0.111   5.670  -9.335  0.00  0.00    +0.001 C 
ATOM     10  C   UNL     1       0.840   5.415 -10.598  0.00  0.00    +0.004 C 
ATOM     11  C   UNL     1       2.283   5.625 -10.673  0.00  0.00    +0.022 C 
ENDROOT
BRANCH   1  21
ATOM     12  C   UNL     1       6.389   6.084  -9.235  0.00  0.00    -0.002 C 
ATOM     13  C   UNL     1       6.649   6.266 -10.233  0.00  0.00    +0.004 C 
ATOM     14  C   UNL     1       8.138   6.094 -10.847  0.00  0.00    +0.176 C 
ATOM     15  O   UNL     1       8.411   4.880  -9.964  0.00  0.00    -0.218 OA
ATOM     16  C   UNL     1       7.758   5.127 -12.129  0.00  0.00    +0.071 C 
ATOM     17  C   UNL     1       6.130   5.199 -12.241  0.00  0.00    +0.159 C 
ATOM     18  O   UNL     1       6.122   4.838 -13.714  0.00  0.00    -0.223 OA
ATOM     19  C   UNL     1       6.171   6.821 -12.576  0.00  0.00    +0.059 C 
ATOM     20  C   UNL     1       5.950   7.211 -11.131  0.00  0.00    -0.021 C 
ATOM     21  C   UNL     1       4.646   7.254 -10.843  0.00  0.00    -0.005 C 
ENDBRANCH   1  21
BRANCH   6  22
ATOM     22  C   UNL     1       0.081   5.349  -5.998  0.00  0.00    +0.022 C 
ATOM     23  C   UNL     1      -1.376   5.154  -6.682  0.00  0.00    +0.005 C 
BRANCH  22  24
ATOM     24  C   UNL     1      -0.490   6.350  -4.898  0.00  0.00    -0.031 C 
ATOM     25  C   UNL     1      -0.047   6.311  -3.687  0.00  0.00    -0.031 C 
BRANCH  25  26
ATOM     26  C   UNL     1       0.849   5.062  -3.227  0.00  0.00    +0.022 C 
ATOM     27  C   UNL     1       0.272   5.094  -1.698  0.00  0.00    +0.005 C 
BRANCH  26  28
ATOM     28  C   UNL     1       2.121   6.020  -2.861  0.00  0.00    +0.004 C 
ATOM     29  C   UNL     1       1.982   6.309  -1.394  0.00  0.00    +0.000 C 
ATOM     30  C   UNL     1       3.363   5.236  -3.158  0.00  0.00    +0.000 C 
ENDBRANCH  26  28
ENDBRANCH  25  26
ENDBRANCH  22  24
ENDBRANCH   6  22
TORSDOF 5
ENDMDL
MODEL 2
REMARK VINA RESULT:      -9.7      3.745      8.910
REMARK  Name = 
REMARK  5 active torsions:
REMARK  status: ('A' for Active; 'I' for Inactive)
REMARK    1  A    between atoms: C_4  and  C_5
REMARK    2  A    between atoms: C_15  and  C_16
REMARK    3  A    between atoms: C_16  and  C_18
REMARK    4  A    between atoms: C_19  and  C_20
REMARK    5  A    between atoms: C_20  and  C_22
REMARK                            x       y       z     vdW  Elec       q    Type
REMARK                         _______ _______ _______ _____ _____    ______ ____
ROOT
ATOM      1  C   UNL     1       0.801   5.647  -3.523  0.00  0.00    -0.009 C 
ATOM      2  C   UNL     1       0.291   5.712  -4.729  0.00  0.00    -0.045 C 
ATOM      3  C   UNL     1       0.746   4.531  -5.717  0.00  0.00    +0.018 C 
ATOM      4  C   UNL     1       2.325   4.746  -5.374  0.00  0.00    +0.004 C 
ATOM      5  C   UNL     1       2.929   5.141  -6.617  0.00  0.00    +0.001 C 
ATOM      6  C   UNL     1       1.849   4.571  -7.687  0.00  0.00    +0.004 C 
ATOM      7  C   UNL     1       0.758   5.535  -7.010  0.00  0.00    +0.004 C 
ATOM      8  C   UNL     1       1.269   6.828  -6.695  0.00  0.00    +0.000 C 
ATOM      9  C   UNL     1      -0.598   5.296  -7.452  0.00  0.00    +0.001 C 
ATOM     10  C   UNL     1      -1.550   5.763  -6.419  0.00  0.00    +0.004 C 
ATOM     11  C   UNL     1      -1.082   6.074  -5.072  0.00  0.00    +0.022 C 
ENDROOT
BRANCH   1  21
ATOM     12  C   UNL     1       2.102   6.558  -1.740  0.00  0.00    -0.002 C 
ATOM     13  C   UNL     1       1.316   6.498  -1.050  0.00  0.00    +0.004 C 
ATOM     14  C   UNL     1       1.437   6.874   0.521  0.00  0.00    +0.176 C 
ATOM     15  O   UNL     1       2.399   8.019   0.221  0.00  0.00    -0.218 OA
ATOM     16  C   UNL     1       0.161   7.916   0.617  0.00  0.00    +0.071 C 
ATOM     17  C   UNL     1      -0.667   7.696  -0.774  0.00  0.00    +0.159 C 
ATOM     18  O   UNL     1      -1.972   8.192  -0.186  0.00  0.00    -0.223 OA
ATOM     19  C   UNL     1      -1.016   6.125  -0.380  0.00  0.00    +0.059 C 
ATOM     20  C   UNL     1       0.162   5.579  -1.157  0.00  0.00    -0.021 C 
ATOM     21  C   UNL     1      -0.162   5.382  -2.438  0.00  0.00    -0.005 C 
ENDBRANCH   1  21
BRANCH   6  22
ATOM     22  C   UNL     1       2.426   5.663  -8.854  0.00  0.00    +0.022 C 
ATOM     23  C   UNL     1       1.388   5.164  -9.996  0.00  0.00    +0.005 C 
BRANCH  22  24
ATOM     24  C   UNL     1       3.541   4.622  -9.312  0.00  0.00    -0.031 C 
ATOM     25  C   UNL     1       4.657   5.037  -9.810  0.00  0.00    -0.031 C 
BRANCH  25  26
ATOM     26  C   UNL     1       4.790   6.577 -10.241  0.00  0.00    +0.022 C 
ATOM     27  C   UNL     1       4.302   6.284 -11.773  0.00  0.00    +0.005 C 
BRANCH  26  28
ATOM     28  C   UNL     1       6.371   6.407 -10.620  0.00  0.00    +0.004 C 
ATOM     29  C   UNL     1       6.811   7.768 -11.074  0.00  0.00    +0.000 C 
ATOM     30  C   UNL     1       7.080   5.981  -9.370  0.00  0.00    +0.000 C 
ENDBRANCH  26  28
ENDBRANCH  25  26
ENDBRANCH  22  24
ENDBRANCH   6  22
TORSDOF 5
ENDMDL
MODEL 3
REMARK VINA RESULT:      -9.5      2.067      4.529
REMARK  Name = 
REMARK  5 active torsions:
REMARK  status: ('A' for Active; 'I' for Inactive)
REMARK    1  A    between atoms: C_4  and  C_5
REMARK    2  A    between atoms: C_15  and  C_16
REMARK    3  A    between atoms: C_16  and  C_18
REMARK    4  A    between atoms: C_19  and  C_20
REMARK    5  A    between atoms: C_20  and  C_22
REMARK                            x       y       z     vdW  Elec       q    Type
REMARK                         _______ _______ _______ _____ _____    ______ ____
ROOT
ATOM      1  C   UNL     1       3.875   5.667  -7.141  0.00  0.00    -0.009 C 
ATOM      2  C   UNL     1       4.035   6.072  -5.904  0.00  0.00    -0.045 C 
ATOM      3  C   UNL     1       3.577   5.014  -4.786  0.00  0.00    +0.018 C 
ATOM      4  C   UNL     1       2.128   4.774  -5.494  0.00  0.00    +0.004 C 
ATOM      5  C   UNL     1       1.160   5.229  -4.534  0.00  0.00    +0.001 C 
ATOM      6  C   UNL     1       2.017   5.141  -3.157  0.00  0.00    +0.004 C 
ATOM      7  C   UNL     1       3.039   6.202  -3.796  0.00  0.00    +0.004 C 
ATOM      8  C   UNL     1       2.388   7.253  -4.505  0.00  0.00    +0.000 C 
ATOM      9  C   UNL     1       4.255   6.384  -3.034  0.00  0.00    +0.001 C 
ATOM     10  C   UNL     1       5.333   6.874  -3.924  0.00  0.00    +0.004 C 
ATOM     11  C   UNL     1       5.177   6.812  -5.373  0.00  0.00    +0.022 C 
ENDROOT
BRANCH   1  21
ATOM     12  C   UNL     1       2.861   5.386  -9.284  0.00  0.00    -0.002 C 
ATOM     13  C   UNL     1       3.777   5.409  -9.792  0.00  0.00    +0.004 C 
ATOM     14  C   UNL     1       3.955   5.179 -11.386  0.00  0.00    +0.176 C 
ATOM     15  O   UNL     1       2.645   5.904 -11.683  0.00  0.00    -0.218 OA
ATOM     16  C   UNL     1       4.830   6.537 -11.727  0.00  0.00    +0.071 C 
ATOM     17  C   UNL     1       5.299   7.110 -10.271  0.00  0.00    +0.159 C 
ATOM     18  O   UNL     1       6.495   7.846 -10.842  0.00  0.00    -0.223 OA
ATOM     19  C   UNL     1       6.201   5.754  -9.967  0.00  0.00    +0.059 C 
ATOM     20  C   UNL     1       5.089   5.086  -9.190  0.00  0.00    -0.021 C 
ATOM     21  C   UNL     1       5.118   5.452  -7.906  0.00  0.00    -0.005 C 
ENDBRANCH   1  21
BRANCH   6  22
ATOM     22  C   UNL     1       0.960   6.253  -2.427  0.00  0.00    +0.022 C 
ATOM     23  C   UNL     1       1.563   6.019  -0.940  0.00  0.00    +0.005 C 
BRANCH  22  24
ATOM     24  C   UNL     1      -0.141   5.118  -2.237  0.00  0.00    -0.031 C 
ATOM     25  C   UNL     1      -1.395   5.398  -2.354  0.00  0.00    -0.031 C 
BRANCH  25  26
ATOM     26  C   UNL     1      -1.847   6.938  -2.390  0.00  0.00    +0.022 C 
ATOM     27  C   UNL     1      -3.436   6.564  -2.470  0.00  0.00    +0.005 C 
BRANCH  26  28
ATOM     28  C   UNL     1      -1.694   7.017  -4.015  0.00  0.00    +0.004 C 
ATOM     29  C   UNL     1      -2.745   6.089  -4.551  0.00  0.00    +0.000 C 
ATOM     30  C   UNL     1      -1.952   8.439  -4.412  0.00  0.00    +0.000 C 
ENDBRANCH  26  28
ENDBRANCH  25  26
ENDBRANCH  22  24
ENDBRANCH   6  22
TORSDOF 5
ENDMDL
MODEL 4
REMARK VINA RESULT:      -9.3      3.117      8.248
REMARK  Name = 
REMARK  5 active torsions:
REMARK  status: ('A' for Active; 'I' for Inactive)
REMARK    1  A    between atoms: C_4  and  C_5
REMARK    2  A    between atoms: C_15  and  C_16
REMARK    3  A    between atoms: C_16  and  C_18
REMARK    4  A    between atoms: C_19  and  C_20
REMARK    5  A    between atoms: C_20  and  C_22
REMARK                            x       y       z     vdW  Elec       q    Type
REMARK                         _______ _______ _______ _____ _____    ______ ____
ROOT
ATOM      1  C   UNL     1       1.828   5.772  -5.061  0.00  0.00    -0.009 C 
ATOM      2  C   UNL     1       1.309   5.797  -6.265  0.00  0.00    -0.045 C 
ATOM      3  C   UNL     1       1.957   4.752  -7.298  0.00  0.00    +0.018 C 
ATOM      4  C   UNL     1       3.476   5.223  -6.943  0.00  0.00    +0.004 C 
ATOM      5  C   UNL     1       3.998   5.766  -8.167  0.00  0.00    +0.001 C 
ATOM      6  C   UNL     1       3.028   5.061  -9.263  0.00  0.00    +0.004 C 
ATOM      7  C   UNL     1       1.790   5.794  -8.550  0.00  0.00    +0.004 C 
ATOM      8  C   UNL     1       2.072   7.142  -8.182  0.00  0.00    +0.000 C 
ATOM      9  C   UNL     1       0.494   5.343  -9.005  0.00  0.00    +0.001 C 
ATOM     10  C   UNL     1      -0.521   5.597  -7.957  0.00  0.00    +0.004 C 
ATOM     11  C   UNL     1      -0.108   5.930  -6.597  0.00  0.00    +0.022 C 
ENDROOT
BRANCH   1  21
ATOM     12  C   UNL     1       3.493   5.506  -3.371  0.00  0.00    -0.002 C 
ATOM     13  C   UNL     1       2.789   5.341  -2.612  0.00  0.00    +0.004 C 
ATOM     14  C   UNL     1       3.154   4.971  -1.078  0.00  0.00    +0.176 C 
ATOM     15  O   UNL     1       4.382   5.876  -1.103  0.00  0.00    -0.218 OA
ATOM     16  C   UNL     1       2.258   6.138  -0.330  0.00  0.00    +0.071 C 
ATOM     17  C   UNL     1       1.283   6.732  -1.499  0.00  0.00    +0.159 C 
ATOM     18  O   UNL     1       0.241   7.219  -0.511  0.00  0.00    -0.223 OA
ATOM     19  C   UNL     1       0.520   5.272  -1.678  0.00  0.00    +0.059 C 
ATOM     20  C   UNL     1       1.410   4.853  -2.827  0.00  0.00    -0.021 C 
ATOM     21  C   UNL     1       0.930   5.302  -3.990  0.00  0.00    -0.005 C 
ENDBRANCH   1  21
BRANCH   6  22
ATOM     22  C   UNL     1       3.402   6.282 -10.383  0.00  0.00    +0.022 C 
ATOM     23  C   UNL     1       2.224   5.854 -11.412  0.00  0.00    +0.005 C 
BRANCH  22  24
ATOM     24  C   UNL     1       4.467   5.335 -11.096  0.00  0.00    -0.031 C 
ATOM     25  C   UNL     1       5.696   5.707 -11.215  0.00  0.00    -0.031 C 
BRANCH  25  26
ATOM     26  C   UNL     1       6.077   7.237 -10.919  0.00  0.00    +0.022 C 
ATOM     27  C   UNL     1       6.446   7.543 -12.480  0.00  0.00    +0.005 C 
BRANCH  26  28
ATOM     28  C   UNL     1       7.618   6.854 -10.537  0.00  0.00    +0.004 C 
ATOM     29  C   UNL     1       7.509   5.915  -9.370  0.00  0.00    +0.000 C 
ATOM     30  C   UNL     1       8.215   6.182 -11.737  0.00  0.00    +0.000 C 
ENDBRANCH  26  28
ENDBRANCH  25  26
ENDBRANCH  22  24
ENDBRANCH   6  22
TORSDOF 5
ENDMDL
MODEL 5
REMARK VINA RESULT:      -9.1      3.326      8.467
REMARK  Name = 
REMARK  5 active torsions:
REMARK  status: ('A' for Active; 'I' for Inactive)
REMARK    1  A    between atoms: C_4  and  C_5
REMARK    2  A    between atoms: C_15  and  C_16
REMARK    3  A    between atoms: C_16  and  C_18
REMARK    4  A    between atoms: C_19  and  C_20
REMARK    5  A    between atoms: C_20  and  C_22
REMARK                            x       y       z     vdW  Elec       q    Type
REMARK                         _______ _______ _______ _____ _____    ______ ____
ROOT
ATOM      1  C   UNL     1       2.581   6.343  -3.947  0.00  0.00    -0.009 C 
ATOM      2  C   UNL     1       1.888   6.307  -5.060  0.00  0.00    -0.045 C 
ATOM      3  C   UNL     1       2.266   5.099  -6.049  0.00  0.00    +0.018 C 
ATOM      4  C   UNL     1       3.860   5.429  -5.970  0.00  0.00    +0.004 C 
ATOM      5  C   UNL     1       4.238   5.787  -7.309  0.00  0.00    +0.001 C 
ATOM      6  C   UNL     1       3.048   5.091  -8.168  0.00  0.00    +0.004 C 
ATOM      7  C   UNL     1       2.010   6.025  -7.375  0.00  0.00    +0.004 C 
ATOM      8  C   UNL     1       2.474   7.363  -7.207  0.00  0.00    +0.000 C 
ATOM      9  C   UNL     1       0.622   5.680  -7.587  0.00  0.00    +0.001 C 
ATOM     10  C   UNL     1      -0.190   6.149  -6.441  0.00  0.00    +0.004 C 
ATOM     11  C   UNL     1       0.457   6.565  -5.200  0.00  0.00    +0.022 C 
ENDROOT
BRANCH   1  21
ATOM     12  C   UNL     1       4.428   6.397  -2.435  0.00  0.00    -0.002 C 
ATOM     13  C   UNL     1       3.816   6.380  -1.585  0.00  0.00    +0.004 C 
ATOM     14  C   UNL     1       4.356   6.305  -0.060  0.00  0.00    +0.176 C 
ATOM     15  O   UNL     1       5.555   7.187  -0.392  0.00  0.00    -0.218 OA
ATOM     16  C   UNL     1       3.526   7.594   0.552  0.00  0.00    +0.071 C 
ATOM     17  C   UNL     1       2.415   7.958  -0.590  0.00  0.00    +0.159 C 
ATOM     18  O   UNL     1       1.480   8.624   0.400  0.00  0.00    -0.223 OA
ATOM     19  C   UNL     1       1.666   6.492  -0.405  0.00  0.00    +0.059 C 
ATOM     20  C   UNL     1       2.431   5.862  -1.548  0.00  0.00    -0.021 C 
ATOM     21  C   UNL     1       1.816   6.085  -2.713  0.00  0.00    -0.005 C 
ENDBRANCH   1  21
BRANCH   6  22
ATOM     22  C   UNL     1       3.362   6.145  -9.462  0.00  0.00    +0.022 C 
ATOM     23  C   UNL     1       2.147   5.572 -10.370  0.00  0.00    +0.005 C 
BRANCH  22  24
ATOM     24  C   UNL     1       4.406   5.114 -10.081  0.00  0.00    -0.031 C 
ATOM     25  C   UNL     1       5.525   5.530 -10.570  0.00  0.00    -0.031 C 
BRANCH  25  26
ATOM     26  C   UNL     1       5.723   7.102 -10.825  0.00  0.00    +0.022 C 
ATOM     27  C   UNL     1       5.820   6.919 -12.446  0.00  0.00    +0.005 C 
BRANCH  26  28
ATOM     28  C   UNL     1       7.342   7.001 -10.629  0.00  0.00    +0.004 C 
ATOM     29  C   UNL     1       7.536   6.093  -9.450  0.00  0.00    +0.000 C 
ATOM     30  C   UNL     1       7.902   6.407 -11.887  0.00  0.00    +0.000 C 
ENDBRANCH  26  28
ENDBRANCH  25  26
ENDBRANCH  22  24
ENDBRANCH   6  22
TORSDOF 5
ENDMDL
MODEL 6
REMARK VINA RESULT:      -9.1      3.836      9.069
REMARK  Name = 
REMARK  5 active torsions:
REMARK  status: ('A' for Active; 'I' for Inactive)
REMARK    1  A    between atoms: C_4  and  C_5
REMARK    2  A    between atoms: C_15  and  C_16
REMARK    3  A    between atoms: C_16  and  C_18
REMARK    4  A    between atoms: C_19  and  C_20
REMARK    5  A    between atoms: C_20  and  C_22
REMARK                            x       y       z     vdW  Elec       q    Type
REMARK                         _______ _______ _______ _____ _____    ______ ____
ROOT
ATOM      1  C   UNL     1       1.009   5.434  -5.442  0.00  0.00    -0.009 C 
ATOM      2  C   UNL     1       2.277   5.282  -5.740  0.00  0.00    -0.045 C 
ATOM      3  C   UNL     1       2.923   6.494  -6.571  0.00  0.00    +0.018 C 
ATOM      4  C   UNL     1       1.716   6.489  -7.667  0.00  0.00    +0.004 C 
ATOM      5  C   UNL     1       2.342   6.153  -8.915  0.00  0.00    +0.001 C 
ATOM      6  C   UNL     1       3.885   6.560  -8.614  0.00  0.00    +0.004 C 
ATOM      7  C   UNL     1       3.877   5.477  -7.429  0.00  0.00    +0.004 C 
ATOM      8  C   UNL     1       3.211   4.266  -7.780  0.00  0.00    +0.000 C 
ATOM      9  C   UNL     1       5.039   5.530  -6.570  0.00  0.00    +0.001 C 
ATOM     10  C   UNL     1       4.706   4.964  -5.243  0.00  0.00    +0.004 C 
ATOM     11  C   UNL     1       3.314   4.740  -4.865  0.00  0.00    +0.022 C 
ENDROOT
BRANCH   1  21
ATOM     12  C   UNL     1      -0.698   7.087  -5.678  0.00  0.00    -0.002 C 
ATOM     13  C   UNL     1      -0.981   7.032  -4.671  0.00  0.00    +0.004 C 
ATOM     14  C   UNL     1      -2.099   7.973  -3.973  0.00  0.00    +0.176 C 
ATOM     15  O   UNL     1      -2.953   7.977  -5.238  0.00  0.00    -0.218 OA
ATOM     16  C   UNL     1      -3.027   6.785  -3.301  0.00  0.00    +0.071 C 
ATOM     17  C   UNL     1      -2.122   5.430  -3.416  0.00  0.00    +0.159 C 
ATOM     18  O   UNL     1      -2.827   4.749  -2.260  0.00  0.00    -0.223 OA
ATOM     19  C   UNL     1      -0.958   6.058  -2.418  0.00  0.00    +0.059 C 
ATOM     20  C   UNL     1      -0.115   6.552  -3.572  0.00  0.00    -0.021 C 
ATOM     21  C   UNL     1       0.706   5.593  -4.007  0.00  0.00    -0.005 C 
ENDBRANCH   1  21
BRANCH   6  22
ATOM     22  C   UNL     1       4.403   5.530  -9.862  0.00  0.00    +0.022 C 
ATOM     23  C   UNL     1       5.975   5.850  -9.624  0.00  0.00    +0.005 C 
BRANCH  22  24
ATOM     24  C   UNL     1       4.251   6.705 -10.927  0.00  0.00    -0.031 C 
ATOM     25  C   UNL     1       4.169   6.438 -12.187  0.00  0.00    -0.031 C 
BRANCH  25  26
ATOM     26  C   UNL     1       4.523   4.957 -12.692  0.00  0.00    +0.022 C 
ATOM     27  C   UNL     1       5.912   5.434 -13.407  0.00  0.00    +0.005 C 
BRANCH  26  28
ATOM     28  C   UNL     1       3.652   5.140 -14.062  0.00  0.00    +0.004 C 
ATOM     29  C   UNL     1       2.249   5.406 -13.600  0.00  0.00    +0.000 C 
ATOM     30  C   UNL     1       4.227   6.313 -14.796  0.00  0.00    +0.000 C 
ENDBRANCH  26  28
ENDBRANCH  25  26
ENDBRANCH  22  24
ENDBRANCH   6  22
TORSDOF 5
ENDMDL
MODEL 7
REMARK VINA RESULT:      -8.8      3.192      8.413
REMARK  Name = 
REMARK  5 active torsions:
REMARK  status: ('A' for Active; 'I' for Inactive)
REMARK    1  A    between atoms: C_4  and  C_5
REMARK    2  A    between atoms: C_15  and  C_16
REMARK    3  A    between atoms: C_16  and  C_18
REMARK    4  A    between atoms: C_19  and  C_20
REMARK    5  A    between atoms: C_20  and  C_22
REMARK                            x       y       z     vdW  Elec       q    Type
REMARK                         _______ _______ _______ _____ _____    ______ ____
ROOT
ATOM      1  C   UNL     1       0.601   5.595  -7.886  0.00  0.00    -0.009 C 
ATOM      2  C   UNL     1       0.581   5.922  -9.156  0.00  0.00    -0.045 C 
ATOM      3  C   UNL     1       1.222   4.828 -10.141  0.00  0.00    +0.018 C 
ATOM      4  C   UNL     1       2.579   4.702  -9.246  0.00  0.00    +0.004 C 
ATOM      5  C   UNL     1       3.639   5.150 -10.105  0.00  0.00    +0.001 C 
ATOM      6  C   UNL     1       2.968   4.943 -11.569  0.00  0.00    +0.004 C 
ATOM      7  C   UNL     1       1.829   5.985 -11.128  0.00  0.00    +0.004 C 
ATOM      8  C   UNL     1       2.339   7.105 -10.410  0.00  0.00    +0.000 C 
ATOM      9  C   UNL     1       0.712   6.063 -12.044  0.00  0.00    +0.001 C 
ATOM     10  C   UNL     1      -0.490   6.546 -11.327  0.00  0.00    +0.004 C 
ATOM     11  C   UNL     1      -0.516   6.573  -9.867  0.00  0.00    +0.022 C 
ENDROOT
BRANCH   1  21
ATOM     12  C   UNL     1       1.340   5.534  -5.617  0.00  0.00    -0.002 C 
ATOM     13  C   UNL     1       0.366   5.537  -5.231  0.00  0.00    +0.004 C 
ATOM     14  C   UNL     1      -0.005   5.415  -3.659  0.00  0.00    +0.176 C 
ATOM     15  O   UNL     1       1.215   6.238  -3.259  0.00  0.00    -0.218 OA
ATOM     16  C   UNL     1      -0.987   6.737  -3.541  0.00  0.00    +0.071 C 
ATOM     17  C   UNL     1      -1.291   7.173  -5.086  0.00  0.00    +0.159 C 
ATOM     18  O   UNL     1      -2.588   7.873  -4.731  0.00  0.00    -0.223 OA
ATOM     19  C   UNL     1      -2.075   5.745  -5.391  0.00  0.00    +0.059 C 
ATOM     20  C   UNL     1      -0.838   5.091  -5.965  0.00  0.00    -0.021 C 
ATOM     21  C   UNL     1      -0.718   5.361  -7.268  0.00  0.00    -0.005 C 
ENDBRANCH   1  21
BRANCH   6  22
ATOM     22  C   UNL     1       4.059   6.065 -12.231  0.00  0.00    +0.022 C 
ATOM     23  C   UNL     1       3.633   5.745 -13.762  0.00  0.00    +0.005 C 
BRANCH  22  24
ATOM     24  C   UNL     1       5.214   4.968 -12.247  0.00  0.00    -0.031 C 
ATOM     25  C   UNL     1       6.455   5.324 -12.244  0.00  0.00    -0.031 C 
BRANCH  25  26
ATOM     26  C   UNL     1       6.822   6.860 -12.527  0.00  0.00    +0.022 C 
ATOM     27  C   UNL     1       7.668   6.504 -13.878  0.00  0.00    +0.005 C 
BRANCH  26  28
ATOM     28  C   UNL     1       8.147   6.792 -11.574  0.00  0.00    +0.004 C 
ATOM     29  C   UNL     1       7.624   6.491 -10.199  0.00  0.00    +0.000 C 
ATOM     30  C   UNL     1       9.009   5.682 -12.096  0.00  0.00    +0.000 C 
ENDBRANCH  26  28
ENDBRANCH  25  26
ENDBRANCH  22  24
ENDBRANCH   6  22
TORSDOF 5
ENDMDL
MODEL 8
REMARK VINA RESULT:      -8.7      3.993      9.175
REMARK  Name = 
REMARK  5 active torsions:
REMARK  status: ('A' for Active; 'I' for Inactive)
REMARK    1  A    between atoms: C_4  and  C_5
REMARK    2  A    between atoms: C_15  and  C_16
REMARK    3  A    between atoms: C_16  and  C_18
REMARK    4  A    between atoms: C_19  and  C_20
REMARK    5  A    between atoms: C_20  and  C_22
REMARK                            x       y       z     vdW  Elec       q    Type
REMARK                         _______ _______ _______ _____ _____    ______ ____
ROOT
ATOM      1  C   UNL     1       0.602   6.118  -2.634  0.00  0.00    -0.009 C 
ATOM      2  C   UNL     1      -0.043   6.187  -3.774  0.00  0.00    -0.045 C 
ATOM      3  C   UNL     1       0.209   4.949  -4.765  0.00  0.00    +0.018 C 
ATOM      4  C   UNL     1       1.828   5.059  -4.618  0.00  0.00    +0.004 C 
ATOM      5  C   UNL     1       2.306   5.374  -5.936  0.00  0.00    +0.001 C 
ATOM      6  C   UNL     1       1.069   4.855  -6.852  0.00  0.00    +0.004 C 
ATOM      7  C   UNL     1       0.136   5.913  -6.086  0.00  0.00    +0.004 C 
ATOM      8  C   UNL     1       0.768   7.174  -5.879  0.00  0.00    +0.000 C 
ATOM      9  C   UNL     1      -1.277   5.762  -6.358  0.00  0.00    +0.001 C 
ATOM     10  C   UNL     1      -2.065   6.326  -5.238  0.00  0.00    +0.004 C 
ATOM     11  C   UNL     1      -1.419   6.638  -3.967  0.00  0.00    +0.022 C 
ENDROOT
BRANCH   1  21
ATOM     12  C   UNL     1       2.104   7.120  -1.073  0.00  0.00    -0.002 C 
ATOM     13  C   UNL     1       1.398   7.128  -0.299  0.00  0.00    +0.004 C 
ATOM     14  C   UNL     1       1.696   7.610   1.218  0.00  0.00    +0.176 C 
ATOM     15  O   UNL     1       2.638   8.707   0.734  0.00  0.00    -0.218 OA
ATOM     16  C   UNL     1       0.456   8.687   1.375  0.00  0.00    +0.071 C 
ATOM     17  C   UNL     1      -0.522   8.390   0.101  0.00  0.00    +0.159 C 
ATOM     18  O   UNL     1      -1.747   8.959   0.789  0.00  0.00    -0.223 OA
ATOM     19  C   UNL     1      -0.853   6.860   0.643  0.00  0.00    +0.059 C 
ATOM     20  C   UNL     1       0.224   6.232  -0.215  0.00  0.00    -0.021 C 
ATOM     21  C   UNL     1      -0.242   5.953  -1.435  0.00  0.00    -0.005 C 
ENDBRANCH   1  21
BRANCH   6  22
ATOM     22  C   UNL     1       1.576   5.870  -8.116  0.00  0.00    +0.022 C 
ATOM     23  C   UNL     1       0.354   5.447  -9.095  0.00  0.00    +0.005 C 
BRANCH  22  24
ATOM     24  C   UNL     1       2.525   4.725  -8.687  0.00  0.00    -0.031 C 
ATOM     25  C   UNL     1       3.616   5.027  -9.305  0.00  0.00    -0.031 C 
BRANCH  25  26
ATOM     26  C   UNL     1       3.857   6.548  -9.756  0.00  0.00    +0.022 C 
ATOM     27  C   UNL     1       3.377   6.264 -11.292  0.00  0.00    +0.005 C 
BRANCH  26  28
ATOM     28  C   UNL     1       5.429   6.271 -10.103  0.00  0.00    +0.004 C 
ATOM     29  C   UNL     1       5.945   5.458  -8.952  0.00  0.00    +0.000 C 
ATOM     30  C   UNL     1       5.467   5.501 -11.389  0.00  0.00    +0.000 C 
ENDBRANCH  26  28
ENDBRANCH  25  26
ENDBRANCH  22  24
ENDBRANCH   6  22
TORSDOF 5
ENDMDL
MODEL 9
REMARK VINA RESULT:      -8.4      2.730      4.991
REMARK  Name = 
REMARK  5 active torsions:
REMARK  status: ('A' for Active; 'I' for Inactive)
REMARK    1  A    between atoms: C_4  and  C_5
REMARK    2  A    between atoms: C_15  and  C_16
REMARK    3  A    between atoms: C_16  and  C_18
REMARK    4  A    between atoms: C_19  and  C_20
REMARK    5  A    between atoms: C_20  and  C_22
REMARK                            x       y       z     vdW  Elec       q    Type
REMARK                         _______ _______ _______ _____ _____    ______ ____
ROOT
ATOM      1  C   UNL     1       1.096   4.913  -8.885  0.00  0.00    -0.009 C 
ATOM      2  C   UNL     1       2.281   5.217  -8.411  0.00  0.00    -0.045 C 
ATOM      3  C   UNL     1       2.777   4.289  -7.197  0.00  0.00    +0.018 C 
ATOM      4  C   UNL     1       1.383   4.482  -6.376  0.00  0.00    +0.004 C 
ATOM      5  C   UNL     1       1.751   5.154  -5.161  0.00  0.00    +0.001 C 
ATOM      6  C   UNL     1       3.330   4.788  -5.065  0.00  0.00    +0.004 C 
ATOM      7  C   UNL     1       3.530   5.546  -6.466  0.00  0.00    +0.004 C 
ATOM      8  C   UNL     1       2.787   6.759  -6.559  0.00  0.00    +0.000 C 
ATOM      9  C   UNL     1       4.836   5.360  -7.058  0.00  0.00    +0.001 C 
ATOM     10  C   UNL     1       4.754   5.563  -8.523  0.00  0.00    +0.004 C 
ATOM     11  C   UNL     1       3.457   5.595  -9.191  0.00  0.00    +0.022 C 
ENDROOT
BRANCH   1  21
ATOM     12  C   UNL     1      -0.229   6.651  -9.846  0.00  0.00    -0.002 C 
ATOM     13  C   UNL     1      -0.066   6.322 -10.827  0.00  0.00    +0.004 C 
ATOM     14  C   UNL     1      -0.747   6.973 -12.144  0.00  0.00    +0.176 C 
ATOM     15  O   UNL     1      -0.666   8.375 -11.550  0.00  0.00    -0.218 OA
ATOM     16  C   UNL     1       0.627   7.223 -13.025  0.00  0.00    +0.071 C 
ATOM     17  C   UNL     1       1.786   6.377 -12.245  0.00  0.00    +0.159 C 
ATOM     18  O   UNL     1       2.648   6.237 -13.484  0.00  0.00    -0.223 OA
ATOM     19  C   UNL     1       1.015   4.941 -12.545  0.00  0.00    +0.059 C 
ATOM     20  C   UNL     1       0.310   4.943 -11.207  0.00  0.00    -0.021 C 
ATOM     21  C   UNL     1       1.078   4.389 -10.264  0.00  0.00    -0.005 C 
ENDBRANCH   1  21
BRANCH   6  22
ATOM     22  C   UNL     1       3.580   6.123  -4.045  0.00  0.00    +0.022 C 
ATOM     23  C   UNL     1       5.192   5.949  -4.027  0.00  0.00    +0.005 C 
BRANCH  22  24
ATOM     24  C   UNL     1       3.396   5.204  -2.757  0.00  0.00    -0.031 C 
ATOM     25  C   UNL     1       3.099   5.729  -1.616  0.00  0.00    -0.031 C 
BRANCH  25  26
ATOM     26  C   UNL     1       3.215   7.319  -1.439  0.00  0.00    +0.022 C 
ATOM     27  C   UNL     1       4.642   7.219  -0.649  0.00  0.00    +0.005 C 
BRANCH  26  28
ATOM     28  C   UNL     1       2.347   7.300  -0.055  0.00  0.00    +0.004 C 
ATOM     29  C   UNL     1       2.319   8.728   0.407  0.00  0.00    +0.000 C 
ATOM     30  C   UNL     1       0.978   6.800  -0.401  0.00  0.00    +0.000 C 
ENDBRANCH  26  28
ENDBRANCH  25  26
ENDBRANCH  22  24
ENDBRANCH   6  22
TORSDOF 5
ENDMDL
