MODEL 1
REMARK VINA RESULT:      -8.8      0.000      0.000
REMARK  Name = 
REMARK  11 active torsions:
REMARK  status: ('A' for Active; 'I' for Inactive)
REMARK    1  A    between atoms: O_2  and  C_3
REMARK    2  A    between atoms: C_3  and  C_5
REMARK    3  A    between atoms: C_11  and  C_12
REMARK    4  A    between atoms: C_12  and  O_14
REMARK    5  A    between atoms: O_14  and  C_15
REMARK    6  A    between atoms: C_15  and  C_16
REMARK    7  A    between atoms: C_16  and  N_17
REMARK    8  A    between atoms: N_17  and  C_19
REMARK    9  A    between atoms: C_19  and  C_20
REMARK   10  A    between atoms: C_26  and  C_27
REMARK   11  A    between atoms: C_31  and  N_32
REMARK                            x       y       z     vdW  Elec       q    Type
REMARK                         _______ _______ _______ _____ _____    ______ ____
ROOT
ATOM      1  C   UNL     1       5.807   6.045 -11.096  0.00  0.00    +0.073 C 
ATOM      2  C   UNL     1       4.612   4.971 -11.012  0.00  0.00    +0.082 C 
ATOM      3  C   UNL     1       3.963   5.640  -9.701  0.00  0.00    +0.073 C 
ATOM      4  C   UNL     1       3.627   6.882  -9.700  0.00  0.00    +0.051 C 
ATOM      5  C   UNL     1       2.891   7.368  -8.486  0.00  0.00    +0.049 C 
ATOM      6  N   UNL     1       4.365   7.779 -10.539  0.00  0.00    -0.221 NA
ATOM      7  C   UNL     1       5.552   7.301 -11.134  0.00  0.00    +0.051 C 
ATOM      8  C   UNL     1       6.729   8.220 -11.289  0.00  0.00    +0.049 C 
ENDROOT
BRANCH   2   9
ATOM      9  C   UNL     1       3.661   5.759 -12.051  0.00  0.00    -0.008 A 
ATOM     10  C   UNL     1       2.296   5.673 -11.786  0.00  0.00    +0.072 A 
ATOM     11  C   UNL     1       1.477   6.362 -12.675  0.00  0.00    +0.290 A 
ATOM     12  C   UNL     1       1.885   6.277 -14.002  0.00  0.00    +0.075 A 
ATOM     13  C   UNL     1       3.119   5.730 -14.352  0.00  0.00    +0.006 A 
ATOM     14  C   UNL     1       3.980   5.334 -13.337  0.00  0.00    -0.003 A 
BRANCH  11  15
ATOM     15  N   UNL     1       0.405   7.193 -12.279  0.00  0.00    +0.081 N 
ATOM     16  O   UNL     1       0.063   7.423 -10.955  0.00  0.00    -0.576 OA
ATOM     17  O   UNL     1       0.186   8.192 -13.013  0.00  0.00    +0.041 OA
ENDBRANCH  11  15
ENDBRANCH   2   9
BRANCH   1  18
ATOM     18  C   UNL     1       7.028   5.557 -11.746  0.00  0.00    +0.339 C 
ATOM     19  O   UNL     1       8.015   5.140 -11.099  0.00  0.00    -0.245 OA
BRANCH  18  21
ATOM     20  C   UNL     1       7.286   5.694 -14.143  0.00  0.00    +0.256 C 
ATOM     21  O   UNL     1       6.888   5.067 -13.048  0.00  0.00    -0.442 OA
ENDBRANCH  18  21
ENDBRANCH   1  18
BRANCH   3  22
ATOM     22  C   UNL     1       4.161   4.808  -8.508  0.00  0.00    +0.339 C 
ATOM     23  O   UNL     1       5.282   4.670  -7.976  0.00  0.00    -0.245 OA
BRANCH  22  24
ATOM     24  O   UNL     1       3.237   3.773  -8.372  0.00  0.00    -0.444 OA
BRANCH  24  25
ATOM     25  C   UNL     1       2.024   3.882  -7.690  0.00  0.00    +0.226 C 
BRANCH  25  26
ATOM     26  C   UNL     1       2.130   3.769  -6.200  0.00  0.00    +0.120 C 
BRANCH  26  27
ATOM     27  N   UNL     1       2.003   5.052  -5.567  0.00  0.00    -0.265 NA
ATOM     28  C   UNL     1       3.214   5.483  -4.927  0.00  0.00    +0.090 C 
BRANCH  27  29
ATOM     29  C   UNL     1       0.843   5.115  -4.722  0.00  0.00    +0.099 C 
BRANCH  29  30
ATOM     30  C   UNL     1      -0.262   5.919  -5.260  0.00  0.00    -0.006 A 
ATOM     31  C   UNL     1      -0.482   7.166  -4.685  0.00  0.00    -0.003 A 
ATOM     32  C   UNL     1      -1.734   7.758  -4.771  0.00  0.00    -0.000 A 
ATOM     33  C   UNL     1      -2.760   7.113  -5.429  0.00  0.00    -0.000 A 
ATOM     34  C   UNL     1      -2.402   6.040  -6.225  0.00  0.00    -0.000 A 
ATOM     35  C   UNL     1      -1.111   5.545  -6.266  0.00  0.00    -0.003 A 
ENDBRANCH  29  30
ENDBRANCH  27  29
ENDBRANCH  26  27
ENDBRANCH  25  26
ENDBRANCH  24  25
ENDBRANCH  22  24
ENDBRANCH   3  22
TORSDOF 11
ENDMDL
MODEL 2
REMARK VINA RESULT:      -8.3      2.974      9.058
REMARK  Name = 
REMARK  11 active torsions:
REMARK  status: ('A' for Active; 'I' for Inactive)
REMARK    1  A    between atoms: O_2  and  C_3
REMARK    2  A    between atoms: C_3  and  C_5
REMARK    3  A    between atoms: C_11  and  C_12
REMARK    4  A    between atoms: C_12  and  O_14
REMARK    5  A    between atoms: O_14  and  C_15
REMARK    6  A    between atoms: C_15  and  C_16
REMARK    7  A    between atoms: C_16  and  N_17
REMARK    8  A    between atoms: N_17  and  C_19
REMARK    9  A    between atoms: C_19  and  C_20
REMARK   10  A    between atoms: C_26  and  C_27
REMARK   11  A    between atoms: C_31  and  N_32
REMARK                            x       y       z     vdW  Elec       q    Type
REMARK                         _______ _______ _______ _____ _____    ______ ____
ROOT
ATOM      1  C   UNL     1      -0.743   5.964  -5.000  0.00  0.00    +0.073 C 
ATOM      2  C   UNL     1       0.409   4.847  -4.889  0.00  0.00    +0.082 C 
ATOM      3  C   UNL     1       1.341   5.549  -5.995  0.00  0.00    +0.073 C 
ATOM      4  C   UNL     1       1.707   6.774  -5.858  0.00  0.00    +0.051 C 
ATOM      5  C   UNL     1       2.698   7.286  -6.862  0.00  0.00    +0.049 C 
ATOM      6  N   UNL     1       0.836   7.661  -5.146  0.00  0.00    -0.221 NA
ATOM      7  C   UNL     1      -0.465   7.205  -4.840  0.00  0.00    +0.051 C 
ATOM      8  C   UNL     1      -1.620   8.163  -4.887  0.00  0.00    +0.049 C 
ENDROOT
BRANCH   2   9
ATOM      9  C   UNL     1       1.141   5.545  -3.631  0.00  0.00    -0.008 A 
ATOM     10  C   UNL     1       2.528   5.413  -3.606  0.00  0.00    +0.072 A 
ATOM     11  C   UNL     1       3.160   6.026  -2.529  0.00  0.00    +0.290 A 
ATOM     12  C   UNL     1       2.476   5.898  -1.324  0.00  0.00    +0.075 A 
ATOM     13  C   UNL     1       1.179   5.390  -1.273  0.00  0.00    +0.006 A 
ATOM     14  C   UNL     1       0.542   5.077  -2.467  0.00  0.00    -0.003 A 
BRANCH  11  15
ATOM     15  N   UNL     1       4.318   6.828  -2.644  0.00  0.00    +0.081 N 
ATOM     16  O   UNL     1       4.619   7.578  -3.770  0.00  0.00    -0.576 OA
ATOM     17  O   UNL     1       4.715   7.373  -1.581  0.00  0.00    +0.041 OA
ENDBRANCH  11  15
ENDBRANCH   2   9
BRANCH   1  18
ATOM     18  C   UNL     1      -2.089   5.496  -4.648  0.00  0.00    +0.339 C 
ATOM     19  O   UNL     1      -2.863   4.980  -5.486  0.00  0.00    -0.245 OA
BRANCH  18  21
ATOM     20  C   UNL     1      -3.063   5.807  -2.460  0.00  0.00    +0.256 C 
ATOM     21  O   UNL     1      -2.297   5.143  -3.311  0.00  0.00    -0.442 OA
ENDBRANCH  18  21
ENDBRANCH   1  18
BRANCH   3  22
ATOM     22  C   UNL     1       1.376   4.782  -7.247  0.00  0.00    +0.339 C 
ATOM     23  O   UNL     1       2.312   4.000  -7.516  0.00  0.00    -0.245 OA
BRANCH  22  24
ATOM     24  O   UNL     1       0.692   5.379  -8.304  0.00  0.00    -0.444 OA
BRANCH  24  25
ATOM     25  C   UNL     1       1.046   5.248  -9.648  0.00  0.00    +0.226 C 
BRANCH  25  26
ATOM     26  C   UNL     1       1.525   6.512 -10.295  0.00  0.00    +0.120 C 
BRANCH  26  27
ATOM     27  N   UNL     1       2.667   6.270 -11.133  0.00  0.00    -0.265 NA
ATOM     28  C   UNL     1       2.310   5.851 -12.459  0.00  0.00    +0.090 C 
BRANCH  27  29
ATOM     29  C   UNL     1       3.625   5.414 -10.489  0.00  0.00    +0.099 C 
BRANCH  29  30
ATOM     30  C   UNL     1       4.907   6.058 -10.176  0.00  0.00    -0.006 A 
ATOM     31  C   UNL     1       5.234   7.207 -10.887  0.00  0.00    -0.003 A 
ATOM     32  C   UNL     1       6.562   7.587 -11.019  0.00  0.00    -0.000 A 
ATOM     33  C   UNL     1       7.559   6.827 -10.444  0.00  0.00    -0.000 A 
ATOM     34  C   UNL     1       7.155   5.887  -9.513  0.00  0.00    -0.000 A 
ATOM     35  C   UNL     1       5.823   5.618  -9.259  0.00  0.00    -0.003 A 
ENDBRANCH  29  30
ENDBRANCH  27  29
ENDBRANCH  26  27
ENDBRANCH  25  26
ENDBRANCH  24  25
ENDBRANCH  22  24
ENDBRANCH   3  22
TORSDOF 11
ENDMDL
MODEL 3
REMARK VINA RESULT:      -8.0      1.097      2.622
REMARK  Name = 
REMARK  11 active torsions:
REMARK  status: ('A' for Active; 'I' for Inactive)
REMARK    1  A    between atoms: O_2  and  C_3
REMARK    2  A    between atoms: C_3  and  C_5
REMARK    3  A    between atoms: C_11  and  C_12
REMARK    4  A    between atoms: C_12  and  O_14
REMARK    5  A    between atoms: O_14  and  C_15
REMARK    6  A    between atoms: C_15  and  C_16
REMARK    7  A    between atoms: C_16  and  N_17
REMARK    8  A    between atoms: N_17  and  C_19
REMARK    9  A    between atoms: C_19  and  C_20
REMARK   10  A    between atoms: C_26  and  C_27
REMARK   11  A    between atoms: C_31  and  N_32
REMARK                            x       y       z     vdW  Elec       q    Type
REMARK                         _______ _______ _______ _____ _____    ______ ____
ROOT
ATOM      1  C   UNL     1       5.802   6.056 -10.949  0.00  0.00    +0.073 C 
ATOM      2  C   UNL     1       4.595   5.001 -10.824  0.00  0.00    +0.082 C 
ATOM      3  C   UNL     1       3.920   5.763  -9.579  0.00  0.00    +0.073 C 
ATOM      4  C   UNL     1       3.597   7.004  -9.671  0.00  0.00    +0.051 C 
ATOM      5  C   UNL     1       2.835   7.578  -8.512  0.00  0.00    +0.049 C 
ATOM      6  N   UNL     1       4.364   7.836 -10.549  0.00  0.00    -0.221 NA
ATOM      7  C   UNL     1       5.561   7.309 -11.079  0.00  0.00    +0.051 C 
ATOM      8  C   UNL     1       6.751   8.205 -11.266  0.00  0.00    +0.049 C 
ENDROOT
BRANCH   2   9
ATOM      9  C   UNL     1       3.678   5.724 -11.938  0.00  0.00    -0.008 A 
ATOM     10  C   UNL     1       2.306   5.673 -11.700  0.00  0.00    +0.072 A 
ATOM     11  C   UNL     1       1.518   6.307 -12.655  0.00  0.00    +0.290 A 
ATOM     12  C   UNL     1       1.954   6.123 -13.962  0.00  0.00    +0.075 A 
ATOM     13  C   UNL     1       3.188   5.538 -14.243  0.00  0.00    +0.006 A 
ATOM     14  C   UNL     1       4.020   5.205 -13.183  0.00  0.00    -0.003 A 
BRANCH  11  15
ATOM     15  N   UNL     1       0.448   7.178 -12.344  0.00  0.00    +0.081 N 
ATOM     16  O   UNL     1       0.050   7.468 -11.048  0.00  0.00    -0.576 OA
ATOM     17  O   UNL     1       0.289   8.150 -13.127  0.00  0.00    +0.041 OA
ENDBRANCH  11  15
ENDBRANCH   2   9
BRANCH   1  18
ATOM     18  C   UNL     1       7.034   5.514 -11.533  0.00  0.00    +0.339 C 
ATOM     19  O   UNL     1       7.988   5.104 -10.833  0.00  0.00    -0.245 OA
BRANCH  18  21
ATOM     20  C   UNL     1       7.383   5.542 -13.923  0.00  0.00    +0.256 C 
ATOM     21  O   UNL     1       6.930   4.972 -12.818  0.00  0.00    -0.442 OA
ENDBRANCH  18  21
ENDBRANCH   1  18
BRANCH   3  22
ATOM     22  C   UNL     1       4.078   5.012  -8.327  0.00  0.00    +0.339 C 
ATOM     23  O   UNL     1       5.197   4.825  -7.806  0.00  0.00    -0.245 OA
BRANCH  22  24
ATOM     24  O   UNL     1       3.078   4.069  -8.094  0.00  0.00    -0.444 OA
BRANCH  24  25
ATOM     25  C   UNL     1       1.832   4.361  -7.538  0.00  0.00    +0.226 C 
BRANCH  25  26
ATOM     26  C   UNL     1       1.674   3.950  -6.105  0.00  0.00    +0.120 C 
BRANCH  26  27
ATOM     27  N   UNL     1       1.189   5.037  -5.300  0.00  0.00    -0.265 NA
ATOM     28  C   UNL     1      -0.229   5.230  -5.415  0.00  0.00    +0.090 C 
BRANCH  27  29
ATOM     29  C   UNL     1       1.959   6.233  -5.505  0.00  0.00    +0.099 C 
BRANCH  29  30
ATOM     30  C   UNL     1       3.054   6.427  -4.546  0.00  0.00    -0.006 A 
ATOM     31  C   UNL     1       2.761   7.112  -3.373  0.00  0.00    -0.003 A 
ATOM     32  C   UNL     1       3.774   7.750  -2.670  0.00  0.00    -0.000 A 
ATOM     33  C   UNL     1       5.072   7.703  -3.134  0.00  0.00    -0.000 A 
ATOM     34  C   UNL     1       5.340   6.770  -4.118  0.00  0.00    -0.000 A 
ATOM     35  C   UNL     1       4.348   6.010  -4.711  0.00  0.00    -0.003 A 
ENDBRANCH  29  30
ENDBRANCH  27  29
ENDBRANCH  26  27
ENDBRANCH  25  26
ENDBRANCH  24  25
ENDBRANCH  22  24
ENDBRANCH   3  22
TORSDOF 11
ENDMDL
MODEL 4
REMARK VINA RESULT:      -7.7      2.426      7.849
REMARK  Name = 
REMARK  11 active torsions:
REMARK  status: ('A' for Active; 'I' for Inactive)
REMARK    1  A    between atoms: O_2  and  C_3
REMARK    2  A    between atoms: C_3  and  C_5
REMARK    3  A    between atoms: C_11  and  C_12
REMARK    4  A    between atoms: C_12  and  O_14
REMARK    5  A    between atoms: O_14  and  C_15
REMARK    6  A    between atoms: C_15  and  C_16
REMARK    7  A    between atoms: C_16  and  N_17
REMARK    8  A    between atoms: N_17  and  C_19
REMARK    9  A    between atoms: C_19  and  C_20
REMARK   10  A    between atoms: C_26  and  C_27
REMARK   11  A    between atoms: C_31  and  N_32
REMARK                            x       y       z     vdW  Elec       q    Type
REMARK                         _______ _______ _______ _____ _____    ______ ____
ROOT
ATOM      1  C   UNL     1       3.878   6.163  -5.196  0.00  0.00    +0.073 C 
ATOM      2  C   UNL     1       2.905   6.931  -6.221  0.00  0.00    +0.082 C 
ATOM      3  C   UNL     1       2.972   5.763  -7.324  0.00  0.00    +0.073 C 
ATOM      4  C   UNL     1       2.652   4.556  -7.016  0.00  0.00    +0.051 C 
ATOM      5  C   UNL     1       2.600   3.575  -8.151  0.00  0.00    +0.049 C 
ATOM      6  N   UNL     1       2.860   4.129  -5.665  0.00  0.00    -0.221 NA
ATOM      7  C   UNL     1       3.609   4.969  -4.814  0.00  0.00    +0.051 C 
ATOM      8  C   UNL     1       4.536   4.365  -3.799  0.00  0.00    +0.049 C 
ENDROOT
BRANCH   2   9
ATOM      9  C   UNL     1       1.547   6.392  -5.534  0.00  0.00    -0.008 A 
ATOM     10  C   UNL     1       0.378   6.661  -6.243  0.00  0.00    +0.072 A 
ATOM     11  C   UNL     1      -0.790   6.185  -5.657  0.00  0.00    +0.290 A 
ATOM     12  C   UNL     1      -0.826   6.324  -4.274  0.00  0.00    +0.075 A 
ATOM     13  C   UNL     1       0.302   6.705  -3.550  0.00  0.00    +0.006 A 
ATOM     14  C   UNL     1       1.500   6.875  -4.231  0.00  0.00    -0.003 A 
BRANCH  11  15
ATOM     15  N   UNL     1      -1.802   5.495  -6.361  0.00  0.00    +0.081 N 
ATOM     16  O   UNL     1      -3.048   6.037  -6.638  0.00  0.00    -0.576 OA
ATOM     17  O   UNL     1      -1.406   4.714  -7.265  0.00  0.00    +0.041 OA
ENDBRANCH  11  15
ENDBRANCH   2   9
BRANCH   1  18
ATOM     18  C   UNL     1       4.630   7.037  -4.290  0.00  0.00    +0.339 C 
ATOM     19  O   UNL     1       5.753   7.506  -4.582  0.00  0.00    -0.245 OA
BRANCH  18  21
ATOM     20  C   UNL     1       4.275   8.053  -2.127  0.00  0.00    +0.256 C 
ATOM     21  O   UNL     1       3.881   7.760  -3.356  0.00  0.00    -0.442 OA
ENDBRANCH  18  21
ENDBRANCH   1  18
BRANCH   3  22
ATOM     22  C   UNL     1       3.751   6.167  -8.501  0.00  0.00    +0.339 C 
ATOM     23  O   UNL     1       4.999   6.120  -8.516  0.00  0.00    -0.245 OA
BRANCH  22  24
ATOM     24  O   UNL     1       3.118   7.109  -9.311  0.00  0.00    -0.444 OA
BRANCH  24  25
ATOM     25  C   UNL     1       2.216   6.796 -10.329  0.00  0.00    +0.226 C 
BRANCH  25  26
ATOM     26  C   UNL     1       2.597   5.609 -11.160  0.00  0.00    +0.120 C 
BRANCH  26  27
ATOM     27  N   UNL     1       3.376   5.998 -12.302  0.00  0.00    -0.265 NA
ATOM     28  C   UNL     1       2.613   6.024 -13.518  0.00  0.00    +0.090 C 
BRANCH  27  29
ATOM     29  C   UNL     1       4.595   5.243 -12.395  0.00  0.00    +0.099 C 
BRANCH  29  30
ATOM     30  C   UNL     1       5.809   5.997 -12.054  0.00  0.00    -0.006 A 
ATOM     31  C   UNL     1       7.004   5.290 -11.997  0.00  0.00    -0.003 A 
ATOM     32  C   UNL     1       8.061   5.774 -11.240  0.00  0.00    -0.000 A 
ATOM     33  C   UNL     1       7.928   6.958 -10.546  0.00  0.00    -0.000 A 
ATOM     34  C   UNL     1       6.846   7.751 -10.882  0.00  0.00    -0.000 A 
ATOM     35  C   UNL     1       5.868   7.334 -11.767  0.00  0.00    -0.003 A 
ENDBRANCH  29  30
ENDBRANCH  27  29
ENDBRANCH  26  27
ENDBRANCH  25  26
ENDBRANCH  24  25
ENDBRANCH  22  24
ENDBRANCH   3  22
TORSDOF 11
ENDMDL
MODEL 5
REMARK VINA RESULT:      -7.6      1.751      4.443
REMARK  Name = 
REMARK  11 active torsions:
REMARK  status: ('A' for Active; 'I' for Inactive)
REMARK    1  A    between atoms: O_2  and  C_3
REMARK    2  A    between atoms: C_3  and  C_5
REMARK    3  A    between atoms: C_11  and  C_12
REMARK    4  A    between atoms: C_12  and  O_14
REMARK    5  A    between atoms: O_14  and  C_15
REMARK    6  A    between atoms: C_15  and  C_16
REMARK    7  A    between atoms: C_16  and  N_17
REMARK    8  A    between atoms: N_17  and  C_19
REMARK    9  A    between atoms: C_19  and  C_20
REMARK   10  A    between atoms: C_26  and  C_27
REMARK   11  A    between atoms: C_31  and  N_32
REMARK                            x       y       z     vdW  Elec       q    Type
REMARK                         _______ _______ _______ _____ _____    ______ ____
ROOT
ATOM      1  C   UNL     1       1.176   6.253 -10.634  0.00  0.00    +0.073 C 
ATOM      2  C   UNL     1       2.526   7.070 -10.321  0.00  0.00    +0.082 C 
ATOM      3  C   UNL     1       2.807   6.285  -8.947  0.00  0.00    +0.073 C 
ATOM      4  C   UNL     1       2.890   5.001  -8.934  0.00  0.00    +0.051 C 
ATOM      5  C   UNL     1       3.307   4.377  -7.633  0.00  0.00    +0.049 C 
ATOM      6  N   UNL     1       2.142   4.268  -9.911  0.00  0.00    -0.221 NA
ATOM      7  C   UNL     1       1.185   4.971 -10.674  0.00  0.00    +0.051 C 
ATOM      8  C   UNL     1      -0.106   4.303 -11.049  0.00  0.00    +0.049 C 
ENDROOT
BRANCH   2   9
ATOM      9  C   UNL     1       3.465   6.112 -11.219  0.00  0.00    -0.008 A 
ATOM     10  C   UNL     1       4.816   6.451 -11.231  0.00  0.00    +0.072 A 
ATOM     11  C   UNL     1       5.627   5.618 -11.995  0.00  0.00    +0.290 A 
ATOM     12  C   UNL     1       5.051   5.212 -13.195  0.00  0.00    +0.075 A 
ATOM     13  C   UNL     1       3.707   5.454 -13.476  0.00  0.00    +0.006 A 
ATOM     14  C   UNL     1       2.922   6.049 -12.498  0.00  0.00    -0.003 A 
BRANCH  11  15
ATOM     15  N   UNL     1       6.868   5.103 -11.556  0.00  0.00    +0.081 N 
ATOM     16  O   UNL     1       7.817   4.561 -12.410  0.00  0.00    -0.576 OA
ATOM     17  O   UNL     1       7.386   5.690 -10.570  0.00  0.00    +0.041 OA
ENDBRANCH  11  15
ENDBRANCH   2   9
BRANCH   1  18
ATOM     18  C   UNL     1       0.198   6.973 -11.457  0.00  0.00    +0.339 C 
ATOM     19  O   UNL     1      -0.910   7.349 -11.012  0.00  0.00    -0.245 OA
BRANCH  18  21
ATOM     20  C   UNL     1       0.234   7.637 -13.779  0.00  0.00    +0.256 C 
ATOM     21  O   UNL     1       0.706   7.692 -12.544  0.00  0.00    -0.442 OA
ENDBRANCH  18  21
ENDBRANCH   1  18
BRANCH   3  22
ATOM     22  C   UNL     1       2.580   7.138  -7.773  0.00  0.00    +0.339 C 
ATOM     23  O   UNL     1       2.031   8.256  -7.865  0.00  0.00    -0.245 OA
BRANCH  22  24
ATOM     24  O   UNL     1       3.483   6.932  -6.732  0.00  0.00    -0.444 OA
BRANCH  24  25
ATOM     25  C   UNL     1       3.247   7.280  -5.401  0.00  0.00    +0.226 C 
BRANCH  25  26
ATOM     26  C   UNL     1       3.152   6.119  -4.458  0.00  0.00    +0.120 C 
BRANCH  26  27
ATOM     27  N   UNL     1       1.814   5.960  -3.958  0.00  0.00    -0.265 NA
ATOM     28  C   UNL     1       1.776   5.480  -2.605  0.00  0.00    +0.090 C 
BRANCH  27  29
ATOM     29  C   UNL     1       0.994   5.208  -4.866  0.00  0.00    +0.099 C 
BRANCH  29  30
ATOM     30  C   UNL     1      -0.180   5.931  -5.372  0.00  0.00    -0.006 A 
ATOM     31  C   UNL     1      -0.425   7.195  -4.850  0.00  0.00    -0.003 A 
ATOM     32  C   UNL     1      -1.707   7.724  -4.885  0.00  0.00    -0.000 A 
ATOM     33  C   UNL     1      -2.739   6.998  -5.441  0.00  0.00    -0.000 A 
ATOM     34  C   UNL     1      -2.379   5.901  -6.202  0.00  0.00    -0.000 A 
ATOM     35  C   UNL     1      -1.070   5.463  -6.301  0.00  0.00    -0.003 A 
ENDBRANCH  29  30
ENDBRANCH  27  29
ENDBRANCH  26  27
ENDBRANCH  25  26
ENDBRANCH  24  25
ENDBRANCH  22  24
ENDBRANCH   3  22
TORSDOF 11
ENDMDL
MODEL 6
REMARK VINA RESULT:      -7.4      4.148      6.967
REMARK  Name = 
REMARK  11 active torsions:
REMARK  status: ('A' for Active; 'I' for Inactive)
REMARK    1  A    between atoms: O_2  and  C_3
REMARK    2  A    between atoms: C_3  and  C_5
REMARK    3  A    between atoms: C_11  and  C_12
REMARK    4  A    between atoms: C_12  and  O_14
REMARK    5  A    between atoms: O_14  and  C_15
REMARK    6  A    between atoms: C_15  and  C_16
REMARK    7  A    between atoms: C_16  and  N_17
REMARK    8  A    between atoms: N_17  and  C_19
REMARK    9  A    between atoms: C_19  and  C_20
REMARK   10  A    between atoms: C_26  and  C_27
REMARK   11  A    between atoms: C_31  and  N_32
REMARK                            x       y       z     vdW  Elec       q    Type
REMARK                         _______ _______ _______ _____ _____    ______ ____
ROOT
ATOM      1  C   UNL     1       2.228   5.421  -7.257  0.00  0.00    +0.073 C 
ATOM      2  C   UNL     1       1.815   4.649  -5.908  0.00  0.00    +0.082 C 
ATOM      3  C   UNL     1       2.684   5.617  -4.964  0.00  0.00    +0.073 C 
ATOM      4  C   UNL     1       2.495   6.890  -4.984  0.00  0.00    +0.051 C 
ATOM      5  C   UNL     1       3.245   7.687  -3.957  0.00  0.00    +0.049 C 
ATOM      6  N   UNL     1       2.036   7.483  -6.204  0.00  0.00    -0.221 NA
ATOM      7  C   UNL     1       2.039   6.685  -7.368  0.00  0.00    +0.051 C 
ATOM      8  C   UNL     1       2.386   7.301  -8.693  0.00  0.00    +0.049 C 
ENDROOT
BRANCH   2   9
ATOM      9  C   UNL     1       0.437   5.467  -5.711  0.00  0.00    -0.008 A 
ATOM     10  C   UNL     1      -0.096   5.426  -4.425  0.00  0.00    +0.072 A 
ATOM     11  C   UNL     1      -1.277   6.141  -4.252  0.00  0.00    +0.290 A 
ATOM     12  C   UNL     1      -2.160   6.042  -5.322  0.00  0.00    +0.075 A 
ATOM     13  C   UNL     1      -1.780   5.455  -6.529  0.00  0.00    +0.006 A 
ATOM     14  C   UNL     1      -0.466   5.031  -6.675  0.00  0.00    -0.003 A 
BRANCH  11  15
ATOM     15  N   UNL     1      -1.524   7.008  -3.164  0.00  0.00    +0.081 N 
ATOM     16  O   UNL     1      -2.014   8.297  -3.308  0.00  0.00    -0.576 OA
ATOM     17  O   UNL     1      -1.922   6.457  -2.104  0.00  0.00    +0.041 OA
ENDBRANCH  11  15
ENDBRANCH   2   9
BRANCH   1  18
ATOM     18  C   UNL     1       2.198   4.598  -8.471  0.00  0.00    +0.339 C 
ATOM     19  O   UNL     1       2.897   3.569  -8.605  0.00  0.00    -0.245 OA
BRANCH  18  21
ATOM     20  C   UNL     1       0.975   4.561 -10.554  0.00  0.00    +0.256 C 
ATOM     21  O   UNL     1       1.028   4.657  -9.236  0.00  0.00    -0.442 OA
ENDBRANCH  18  21
ENDBRANCH   1  18
BRANCH   3  22
ATOM     22  C   UNL     1       3.870   4.938  -4.427  0.00  0.00    +0.339 C 
ATOM     23  O   UNL     1       4.805   4.562  -5.164  0.00  0.00    -0.245 OA
BRANCH  22  24
ATOM     24  O   UNL     1       3.643   4.240  -3.243  0.00  0.00    -0.444 OA
BRANCH  24  25
ATOM     25  C   UNL     1       3.958   4.719  -1.970  0.00  0.00    +0.226 C 
BRANCH  25  26
ATOM     26  C   UNL     1       2.821   4.705  -0.995  0.00  0.00    +0.120 C 
BRANCH  26  27
ATOM     27  N   UNL     1       2.604   6.006  -0.425  0.00  0.00    -0.265 NA
ATOM     28  C   UNL     1       1.399   6.629  -0.897  0.00  0.00    +0.090 C 
BRANCH  27  29
ATOM     29  C   UNL     1       3.772   6.835  -0.537  0.00  0.00    +0.099 C 
BRANCH  29  30
ATOM     30  C   UNL     1       3.652   8.149   0.107  0.00  0.00    -0.006 A 
ATOM     31  C   UNL     1       3.510   8.172   1.489  0.00  0.00    -0.003 A 
ATOM     32  C   UNL     1       2.920   9.265   2.109  0.00  0.00    -0.000 A 
ATOM     33  C   UNL     1       2.477  10.331   1.354  0.00  0.00    -0.000 A 
ATOM     34  C   UNL     1       2.916  10.381   0.044  0.00  0.00    -0.000 A 
ATOM     35  C   UNL     1       3.648   9.359  -0.534  0.00  0.00    -0.003 A 
ENDBRANCH  29  30
ENDBRANCH  27  29
ENDBRANCH  26  27
ENDBRANCH  25  26
ENDBRANCH  24  25
ENDBRANCH  22  24
ENDBRANCH   3  22
TORSDOF 11
ENDMDL
MODEL 7
REMARK VINA RESULT:      -7.4      2.521      3.620
REMARK  Name = 
REMARK  11 active torsions:
REMARK  status: ('A' for Active; 'I' for Inactive)
REMARK    1  A    between atoms: O_2  and  C_3
REMARK    2  A    between atoms: C_3  and  C_5
REMARK    3  A    between atoms: C_11  and  C_12
REMARK    4  A    between atoms: C_12  and  O_14
REMARK    5  A    between atoms: O_14  and  C_15
REMARK    6  A    between atoms: C_15  and  C_16
REMARK    7  A    between atoms: C_16  and  N_17
REMARK    8  A    between atoms: N_17  and  C_19
REMARK    9  A    between atoms: C_19  and  C_20
REMARK   10  A    between atoms: C_26  and  C_27
REMARK   11  A    between atoms: C_31  and  N_32
REMARK                            x       y       z     vdW  Elec       q    Type
REMARK                         _______ _______ _______ _____ _____    ______ ____
ROOT
ATOM      1  C   UNL     1       5.770   6.066 -10.705  0.00  0.00    +0.073 C 
ATOM      2  C   UNL     1       4.578   4.992 -10.591  0.00  0.00    +0.082 C 
ATOM      3  C   UNL     1       3.837   5.786  -9.405  0.00  0.00    +0.073 C 
ATOM      4  C   UNL     1       3.495   7.016  -9.558  0.00  0.00    +0.051 C 
ATOM      5  C   UNL     1       2.674   7.618  -8.454  0.00  0.00    +0.049 C 
ATOM      6  N   UNL     1       4.284   7.830 -10.433  0.00  0.00    -0.221 NA
ATOM      7  C   UNL     1       5.512   7.308 -10.892  0.00  0.00    +0.051 C 
ATOM      8  C   UNL     1       6.693   8.220 -11.062  0.00  0.00    +0.049 C 
ENDROOT
BRANCH   2   9
ATOM      9  C   UNL     1       3.697   5.655 -11.770  0.00  0.00    -0.008 A 
ATOM     10  C   UNL     1       2.319   5.614 -11.573  0.00  0.00    +0.072 A 
ATOM     11  C   UNL     1       1.560   6.197 -12.583  0.00  0.00    +0.290 A 
ATOM     12  C   UNL     1       2.038   5.946 -13.865  0.00  0.00    +0.075 A 
ATOM     13  C   UNL     1       3.281   5.350 -14.076  0.00  0.00    +0.006 A 
ATOM     14  C   UNL     1       4.079   5.073 -12.974  0.00  0.00    -0.003 A 
BRANCH  11  15
ATOM     15  N   UNL     1       0.482   7.080 -12.352  0.00  0.00    +0.081 N 
ATOM     16  O   UNL     1       0.037   7.430 -11.086  0.00  0.00    -0.576 OA
ATOM     17  O   UNL     1       0.352   8.016 -13.184  0.00  0.00    +0.041 OA
ENDBRANCH  11  15
ENDBRANCH   2   9
BRANCH   1  18
ATOM     18  C   UNL     1       7.036   5.528 -11.215  0.00  0.00    +0.339 C 
ATOM     19  O   UNL     1       7.959   5.145 -10.461  0.00  0.00    -0.245 OA
BRANCH  18  21
ATOM     20  C   UNL     1       7.548   5.485 -13.575  0.00  0.00    +0.256 C 
ATOM     21  O   UNL     1       7.002   4.957 -12.492  0.00  0.00    -0.442 OA
ENDBRANCH  18  21
ENDBRANCH   1  18
BRANCH   3  22
ATOM     22  C   UNL     1       3.955   5.085  -8.120  0.00  0.00    +0.339 C 
ATOM     23  O   UNL     1       3.085   4.283  -7.723  0.00  0.00    -0.245 OA
BRANCH  22  24
ATOM     24  O   UNL     1       4.710   5.764  -7.166  0.00  0.00    -0.444 OA
BRANCH  24  25
ATOM     25  C   UNL     1       4.465   5.726  -5.792  0.00  0.00    +0.226 C 
BRANCH  25  26
ATOM     26  C   UNL     1       3.596   6.834  -5.280  0.00  0.00    +0.120 C 
BRANCH  26  27
ATOM     27  N   UNL     1       4.170   7.455  -4.119  0.00  0.00    -0.265 NA
ATOM     28  C   UNL     1       5.598   7.320  -4.061  0.00  0.00    +0.090 C 
BRANCH  27  29
ATOM     29  C   UNL     1       3.497   7.054  -2.915  0.00  0.00    +0.099 C 
BRANCH  29  30
ATOM     30  C   UNL     1       3.956   7.740  -1.700  0.00  0.00    -0.006 A 
ATOM     31  C   UNL     1       4.713   7.003  -0.798  0.00  0.00    -0.003 A 
ATOM     32  C   UNL     1       4.769   7.383   0.535  0.00  0.00    -0.000 A 
ATOM     33  C   UNL     1       4.075   8.495   0.966  0.00  0.00    -0.000 A 
ATOM     34  C   UNL     1       3.600   9.342  -0.017  0.00  0.00    -0.000 A 
ATOM     35  C   UNL     1       3.688   9.040  -1.364  0.00  0.00    -0.003 A 
ENDBRANCH  29  30
ENDBRANCH  27  29
ENDBRANCH  26  27
ENDBRANCH  25  26
ENDBRANCH  24  25
ENDBRANCH  22  24
ENDBRANCH   3  22
TORSDOF 11
ENDMDL
MODEL 8
REMARK VINA RESULT:      -7.3      2.156      5.278
REMARK  Name = 
REMARK  11 active torsions:
REMARK  status: ('A' for Active; 'I' for Inactive)
REMARK    1  A    between atoms: O_2  and  C_3
REMARK    2  A    between atoms: C_3  and  C_5
REMARK    3  A    between atoms: C_11  and  C_12
REMARK    4  A    between atoms: C_12  and  O_14
REMARK    5  A    between atoms: O_14  and  C_15
REMARK    6  A    between atoms: C_15  and  C_16
REMARK    7  A    between atoms: C_16  and  N_17
REMARK    8  A    between atoms: N_17  and  C_19
REMARK    9  A    between atoms: C_19  and  C_20
REMARK   10  A    between atoms: C_26  and  C_27
REMARK   11  A    between atoms: C_31  and  N_32
REMARK                            x       y       z     vdW  Elec       q    Type
REMARK                         _______ _______ _______ _____ _____    ______ ____
ROOT
ATOM      1  C   UNL     1       0.974   6.205 -10.445  0.00  0.00    +0.073 C 
ATOM      2  C   UNL     1       2.170   7.083  -9.823  0.00  0.00    +0.082 C 
ATOM      3  C   UNL     1       2.200   6.256  -8.444  0.00  0.00    +0.073 C 
ATOM      4  C   UNL     1       2.362   4.980  -8.453  0.00  0.00    +0.051 C 
ATOM      5  C   UNL     1       2.530   4.324  -7.113  0.00  0.00    +0.049 C 
ATOM      6  N   UNL     1       1.889   4.249  -9.590  0.00  0.00    -0.221 NA
ATOM      7  C   UNL     1       1.074   4.929 -10.521  0.00  0.00    +0.051 C 
ATOM      8  C   UNL     1      -0.060   4.206 -11.186  0.00  0.00    +0.049 C 
ENDROOT
BRANCH   2   9
ATOM      9  C   UNL     1       3.339   6.220 -10.525  0.00  0.00    -0.008 A 
ATOM     10  C   UNL     1       4.637   6.582 -10.168  0.00  0.00    +0.072 A 
ATOM     11  C   UNL     1       5.644   5.830 -10.764  0.00  0.00    +0.290 A 
ATOM     12  C   UNL     1       5.403   5.517 -12.098  0.00  0.00    +0.075 A 
ATOM     13  C   UNL     1       4.165   5.759 -12.691  0.00  0.00    +0.006 A 
ATOM     14  C   UNL     1       3.137   6.257 -11.900  0.00  0.00    -0.003 A 
BRANCH  11  15
ATOM     15  N   UNL     1       6.753   5.301 -10.066  0.00  0.00    +0.081 N 
ATOM     16  O   UNL     1       8.064   5.442 -10.494  0.00  0.00    -0.576 OA
ATOM     17  O   UNL     1       6.655   5.287  -8.812  0.00  0.00    +0.041 OA
ENDBRANCH  11  15
ENDBRANCH   2   9
BRANCH   1  18
ATOM     18  C   UNL     1       0.150   6.904 -11.437  0.00  0.00    +0.339 C 
ATOM     19  O   UNL     1      -0.913   7.493 -11.136  0.00  0.00    -0.245 OA
BRANCH  18  21
ATOM     20  C   UNL     1       0.296   7.357 -13.805  0.00  0.00    +0.256 C 
ATOM     21  O   UNL     1       0.807   7.359 -12.585  0.00  0.00    -0.442 OA
ENDBRANCH  18  21
ENDBRANCH   1  18
BRANCH   3  22
ATOM     22  C   UNL     1       1.672   7.043  -7.322  0.00  0.00    +0.339 C 
ATOM     23  O   UNL     1       2.401   7.796  -6.644  0.00  0.00    -0.245 OA
BRANCH  22  24
ATOM     24  O   UNL     1       0.549   6.488  -6.712  0.00  0.00    -0.444 OA
BRANCH  24  25
ATOM     25  C   UNL     1       0.015   6.921  -5.497  0.00  0.00    +0.226 C 
BRANCH  25  26
ATOM     26  C   UNL     1      -0.360   5.823  -4.550  0.00  0.00    +0.120 C 
BRANCH  26  27
ATOM     27  N   UNL     1       0.659   5.616  -3.559  0.00  0.00    -0.265 NA
ATOM     28  C   UNL     1       0.163   4.977  -2.372  0.00  0.00    +0.090 C 
BRANCH  27  29
ATOM     29  C   UNL     1       1.405   6.817  -3.306  0.00  0.00    +0.099 C 
BRANCH  29  30
ATOM     30  C   UNL     1       2.862   6.663  -3.403  0.00  0.00    -0.006 A 
ATOM     31  C   UNL     1       3.644   7.763  -3.067  0.00  0.00    -0.003 A 
ATOM     32  C   UNL     1       4.931   7.880  -3.573  0.00  0.00    -0.000 A 
ATOM     33  C   UNL     1       5.437   6.905  -4.407  0.00  0.00    -0.000 A 
ATOM     34  C   UNL     1       4.737   5.713  -4.455  0.00  0.00    -0.000 A 
ATOM     35  C   UNL     1       3.524   5.538  -3.813  0.00  0.00    -0.003 A 
ENDBRANCH  29  30
ENDBRANCH  27  29
ENDBRANCH  26  27
ENDBRANCH  25  26
ENDBRANCH  24  25
ENDBRANCH  22  24
ENDBRANCH   3  22
TORSDOF 11
ENDMDL
MODEL 9
REMARK VINA RESULT:      -7.3      3.121      8.644
REMARK  Name = 
REMARK  11 active torsions:
REMARK  status: ('A' for Active; 'I' for Inactive)
REMARK    1  A    between atoms: O_2  and  C_3
REMARK    2  A    between atoms: C_3  and  C_5
REMARK    3  A    between atoms: C_11  and  C_12
REMARK    4  A    between atoms: C_12  and  O_14
REMARK    5  A    between atoms: O_14  and  C_15
REMARK    6  A    between atoms: C_15  and  C_16
REMARK    7  A    between atoms: C_16  and  N_17
REMARK    8  A    between atoms: N_17  and  C_19
REMARK    9  A    between atoms: C_19  and  C_20
REMARK   10  A    between atoms: C_26  and  C_27
REMARK   11  A    between atoms: C_31  and  N_32
REMARK                            x       y       z     vdW  Elec       q    Type
REMARK                         _______ _______ _______ _____ _____    ______ ____
ROOT
ATOM      1  C   UNL     1      -1.018   6.082  -4.680  0.00  0.00    +0.073 C 
ATOM      2  C   UNL     1       0.236   5.080  -4.771  0.00  0.00    +0.082 C 
ATOM      3  C   UNL     1       0.860   5.811  -6.060  0.00  0.00    +0.073 C 
ATOM      4  C   UNL     1       1.125   7.069  -6.032  0.00  0.00    +0.051 C 
ATOM      5  C   UNL     1       1.845   7.622  -7.228  0.00  0.00    +0.049 C 
ATOM      6  N   UNL     1       0.329   7.906  -5.184  0.00  0.00    -0.221 NA
ATOM      7  C   UNL     1      -0.836   7.350  -4.613  0.00  0.00    +0.051 C 
ATOM      8  C   UNL     1      -2.065   8.197  -4.453  0.00  0.00    +0.049 C 
ENDROOT
BRANCH   2   9
ATOM      9  C   UNL     1       1.130   5.898  -3.705  0.00  0.00    -0.008 A 
ATOM     10  C   UNL     1       2.499   5.908  -3.964  0.00  0.00    +0.072 A 
ATOM     11  C   UNL     1       3.267   6.623  -3.052  0.00  0.00    +0.290 A 
ATOM     12  C   UNL     1       2.860   6.475  -1.730  0.00  0.00    +0.075 A 
ATOM     13  C   UNL     1       1.663   5.841  -1.403  0.00  0.00    +0.006 A 
ATOM     14  C   UNL     1       0.834   5.418  -2.434  0.00  0.00    -0.003 A 
BRANCH  11  15
ATOM     15  N   UNL     1       4.285   7.532  -3.418  0.00  0.00    +0.081 N 
ATOM     16  O   UNL     1       4.567   7.876  -4.731  0.00  0.00    -0.576 OA
ATOM     17  O   UNL     1       4.485   8.483  -2.618  0.00  0.00    +0.041 OA
ENDBRANCH  11  15
ENDBRANCH   2   9
BRANCH   1  18
ATOM     18  C   UNL     1      -2.217   5.512  -4.054  0.00  0.00    +0.339 C 
ATOM     19  O   UNL     1      -3.142   4.993  -4.718  0.00  0.00    -0.245 OA
BRANCH  18  21
ATOM     20  C   UNL     1      -2.540   5.721  -1.669  0.00  0.00    +0.256 C 
ATOM     21  O   UNL     1      -2.083   5.077  -2.732  0.00  0.00    -0.442 OA
ENDBRANCH  18  21
ENDBRANCH   1  18
BRANCH   3  22
ATOM     22  C   UNL     1       0.723   4.994  -7.272  0.00  0.00    +0.339 C 
ATOM     23  O   UNL     1      -0.358   4.907  -7.892  0.00  0.00    -0.245 OA
BRANCH  22  24
ATOM     24  O   UNL     1       1.611   3.922  -7.344  0.00  0.00    -0.444 OA
BRANCH  24  25
ATOM     25  C   UNL     1       2.791   3.923  -8.088  0.00  0.00    +0.226 C 
BRANCH  25  26
ATOM     26  C   UNL     1       2.628   4.323  -9.523  0.00  0.00    +0.120 C 
BRANCH  26  27
ATOM     27  N   UNL     1       3.728   5.132  -9.969  0.00  0.00    -0.265 NA
ATOM     28  C   UNL     1       4.828   5.138  -9.047  0.00  0.00    +0.090 C 
BRANCH  27  29
ATOM     29  C   UNL     1       3.295   6.442 -10.370  0.00  0.00    +0.099 C 
BRANCH  29  30
ATOM     30  C   UNL     1       2.058   6.461 -11.162  0.00  0.00    -0.006 A 
ATOM     31  C   UNL     1       2.176   6.264 -12.533  0.00  0.00    -0.003 A 
ATOM     32  C   UNL     1       1.190   6.734 -13.389  0.00  0.00    -0.000 A 
ATOM     33  C   UNL     1       0.092   7.396 -12.881  0.00  0.00    -0.000 A 
ATOM     34  C   UNL     1      -0.112   7.292 -11.517  0.00  0.00    -0.000 A 
ATOM     35  C   UNL     1       0.797   6.677 -10.675  0.00  0.00    -0.003 A 
ENDBRANCH  29  30
ENDBRANCH  27  29
ENDBRANCH  26  27
ENDBRANCH  25  26
ENDBRANCH  24  25
ENDBRANCH  22  24
ENDBRANCH   3  22
TORSDOF 11
ENDMDL
