MODEL 1
REMARK VINA RESULT:      -4.1      0.000      0.000
REMARK  Name = 
REMARK  2 active torsions:
REMARK  status: ('A' for Active; 'I' for Inactive)
REMARK    1  A    between atoms: CB_2  and  CA_4
REMARK    2  A    between atoms: CA_4  and  C_6
REMARK                            x       y       z     vdW  Elec       q    Type
REMARK                         _______ _______ _______ _____ _____    ______ ____
ROOT
ATOM      1  CA  THR A   1       6.801   5.422 -11.612  0.00  0.00    +0.224 C 
ATOM      2  N   THR A   1       8.280   5.110 -12.085  0.00  0.00    -0.118 NA
ENDROOT
BRANCH   1   4
ATOM      3  CG2 THR A   1       5.564   7.417 -10.978  0.00  0.00    +0.038 C 
ATOM      4  CB  THR A   1       7.049   7.156 -11.673  0.00  0.00    +0.181 C 
ATOM      5  OG1 THR A   1       7.720   7.145 -10.300  0.00  0.00    -0.221 OA
ENDBRANCH   1   4
BRANCH   1   6
ATOM      6  C   THR A   1       6.253   5.334 -13.136  0.00  0.00    +0.384 C 
ATOM      7  OXT THR A   1       7.310   4.957 -13.963  0.00  0.00    -0.244 OA
ATOM      8  O   THR A   1       5.166   4.774 -13.292  0.00  0.00    -0.244 OA
ENDBRANCH   1   6
TORSDOF 2
ENDMDL
MODEL 2
REMARK VINA RESULT:      -4.0     11.561     12.468
REMARK  Name = 
REMARK  2 active torsions:
REMARK  status: ('A' for Active; 'I' for Inactive)
REMARK    1  A    between atoms: CB_2  and  CA_4
REMARK    2  A    between atoms: CA_4  and  C_6
REMARK                            x       y       z     vdW  Elec       q    Type
REMARK                         _______ _______ _______ _____ _____    ______ ____
ROOT
ATOM      1  CA  THR A   1      -1.419   6.617  -2.854  0.00  0.00    +0.224 C 
ATOM      2  N   THR A   1      -0.789   5.171  -2.716  0.00  0.00    -0.118 NA
ENDROOT
BRANCH   1   4
ATOM      3  CG2 THR A   1      -1.735   8.212  -4.662  0.00  0.00    +0.038 C 
ATOM      4  CB  THR A   1      -1.247   6.626  -4.598  0.00  0.00    +0.181 C 
ATOM      5  OG1 THR A   1       0.217   7.053  -4.486  0.00  0.00    -0.221 OA
ENDBRANCH   1   4
BRANCH   1   6
ATOM      6  C   THR A   1      -2.920   6.003  -2.894  0.00  0.00    +0.384 C 
ATOM      7  OXT THR A   1      -2.839   4.629  -2.668  0.00  0.00    -0.244 OA
ATOM      8  O   THR A   1      -3.786   6.639  -2.291  0.00  0.00    -0.244 OA
ENDBRANCH   1   6
TORSDOF 2
ENDMDL
MODEL 3
REMARK VINA RESULT:      -4.0     12.141     12.893
REMARK  Name = 
REMARK  2 active torsions:
REMARK  status: ('A' for Active; 'I' for Inactive)
REMARK    1  A    between atoms: CB_2  and  CA_4
REMARK    2  A    between atoms: CA_4  and  C_6
REMARK                            x       y       z     vdW  Elec       q    Type
REMARK                         _______ _______ _______ _____ _____    ______ ____
ROOT
ATOM      1  CA  THR A   1      -2.710   6.940  -2.959  0.00  0.00    +0.224 C 
ATOM      2  N   THR A   1      -1.854   7.502  -1.751  0.00  0.00    -0.118 NA
ENDROOT
BRANCH   1   4
ATOM      3  CG2 THR A   1      -2.460   6.845  -5.376  0.00  0.00    +0.038 C 
ATOM      4  CB  THR A   1      -1.454   7.287  -4.131  0.00  0.00    +0.181 C 
ATOM      5  OG1 THR A   1      -1.911   8.742  -4.242  0.00  0.00    -0.221 OA
ENDBRANCH   1   4
BRANCH   1   6
ATOM      6  C   THR A   1      -2.187   5.430  -2.680  0.00  0.00    +0.384 C 
ATOM      7  OXT THR A   1      -1.563   5.404  -1.432  0.00  0.00    -0.244 OA
ATOM      8  O   THR A   1      -2.973   4.521  -2.953  0.00  0.00    -0.244 OA
ENDBRANCH   1   6
TORSDOF 2
ENDMDL
MODEL 4
REMARK VINA RESULT:      -4.0      1.699      2.720
REMARK  Name = 
REMARK  2 active torsions:
REMARK  status: ('A' for Active; 'I' for Inactive)
REMARK    1  A    between atoms: CB_2  and  CA_4
REMARK    2  A    between atoms: CA_4  and  C_6
REMARK                            x       y       z     vdW  Elec       q    Type
REMARK                         _______ _______ _______ _____ _____    ______ ____
ROOT
ATOM      1  CA  THR A   1       5.953   6.182 -12.573  0.00  0.00    +0.224 C 
ATOM      2  N   THR A   1       5.766   4.904 -13.489  0.00  0.00    -0.118 NA
ENDROOT
BRANCH   1   4
ATOM      3  CG2 THR A   1       4.840   7.034 -10.586  0.00  0.00    +0.038 C 
ATOM      4  CB  THR A   1       4.917   5.543 -11.312  0.00  0.00    +0.181 C 
ATOM      5  OG1 THR A   1       3.666   5.849 -12.135  0.00  0.00    -0.221 OA
ENDBRANCH   1   4
BRANCH   1   6
ATOM      6  C   THR A   1       7.308   5.569 -11.925  0.00  0.00    +0.384 C 
ATOM      7  OXT THR A   1       7.766   4.543 -12.751  0.00  0.00    -0.244 OA
ATOM      8  O   THR A   1       8.130   6.386 -11.506  0.00  0.00    -0.244 OA
ENDBRANCH   1   6
TORSDOF 2
ENDMDL
MODEL 5
REMARK VINA RESULT:      -3.9     11.591     12.547
REMARK  Name = 
REMARK  2 active torsions:
REMARK  status: ('A' for Active; 'I' for Inactive)
REMARK    1  A    between atoms: CB_2  and  CA_4
REMARK    2  A    between atoms: CA_4  and  C_6
REMARK                            x       y       z     vdW  Elec       q    Type
REMARK                         _______ _______ _______ _____ _____    ______ ____
ROOT
ATOM      1  CA  THR A   1      -1.813   5.471  -3.367  0.00  0.00    +0.224 C 
ATOM      2  N   THR A   1      -2.255   4.931  -1.946  0.00  0.00    -0.118 NA
ENDROOT
BRANCH   1   4
ATOM      3  CG2 THR A   1      -2.077   7.605  -4.501  0.00  0.00    +0.038 C 
ATOM      4  CB  THR A   1      -2.045   7.145  -2.906  0.00  0.00    +0.181 C 
ATOM      5  OG1 THR A   1      -3.564   6.969  -2.898  0.00  0.00    -0.221 OA
ENDBRANCH   1   4
BRANCH   1   6
ATOM      6  C   THR A   1      -0.250   5.452  -2.932  0.00  0.00    +0.384 C 
ATOM      7  OXT THR A   1      -0.126   4.691  -1.770  0.00  0.00    -0.244 OA
ATOM      8  O   THR A   1       0.565   5.265  -3.836  0.00  0.00    -0.244 OA
ENDBRANCH   1   6
TORSDOF 2
ENDMDL
MODEL 6
REMARK VINA RESULT:      -3.9      1.731      3.297
REMARK  Name = 
REMARK  2 active torsions:
REMARK  status: ('A' for Active; 'I' for Inactive)
REMARK    1  A    between atoms: CB_2  and  CA_4
REMARK    2  A    between atoms: CA_4  and  C_6
REMARK                            x       y       z     vdW  Elec       q    Type
REMARK                         _______ _______ _______ _____ _____    ______ ____
ROOT
ATOM      1  CA  THR A   1       7.446   6.595 -11.566  0.00  0.00    +0.224 C 
ATOM      2  N   THR A   1       6.939   5.819 -10.282  0.00  0.00    -0.118 NA
ENDROOT
BRANCH   1   4
ATOM      3  CG2 THR A   1       7.353   6.235 -13.969  0.00  0.00    +0.038 C 
ATOM      4  CB  THR A   1       6.647   5.489 -12.665  0.00  0.00    +0.181 C 
ATOM      5  OG1 THR A   1       7.808   4.498 -12.568  0.00  0.00    -0.221 OA
ENDBRANCH   1   4
BRANCH   1   6
ATOM      6  C   THR A   1       6.185   7.614 -11.498  0.00  0.00    +0.384 C 
ATOM      7  OXT THR A   1       5.371   7.235 -10.430  0.00  0.00    -0.244 OA
ATOM      8  O   THR A   1       6.443   8.811 -11.632  0.00  0.00    -0.244 OA
ENDBRANCH   1   6
TORSDOF 2
ENDMDL
MODEL 7
REMARK VINA RESULT:      -3.7      1.960      3.084
REMARK  Name = 
REMARK  2 active torsions:
REMARK  status: ('A' for Active; 'I' for Inactive)
REMARK    1  A    between atoms: CB_2  and  CA_4
REMARK    2  A    between atoms: CA_4  and  C_6
REMARK                            x       y       z     vdW  Elec       q    Type
REMARK                         _______ _______ _______ _____ _____    ______ ____
ROOT
ATOM      1  CA  THR A   1       5.923   5.326 -11.872  0.00  0.00    +0.224 C 
ATOM      2  N   THR A   1       5.028   4.803 -13.069  0.00  0.00    -0.118 NA
ENDROOT
BRANCH   1   4
ATOM      3  CG2 THR A   1       8.177   6.228 -11.736  0.00  0.00    +0.038 C 
ATOM      4  CB  THR A   1       7.041   6.145 -12.944  0.00  0.00    +0.181 C 
ATOM      5  OG1 THR A   1       7.612   4.811 -13.427  0.00  0.00    -0.221 OA
ENDBRANCH   1   4
BRANCH   1   6
ATOM      6  C   THR A   1       4.977   6.629 -11.681  0.00  0.00    +0.384 C 
ATOM      7  OXT THR A   1       3.696   6.313 -12.133  0.00  0.00    -0.244 OA
ATOM      8  O   THR A   1       5.081   7.226 -10.608  0.00  0.00    -0.244 OA
ENDBRANCH   1   6
TORSDOF 2
ENDMDL
MODEL 8
REMARK VINA RESULT:      -3.7      5.805      6.834
REMARK  Name = 
REMARK  2 active torsions:
REMARK  status: ('A' for Active; 'I' for Inactive)
REMARK    1  A    between atoms: CB_2  and  CA_4
REMARK    2  A    between atoms: CA_4  and  C_6
REMARK                            x       y       z     vdW  Elec       q    Type
REMARK                         _______ _______ _______ _____ _____    ______ ____
ROOT
ATOM      1  CA  THR A   1       3.013   6.124  -8.270  0.00  0.00    +0.224 C 
ATOM      2  N   THR A   1       4.046   5.675  -7.157  0.00  0.00    -0.118 NA
ENDROOT
BRANCH   1   4
ATOM      3  CG2 THR A   1       0.876   5.297  -9.082  0.00  0.00    +0.038 C 
ATOM      4  CB  THR A   1       1.804   4.968  -7.746  0.00  0.00    +0.181 C 
ATOM      5  OG1 THR A   1       2.516   3.835  -8.486  0.00  0.00    -0.221 OA
ENDBRANCH   1   4
BRANCH   1   6
ATOM      6  C   THR A   1       2.448   7.313  -7.322  0.00  0.00    +0.384 C 
ATOM      7  OXT THR A   1       3.280   7.421  -6.208  0.00  0.00    -0.244 OA
ATOM      8  O   THR A   1       2.108   8.350  -7.893  0.00  0.00    -0.244 OA
ENDBRANCH   1   6
TORSDOF 2
ENDMDL
MODEL 9
REMARK VINA RESULT:      -3.7     11.777     12.689
REMARK  Name = 
REMARK  2 active torsions:
REMARK  status: ('A' for Active; 'I' for Inactive)
REMARK    1  A    between atoms: CB_2  and  CA_4
REMARK    2  A    between atoms: CA_4  and  C_6
REMARK                            x       y       z     vdW  Elec       q    Type
REMARK                         _______ _______ _______ _____ _____    ______ ____
ROOT
ATOM      1  CA  THR A   1      -2.813   6.671  -3.452  0.00  0.00    +0.224 C 
ATOM      2  N   THR A   1      -2.638   5.469  -4.469  0.00  0.00    -0.118 NA
ENDROOT
BRANCH   1   4
ATOM      3  CG2 THR A   1      -2.126   7.080  -1.157  0.00  0.00    +0.038 C 
ATOM      4  CB  THR A   1      -1.632   6.019  -2.334  0.00  0.00    +0.181 C 
ATOM      5  OG1 THR A   1      -2.626   4.967  -1.842  0.00  0.00    -0.221 OA
ENDBRANCH   1   4
BRANCH   1   6
ATOM      6  C   THR A   1      -1.724   7.563  -4.257  0.00  0.00    +0.384 C 
ATOM      7  OXT THR A   1      -1.419   6.912  -5.453  0.00  0.00    -0.244 OA
ATOM      8  O   THR A   1      -1.934   8.776  -4.296  0.00  0.00    -0.244 OA
ENDBRANCH   1   6
TORSDOF 2
ENDMDL
