MODEL 1
REMARK VINA RESULT:      -8.6      0.000      0.000
REMARK  Name = 
REMARK  2 active torsions:
REMARK  status: ('A' for Active; 'I' for Inactive)
REMARK    1  A    between atoms: C_21  and  C_23
REMARK    2  A    between atoms: C_23  and  C_25
REMARK                            x       y       z     vdW  Elec       q    Type
REMARK                         _______ _______ _______ _____ _____    ______ ____
ROOT
ATOM      1  C   UNL     1       2.794   4.054  -9.001  0.00  0.00    +0.003 C 
ATOM      2  C   UNL     1       2.992   5.434  -8.698  0.00  0.00    +0.035 C 
ATOM      3  C   UNL     1       3.522   6.048  -9.869  0.00  0.00    +0.180 C 
ATOM      4  O   UNL     1       3.738   7.389  -9.684  0.00  0.00    -0.218 OA
ATOM      5  C   UNL     1       2.455   5.737 -10.923  0.00  0.00    +0.038 C 
ATOM      6  C   UNL     1       1.238   5.217 -10.150  0.00  0.00    +0.003 C 
ATOM      7  C   UNL     1       1.560   6.176  -8.889  0.00  0.00    +0.003 C 
ATOM      8  C   UNL     1       0.972   5.190  -7.658  0.00  0.00    +0.003 C 
ATOM      9  C   UNL     1      -0.559   5.374  -8.098  0.00  0.00    +0.004 C 
ATOM     10  C   UNL     1      -1.304   4.868  -6.866  0.00  0.00    +0.022 C 
ATOM     11  C   UNL     1      -0.930   5.772  -5.727  0.00  0.00    -0.042 C 
ATOM     12  C   UNL     1       0.544   5.830  -5.390  0.00  0.00    +0.018 C 
ATOM     13  C   UNL     1       1.006   4.460  -5.312  0.00  0.00    +0.004 C 
ATOM     14  C   UNL     1       0.667   6.731  -4.235  0.00  0.00    +0.012 C 
ATOM     15  C   UNL     1      -0.570   7.091  -3.506  0.00  0.00    +0.069 C 
ATOM     16  C   UNL     1      -1.524   7.689  -4.494  0.00  0.00    +0.173 C 
ATOM     17  O   UNL     1      -1.679   8.947  -4.533  0.00  0.00    -0.291 OA
ATOM     18  C   UNL     1      -1.652   6.898  -5.727  0.00  0.00    +0.029 C 
ATOM     19  C   UNL     1       0.942   6.591  -6.740  0.00  0.00    +0.034 C 
ATOM     20  C   UNL     1       2.622   6.847  -6.561  0.00  0.00    +0.152 C 
ATOM     21  O   UNL     1       2.819   6.143  -5.236  0.00  0.00    -0.223 OA
ATOM     22  C   UNL     1       3.232   5.555  -7.343  0.00  0.00    +0.036 C 
ENDROOT
BRANCH   3  23
ATOM     23  C   UNL     1       4.768   5.477 -10.469  0.00  0.00    +0.211 C 
ATOM     24  O   UNL     1       4.703   5.380 -11.696  0.00  0.00    -0.291 OA
BRANCH  23  25
ATOM     25  C   UNL     1       6.018   6.184 -10.023  0.00  0.00    +0.248 C 
ATOM     26  O   UNL     1       6.682   5.515  -9.015  0.00  0.00    -0.212 OA
ENDBRANCH  23  25
ENDBRANCH   3  23
TORSDOF 2
ENDMDL
MODEL 2
REMARK VINA RESULT:      -8.6      2.804      6.121
REMARK  Name = 
REMARK  2 active torsions:
REMARK  status: ('A' for Active; 'I' for Inactive)
REMARK    1  A    between atoms: C_21  and  C_23
REMARK    2  A    between atoms: C_23  and  C_25
REMARK                            x       y       z     vdW  Elec       q    Type
REMARK                         _______ _______ _______ _____ _____    ______ ____
ROOT
ATOM      1  C   UNL     1       4.420   4.939  -3.551  0.00  0.00    +0.003 C 
ATOM      2  C   UNL     1       3.470   5.996  -3.684  0.00  0.00    +0.035 C 
ATOM      3  C   UNL     1       3.891   7.047  -2.820  0.00  0.00    +0.180 C 
ATOM      4  O   UNL     1       3.044   8.123  -2.882  0.00  0.00    -0.218 OA
ATOM      5  C   UNL     1       5.307   7.348  -3.321  0.00  0.00    +0.038 C 
ATOM      6  C   UNL     1       5.443   6.617  -4.661  0.00  0.00    +0.003 C 
ATOM      7  C   UNL     1       3.880   6.843  -5.006  0.00  0.00    +0.003 C 
ATOM      8  C   UNL     1       3.606   5.441  -5.896  0.00  0.00    +0.003 C 
ATOM      9  C   UNL     1       4.506   5.923  -7.133  0.00  0.00    +0.004 C 
ATOM     10  C   UNL     1       4.078   4.954  -8.230  0.00  0.00    +0.022 C 
ATOM     11  C   UNL     1       2.614   5.185  -8.473  0.00  0.00    -0.042 C 
ATOM     12  C   UNL     1       1.709   4.970  -7.279  0.00  0.00    +0.018 C 
ATOM     13  C   UNL     1       2.079   3.693  -6.703  0.00  0.00    +0.004 C 
ATOM     14  C   UNL     1       0.339   5.209  -7.755  0.00  0.00    +0.012 C 
ATOM     15  C   UNL     1       0.116   5.275  -9.217  0.00  0.00    +0.069 C 
ATOM     16  C   UNL     1       1.019   6.335  -9.768  0.00  0.00    +0.173 C 
ATOM     17  O   UNL     1       0.541   7.471 -10.067  0.00  0.00    -0.291 OA
ATOM     18  C   UNL     1       2.402   6.229  -9.282  0.00  0.00    +0.029 C 
ATOM     19  C   UNL     1       2.258   6.244  -6.484  0.00  0.00    +0.034 C 
ATOM     20  C   UNL     1       1.300   6.261  -5.068  0.00  0.00    +0.152 C 
ATOM     21  O   UNL     1       0.497   5.004  -5.323  0.00  0.00    -0.223 OA
ATOM     22  C   UNL     1       2.250   5.447  -4.025  0.00  0.00    +0.036 C 
ENDROOT
BRANCH   3  23
ATOM     23  C   UNL     1       4.104   6.735  -1.372  0.00  0.00    +0.211 C 
ATOM     24  O   UNL     1       5.047   7.361  -0.884  0.00  0.00    -0.291 OA
BRANCH  23  25
ATOM     25  C   UNL     1       2.853   6.865  -0.548  0.00  0.00    +0.248 C 
ATOM     26  O   UNL     1       2.203   5.661  -0.366  0.00  0.00    -0.212 OA
ENDBRANCH  23  25
ENDBRANCH   3  23
TORSDOF 2
ENDMDL
MODEL 3
REMARK VINA RESULT:      -8.4      2.069      6.806
REMARK  Name = 
REMARK  2 active torsions:
REMARK  status: ('A' for Active; 'I' for Inactive)
REMARK    1  A    between atoms: C_21  and  C_23
REMARK    2  A    between atoms: C_23  and  C_25
REMARK                            x       y       z     vdW  Elec       q    Type
REMARK                         _______ _______ _______ _____ _____    ______ ____
ROOT
ATOM      1  C   UNL     1      -1.394   7.621  -4.822  0.00  0.00    +0.003 C 
ATOM      2  C   UNL     1      -0.523   6.592  -4.356  0.00  0.00    +0.035 C 
ATOM      3  C   UNL     1      -1.238   5.851  -3.372  0.00  0.00    +0.180 C 
ATOM      4  O   UNL     1      -0.485   4.824  -2.866  0.00  0.00    -0.218 OA
ATOM      5  C   UNL     1      -2.480   5.386  -4.138  0.00  0.00    +0.038 C 
ATOM      6  C   UNL     1      -2.191   5.665  -5.617  0.00  0.00    +0.003 C 
ATOM      7  C   UNL     1      -0.613   5.370  -5.422  0.00  0.00    +0.003 C 
ATOM      8  C   UNL     1      -0.007   6.434  -6.577  0.00  0.00    +0.003 C 
ATOM      9  C   UNL     1      -0.566   5.578  -7.812  0.00  0.00    +0.004 C 
ATOM     10  C   UNL     1       0.214   6.169  -8.983  0.00  0.00    +0.022 C 
ATOM     11  C   UNL     1       1.668   5.899  -8.720  0.00  0.00    -0.042 C 
ATOM     12  C   UNL     1       2.225   6.488  -7.443  0.00  0.00    +0.018 C 
ATOM     13  C   UNL     1       1.803   7.874  -7.407  0.00  0.00    +0.004 C 
ATOM     14  C   UNL     1       3.652   6.138  -7.417  0.00  0.00    +0.012 C 
ATOM     15  C   UNL     1       4.262   5.628  -8.666  0.00  0.00    +0.069 C 
ATOM     16  C   UNL     1       3.471   4.434  -9.104  0.00  0.00    +0.173 C 
ATOM     17  O   UNL     1       3.930   3.269  -8.899  0.00  0.00    -0.291 OA
ATOM     18  C   UNL     1       2.019   4.660  -9.084  0.00  0.00    +0.029 C 
ATOM     19  C   UNL     1       1.389   5.513  -6.490  0.00  0.00    +0.034 C 
ATOM     20  C   UNL     1       1.919   5.951  -4.925  0.00  0.00    +0.152 C 
ATOM     21  O   UNL     1       2.849   7.081  -5.309  0.00  0.00    -0.223 OA
ATOM     22  C   UNL     1       0.781   7.030  -4.487  0.00  0.00    +0.036 C 
ENDROOT
BRANCH   3  23
ATOM     23  C   UNL     1      -1.816   6.592  -2.207  0.00  0.00    +0.211 C 
ATOM     24  O   UNL     1      -2.985   6.277  -1.976  0.00  0.00    -0.291 OA
BRANCH  23  25
ATOM     25  C   UNL     1      -0.958   6.520  -0.974  0.00  0.00    +0.248 C 
ATOM     26  O   UNL     1      -1.673   6.182   0.157  0.00  0.00    -0.212 OA
ENDBRANCH  23  25
ENDBRANCH   3  23
TORSDOF 2
ENDMDL
MODEL 4
REMARK VINA RESULT:      -8.2      2.967      4.332
REMARK  Name = 
REMARK  2 active torsions:
REMARK  status: ('A' for Active; 'I' for Inactive)
REMARK    1  A    between atoms: C_21  and  C_23
REMARK    2  A    between atoms: C_23  and  C_25
REMARK                            x       y       z     vdW  Elec       q    Type
REMARK                         _______ _______ _______ _____ _____    ______ ____
ROOT
ATOM      1  C   UNL     1       1.842   4.082  -6.296  0.00  0.00    +0.003 C 
ATOM      2  C   UNL     1       2.119   5.479  -6.390  0.00  0.00    +0.035 C 
ATOM      3  C   UNL     1       1.333   5.990  -7.463  0.00  0.00    +0.180 C 
ATOM      4  O   UNL     1       1.522   7.338  -7.630  0.00  0.00    -0.218 OA
ATOM      5  C   UNL     1      -0.091   5.614  -7.044  0.00  0.00    +0.038 C 
ATOM      6  C   UNL     1       0.002   5.176  -5.578  0.00  0.00    +0.003 C 
ATOM      7  C   UNL     1       1.196   6.226  -5.283  0.00  0.00    +0.003 C 
ATOM      8  C   UNL     1       2.027   5.349  -4.111  0.00  0.00    +0.003 C 
ATOM      9  C   UNL     1       0.872   5.524  -3.011  0.00  0.00    +0.004 C 
ATOM     10  C   UNL     1       1.597   5.128  -1.729  0.00  0.00    +0.022 C 
ATOM     11  C   UNL     1       2.715   6.112  -1.535  0.00  0.00    -0.042 C 
ATOM     12  C   UNL     1       3.737   6.173  -2.650  0.00  0.00    +0.018 C 
ATOM     13  C   UNL     1       4.117   4.805  -2.939  0.00  0.00    +0.004 C 
ATOM     14  C   UNL     1       4.743   7.159  -2.232  0.00  0.00    +0.012 C 
ATOM     15  C   UNL     1       4.736   7.596  -0.817  0.00  0.00    +0.069 C 
ATOM     16  C   UNL     1       3.370   8.129  -0.512  0.00  0.00    +0.173 C 
ATOM     17  O   UNL     1       3.184   9.382  -0.463  0.00  0.00    -0.291 OA
ATOM     18  C   UNL     1       2.287   7.247  -0.970  0.00  0.00    +0.029 C 
ATOM     19  C   UNL     1       2.722   6.818  -3.705  0.00  0.00    +0.034 C 
ATOM     20  C   UNL     1       3.698   7.060  -5.086  0.00  0.00    +0.152 C 
ATOM     21  O   UNL     1       4.985   6.459  -4.562  0.00  0.00    -0.223 OA
ATOM     22  C   UNL     1       3.404   5.701  -5.933  0.00  0.00    +0.036 C 
ENDROOT
BRANCH   3  23
ATOM     23  C   UNL     1       1.470   5.354  -8.810  0.00  0.00    +0.211 C 
ATOM     24  O   UNL     1       0.444   5.449  -9.487  0.00  0.00    -0.291 OA
BRANCH  23  25
ATOM     25  C   UNL     1       2.688   5.814  -9.562  0.00  0.00    +0.248 C 
ATOM     26  O   UNL     1       3.685   4.860  -9.602  0.00  0.00    -0.212 OA
ENDBRANCH  23  25
ENDBRANCH   3  23
TORSDOF 2
ENDMDL
MODEL 5
REMARK VINA RESULT:      -8.0      1.680      6.602
REMARK  Name = 
REMARK  2 active torsions:
REMARK  status: ('A' for Active; 'I' for Inactive)
REMARK    1  A    between atoms: C_21  and  C_23
REMARK    2  A    between atoms: C_23  and  C_25
REMARK                            x       y       z     vdW  Elec       q    Type
REMARK                         _______ _______ _______ _____ _____    ______ ____
ROOT
ATOM      1  C   UNL     1       1.369   4.379  -5.611  0.00  0.00    +0.003 C 
ATOM      2  C   UNL     1       1.111   5.645  -6.217  0.00  0.00    +0.035 C 
ATOM      3  C   UNL     1       0.577   6.493  -5.204  0.00  0.00    +0.180 C 
ATOM      4  O   UNL     1       0.304   7.747  -5.686  0.00  0.00    -0.218 OA
ATOM      5  C   UNL     1       1.673   6.469  -4.134  0.00  0.00    +0.038 C 
ATOM      6  C   UNL     1       2.896   5.829  -4.798  0.00  0.00    +0.003 C 
ATOM      7  C   UNL     1       2.515   6.460  -6.237  0.00  0.00    +0.003 C 
ATOM      8  C   UNL     1       3.121   5.239  -7.225  0.00  0.00    +0.003 C 
ATOM      9  C   UNL     1       4.651   5.573  -6.878  0.00  0.00    +0.004 C 
ATOM     10  C   UNL     1       5.394   4.824  -7.980  0.00  0.00    +0.022 C 
ATOM     11  C   UNL     1       4.965   5.428  -9.286  0.00  0.00    -0.042 C 
ATOM     12  C   UNL     1       3.484   5.356  -9.589  0.00  0.00    +0.018 C 
ATOM     13  C   UNL     1       3.076   3.989  -9.339  0.00  0.00    +0.004 C 
ATOM     14  C   UNL     1       3.306   5.962 -10.916  0.00  0.00    +0.012 C 
ATOM     15  C   UNL     1       4.515   6.188 -11.740  0.00  0.00    +0.069 C 
ATOM     16  C   UNL     1       5.461   7.030 -10.940  0.00  0.00    +0.173 C 
ATOM     17  O   UNL     1       5.566   8.268 -11.194  0.00  0.00    -0.291 OA
ATOM     18  C   UNL     1       5.642   6.549  -9.562  0.00  0.00    +0.029 C 
ATOM     19  C   UNL     1       3.079   6.392  -8.439  0.00  0.00    +0.034 C 
ATOM     20  C   UNL     1       1.388   6.541  -8.629  0.00  0.00    +0.152 C 
ATOM     21  O   UNL     1       1.197   5.545  -9.752  0.00  0.00    -0.223 OA
ATOM     22  C   UNL     1       0.843   5.442  -7.557  0.00  0.00    +0.036 C 
ENDROOT
BRANCH   3  23
ATOM     23  C   UNL     1      -0.635   6.032  -4.458  0.00  0.00    +0.211 C 
ATOM     24  O   UNL     1      -0.590   6.312  -3.258  0.00  0.00    -0.291 OA
BRANCH  23  25
ATOM     25  C   UNL     1      -1.925   6.471  -5.092  0.00  0.00    +0.248 C 
ATOM     26  O   UNL     1      -2.404   5.564  -6.016  0.00  0.00    -0.212 OA
ENDBRANCH  23  25
ENDBRANCH   3  23
TORSDOF 2
ENDMDL
MODEL 6
REMARK VINA RESULT:      -7.9      2.732      4.519
REMARK  Name = 
REMARK  2 active torsions:
REMARK  status: ('A' for Active; 'I' for Inactive)
REMARK    1  A    between atoms: C_21  and  C_23
REMARK    2  A    between atoms: C_23  and  C_25
REMARK                            x       y       z     vdW  Elec       q    Type
REMARK                         _______ _______ _______ _____ _____    ______ ____
ROOT
ATOM      1  C   UNL     1       2.870   7.083  -7.820  0.00  0.00    +0.003 C 
ATOM      2  C   UNL     1       2.525   5.740  -7.486  0.00  0.00    +0.035 C 
ATOM      3  C   UNL     1       2.859   4.930  -8.609  0.00  0.00    +0.180 C 
ATOM      4  O   UNL     1       2.573   3.608  -8.383  0.00  0.00    -0.218 OA
ATOM      5  C   UNL     1       4.352   5.214  -8.796  0.00  0.00    +0.038 C 
ATOM      6  C   UNL     1       4.802   5.952  -7.531  0.00  0.00    +0.003 C 
ATOM      7  C   UNL     1       3.752   5.134  -6.613  0.00  0.00    +0.003 C 
ATOM      8  C   UNL     1       3.425   6.324  -5.469  0.00  0.00    +0.003 C 
ATOM      9  C   UNL     1       4.888   6.246  -4.815  0.00  0.00    +0.004 C 
ATOM     10  C   UNL     1       4.681   6.980  -3.494  0.00  0.00    +0.022 C 
ATOM     11  C   UNL     1       3.669   6.195  -2.710  0.00  0.00    -0.042 C 
ATOM     12  C   UNL     1       2.316   6.026  -3.368  0.00  0.00    +0.018 C 
ATOM     13  C   UNL     1       1.910   7.340  -3.823  0.00  0.00    +0.004 C 
ATOM     14  C   UNL     1       1.488   5.272  -2.416  0.00  0.00    +0.012 C 
ATOM     15  C   UNL     1       1.980   5.139  -1.026  0.00  0.00    +0.069 C 
ATOM     16  C   UNL     1       3.344   4.523  -1.083  0.00  0.00    +0.173 C 
ATOM     17  O   UNL     1       3.489   3.294  -0.809  0.00  0.00    -0.291 OA
ATOM     18  C   UNL     1       4.227   5.159  -2.073  0.00  0.00    +0.029 C 
ATOM     19  C   UNL     1       2.866   5.063  -4.520  0.00  0.00    +0.034 C 
ATOM     20  C   UNL     1       1.454   4.657  -5.394  0.00  0.00    +0.152 C 
ATOM     21  O   UNL     1       0.460   5.500  -4.623  0.00  0.00    -0.223 OA
ATOM     22  C   UNL     1       1.479   5.769  -6.584  0.00  0.00    +0.036 C 
ENDROOT
BRANCH   3  23
ATOM     23  C   UNL     1       2.277   5.286  -9.941  0.00  0.00    +0.211 C 
ATOM     24  O   UNL     1       3.103   5.223 -10.853  0.00  0.00    -0.291 OA
BRANCH  23  25
ATOM     25  C   UNL     1       1.021   4.525 -10.262  0.00  0.00    +0.248 C 
ATOM     26  O   UNL     1      -0.117   5.136  -9.775  0.00  0.00    -0.212 OA
ENDBRANCH  23  25
ENDBRANCH   3  23
TORSDOF 2
ENDMDL
MODEL 7
REMARK VINA RESULT:      -7.9      2.234      3.694
REMARK  Name = 
REMARK  2 active torsions:
REMARK  status: ('A' for Active; 'I' for Inactive)
REMARK    1  A    between atoms: C_21  and  C_23
REMARK    2  A    between atoms: C_23  and  C_25
REMARK                            x       y       z     vdW  Elec       q    Type
REMARK                         _______ _______ _______ _____ _____    ______ ____
ROOT
ATOM      1  C   UNL     1       0.647   4.473 -10.484  0.00  0.00    +0.003 C 
ATOM      2  C   UNL     1       1.806   5.304 -10.542  0.00  0.00    +0.035 C 
ATOM      3  C   UNL     1       1.696   6.095 -11.722  0.00  0.00    +0.180 C 
ATOM      4  O   UNL     1       2.764   6.942 -11.865  0.00  0.00    -0.218 OA
ATOM      5  C   UNL     1       0.360   6.817 -11.518  0.00  0.00    +0.038 C 
ATOM      6  C   UNL     1      -0.025   6.585 -10.053  0.00  0.00    +0.003 C 
ATOM      7  C   UNL     1       1.524   6.587  -9.588  0.00  0.00    +0.003 C 
ATOM      8  C   UNL     1       1.409   5.508  -8.301  0.00  0.00    +0.003 C 
ATOM      9  C   UNL     1       0.570   6.524  -7.386  0.00  0.00    +0.004 C 
ATOM     10  C   UNL     1       0.692   5.880  -6.008  0.00  0.00    +0.022 C 
ATOM     11  C   UNL     1       2.152   5.875  -5.655  0.00  0.00    -0.042 C 
ATOM     12  C   UNL     1       3.055   5.119  -6.606  0.00  0.00    +0.018 C 
ATOM     13  C   UNL     1       2.434   3.829  -6.829  0.00  0.00    +0.004 C 
ATOM     14  C   UNL     1       4.411   5.213  -6.046  0.00  0.00    +0.012 C 
ATOM     15  C   UNL     1       4.551   5.686  -4.650  0.00  0.00    +0.069 C 
ATOM     16  C   UNL     1       3.887   7.025  -4.554  0.00  0.00    +0.173 C 
ATOM     17  O   UNL     1       4.596   8.076  -4.539  0.00  0.00    -0.291 OA
ATOM     18  C   UNL     1       2.550   7.054  -5.164  0.00  0.00    +0.029 C 
ATOM     19  C   UNL     1       2.867   6.164  -7.802  0.00  0.00    +0.034 C 
ATOM     20  C   UNL     1       3.888   5.544  -9.024  0.00  0.00    +0.152 C 
ATOM     21  O   UNL     1       4.360   4.294  -8.312  0.00  0.00    -0.223 OA
ATOM     22  C   UNL     1       2.843   4.654  -9.900  0.00  0.00    +0.036 C 
ENDROOT
BRANCH   3  23
ATOM     23  C   UNL     1       1.507   5.395 -13.031  0.00  0.00    +0.211 C 
ATOM     24  O   UNL     1       0.632   5.916 -13.726  0.00  0.00    -0.291 OA
BRANCH  23  25
ATOM     25  C   UNL     1       2.790   5.201 -13.790  0.00  0.00    +0.248 C 
ATOM     26  O   UNL     1       2.841   5.938 -14.956  0.00  0.00    -0.212 OA
ENDBRANCH  23  25
ENDBRANCH   3  23
TORSDOF 2
ENDMDL
MODEL 8
REMARK VINA RESULT:      -7.8      2.396      3.910
REMARK  Name = 
REMARK  2 active torsions:
REMARK  status: ('A' for Active; 'I' for Inactive)
REMARK    1  A    between atoms: C_21  and  C_23
REMARK    2  A    between atoms: C_23  and  C_25
REMARK                            x       y       z     vdW  Elec       q    Type
REMARK                         _______ _______ _______ _____ _____    ______ ____
ROOT
ATOM      1  C   UNL     1       1.200   4.251  -5.725  0.00  0.00    +0.003 C 
ATOM      2  C   UNL     1       1.725   5.532  -5.375  0.00  0.00    +0.035 C 
ATOM      3  C   UNL     1       2.008   6.215  -6.592  0.00  0.00    +0.180 C 
ATOM      4  O   UNL     1       2.510   7.470  -6.363  0.00  0.00    -0.218 OA
ATOM      5  C   UNL     1       0.650   6.215  -7.301  0.00  0.00    +0.038 C 
ATOM      6  C   UNL     1      -0.375   5.781  -6.248  0.00  0.00    +0.003 C 
ATOM      7  C   UNL     1       0.458   6.498  -5.062  0.00  0.00    +0.003 C 
ATOM      8  C   UNL     1       0.068   5.450  -3.803  0.00  0.00    +0.003 C 
ATOM      9  C   UNL     1      -1.464   5.921  -3.746  0.00  0.00    +0.004 C 
ATOM     10  C   UNL     1      -1.913   5.366  -2.397  0.00  0.00    +0.022 C 
ATOM     11  C   UNL     1      -1.076   6.038  -1.347  0.00  0.00    -0.042 C 
ATOM     12  C   UNL     1       0.419   5.828  -1.464  0.00  0.00    +0.018 C 
ATOM     13  C   UNL     1       0.624   4.406  -1.650  0.00  0.00    +0.004 C 
ATOM     14  C   UNL     1       1.023   6.532  -0.324  0.00  0.00    +0.012 C 
ATOM     15  C   UNL     1       0.129   6.969   0.771  0.00  0.00    +0.069 C 
ATOM     16  C   UNL     1      -0.938   7.833   0.171  0.00  0.00    +0.173 C 
ATOM     17  O   UNL     1      -0.865   9.093   0.291  0.00  0.00    -0.291 OA
ATOM     18  C   UNL     1      -1.550   7.249  -1.031  0.00  0.00    +0.029 C 
ATOM     19  C   UNL     1       0.554   6.700  -2.799  0.00  0.00    +0.034 C 
ATOM     20  C   UNL     1       2.234   6.675  -3.110  0.00  0.00    +0.152 C 
ATOM     21  O   UNL     1       2.662   5.773  -1.972  0.00  0.00    -0.223 OA
ATOM     22  C   UNL     1       2.353   5.426  -4.149  0.00  0.00    +0.036 C 
ENDROOT
BRANCH   3  23
ATOM     23  C   UNL     1       2.909   5.553  -7.586  0.00  0.00    +0.211 C 
ATOM     24  O   UNL     1       2.637   5.854  -8.750  0.00  0.00    -0.291 OA
BRANCH  23  25
ATOM     25  C   UNL     1       4.369   5.742  -7.280  0.00  0.00    +0.248 C 
ATOM     26  O   UNL     1       5.193   5.089  -8.175  0.00  0.00    -0.212 OA
ENDBRANCH  23  25
ENDBRANCH   3  23
TORSDOF 2
ENDMDL
MODEL 9
REMARK VINA RESULT:      -7.7      2.362      4.591
REMARK  Name = 
REMARK  2 active torsions:
REMARK  status: ('A' for Active; 'I' for Inactive)
REMARK    1  A    between atoms: C_21  and  C_23
REMARK    2  A    between atoms: C_23  and  C_25
REMARK                            x       y       z     vdW  Elec       q    Type
REMARK                         _______ _______ _______ _____ _____    ______ ____
ROOT
ATOM      1  C   UNL     1       5.628   7.590 -11.022  0.00  0.00    +0.003 C 
ATOM      2  C   UNL     1       4.837   6.441 -11.322  0.00  0.00    +0.035 C 
ATOM      3  C   UNL     1       5.556   5.679 -12.288  0.00  0.00    +0.180 C 
ATOM      4  O   UNL     1       4.880   4.539 -12.638  0.00  0.00    -0.218 OA
ATOM      5  C   UNL     1       6.889   5.413 -11.583  0.00  0.00    +0.038 C 
ATOM      6  C   UNL     1       6.676   5.807 -10.117  0.00  0.00    +0.003 C 
ATOM      7  C   UNL     1       5.127   5.344 -10.160  0.00  0.00    +0.003 C 
ATOM      8  C   UNL     1       4.495   6.453  -9.063  0.00  0.00    +0.003 C 
ATOM      9  C   UNL     1       5.223   5.780  -7.802  0.00  0.00    +0.004 C 
ATOM     10  C   UNL     1       4.469   6.405  -6.633  0.00  0.00    +0.022 C 
ATOM     11  C   UNL     1       3.036   5.972  -6.755  0.00  0.00    -0.042 C 
ATOM     12  C   UNL     1       2.334   6.377  -8.033  0.00  0.00    +0.018 C 
ATOM     13  C   UNL     1       2.608   7.786  -8.228  0.00  0.00    +0.004 C 
ATOM     14  C   UNL     1       0.952   5.890  -7.915  0.00  0.00    +0.012 C 
ATOM     15  C   UNL     1       0.486   5.449  -6.581  0.00  0.00    +0.069 C 
ATOM     16  C   UNL     1       1.424   4.385  -6.100  0.00  0.00    +0.173 C 
ATOM     17  O   UNL     1       1.075   3.168  -6.161  0.00  0.00    -0.291 OA
ATOM     18  C   UNL     1       2.841   4.747  -6.254  0.00  0.00    +0.029 C 
ATOM     19  C   UNL     1       3.199   5.398  -8.956  0.00  0.00    +0.034 C 
ATOM     20  C   UNL     1       2.520   5.626 -10.508  0.00  0.00    +0.152 C 
ATOM     21  O   UNL     1       1.507   6.694 -10.157  0.00  0.00    -0.223 OA
ATOM     22  C   UNL     1       3.508   6.762 -11.130  0.00  0.00    +0.036 C 
ENDROOT
BRANCH   3  23
ATOM     23  C   UNL     1       5.973   6.354 -13.557  0.00  0.00    +0.211 C 
ATOM     24  O   UNL     1       7.083   5.987 -13.948  0.00  0.00    -0.291 OA
BRANCH  23  25
ATOM     25  C   UNL     1       4.935   6.268 -14.642  0.00  0.00    +0.248 C 
ATOM     26  O   UNL     1       5.168   7.153 -15.677  0.00  0.00    -0.212 OA
ENDBRANCH  23  25
ENDBRANCH   3  23
TORSDOF 2
ENDMDL
