MODEL 1
REMARK VINA RESULT:      -8.0      0.000      0.000
REMARK  Name = 
REMARK  9 active torsions:
REMARK  status: ('A' for Active; 'I' for Inactive)
REMARK    1  A    between atoms: C_2  and  C_11
REMARK    2  A    between atoms: N_3  and  C_4
REMARK    3  A    between atoms: C_4  and  C_5
REMARK    4  A    between atoms: C_13  and  O_14
REMARK    5  A    between atoms: O_14  and  C_15
REMARK    6  A    between atoms: C_15  and  C_16
REMARK    7  A    between atoms: C_22  and  O_23
REMARK    8  A    between atoms: O_23  and  C_24
REMARK    9  A    between atoms: C_24  and  C_25
REMARK                            x       y       z     vdW  Elec       q    Type
REMARK                         _______ _______ _______ _____ _____    ______ ____
ROOT
ATOM      1  C   UNL     1       3.360   6.428  -9.636  0.00  0.00    +0.092 A 
ATOM      2  C   UNL     1       2.806   6.404 -10.911  0.00  0.00    +0.144 A 
ATOM      3  C   UNL     1       3.569   5.823 -11.917  0.00  0.00    +0.040 A 
ATOM      4  C   UNL     1       4.890   5.456 -11.684  0.00  0.00    +0.040 A 
ATOM      5  C   UNL     1       5.547   6.033 -10.621  0.00  0.00    +0.139 A 
ATOM      6  C   UNL     1       4.744   6.570  -9.623  0.00  0.00    +0.045 A 
ENDROOT
BRANCH   1   8
ATOM      7  O   UNL     1       2.480   8.046  -8.239  0.00  0.00    -0.268 OA
ATOM      8  C   UNL     1       2.507   6.885  -8.557  0.00  0.00    +0.268 C 
ATOM      9  N   UNL     1       1.727   6.020  -7.730  0.00  0.00    -0.200 NA
BRANCH   9  10
ATOM     10  C   UNL     1       1.717   6.160  -6.290  0.00  0.00    +0.133 C 
BRANCH  10  11
ATOM     11  C   UNL     1       0.168   6.671  -5.943  0.00  0.00    +0.094 C 
ATOM     12  N   UNL     1       0.244   6.038  -4.476  0.00  0.00    -0.218 NA
ATOM     13  C   UNL     1      -1.108   5.635  -4.189  0.00  0.00    +0.089 C 
ATOM     14  C   UNL     1      -2.107   6.319  -5.113  0.00  0.00    +0.019 C 
ATOM     15  C   UNL     1      -1.966   5.615  -6.459  0.00  0.00    +0.003 C 
ATOM     16  C   UNL     1      -0.485   5.266  -6.567  0.00  0.00    +0.019 C 
ENDBRANCH  10  11
ENDBRANCH   9  10
ENDBRANCH   1   8
BRANCH   2  17
ATOM     17  O   UNL     1       1.478   6.729 -11.157  0.00  0.00    -0.466 OA
BRANCH  17  18
ATOM     18  C   UNL     1       0.582   5.881 -11.850  0.00  0.00    +0.308 C 
BRANCH  18  19
ATOM     19  C   UNL     1      -0.001   4.881 -10.884  0.00  0.00    +0.438 C 
ATOM     20  F   UNL     1       0.927   3.977 -10.419  0.00  0.00    -0.166 F 
ATOM     21  F   UNL     1      -0.585   5.541  -9.818  0.00  0.00    -0.166 F 
ATOM     22  F   UNL     1      -1.009   4.160 -11.504  0.00  0.00    -0.166 F 
ENDBRANCH  18  19
ENDBRANCH  17  18
ENDBRANCH   2  17
BRANCH   5  23
ATOM     23  O   UNL     1       6.849   5.683 -10.253  0.00  0.00    -0.467 OA
BRANCH  23  24
ATOM     24  C   UNL     1       7.876   6.530 -10.766  0.00  0.00    +0.308 C 
BRANCH  24  25
ATOM     25  C   UNL     1       8.373   5.895 -12.039  0.00  0.00    +0.438 C 
ATOM     26  F   UNL     1       9.748   5.994 -12.097  0.00  0.00    -0.166 F 
ATOM     27  F   UNL     1       8.034   4.568 -12.014  0.00  0.00    -0.166 F 
ATOM     28  F   UNL     1       7.859   6.562 -13.123  0.00  0.00    -0.166 F 
ENDBRANCH  24  25
ENDBRANCH  23  24
ENDBRANCH   5  23
TORSDOF 9
ENDMDL
MODEL 2
REMARK VINA RESULT:      -7.9      4.388      9.298
REMARK  Name = 
REMARK  9 active torsions:
REMARK  status: ('A' for Active; 'I' for Inactive)
REMARK    1  A    between atoms: C_2  and  C_11
REMARK    2  A    between atoms: N_3  and  C_4
REMARK    3  A    between atoms: C_4  and  C_5
REMARK    4  A    between atoms: C_13  and  O_14
REMARK    5  A    between atoms: O_14  and  C_15
REMARK    6  A    between atoms: C_15  and  C_16
REMARK    7  A    between atoms: C_22  and  O_23
REMARK    8  A    between atoms: O_23  and  C_24
REMARK    9  A    between atoms: C_24  and  C_25
REMARK                            x       y       z     vdW  Elec       q    Type
REMARK                         _______ _______ _______ _____ _____    ______ ____
ROOT
ATOM      1  C   UNL     1       1.793   6.594  -6.305  0.00  0.00    +0.092 A 
ATOM      2  C   UNL     1       2.618   6.219  -5.251  0.00  0.00    +0.144 A 
ATOM      3  C   UNL     1       2.024   5.524  -4.204  0.00  0.00    +0.040 A 
ATOM      4  C   UNL     1       0.642   5.382  -4.141  0.00  0.00    +0.040 A 
ATOM      5  C   UNL     1      -0.135   6.257  -4.865  0.00  0.00    +0.139 A 
ATOM      6  C   UNL     1       0.492   6.902  -5.924  0.00  0.00    +0.045 A 
ENDROOT
BRANCH   1   8
ATOM      7  O   UNL     1       2.180   8.297  -7.821  0.00  0.00    -0.268 OA
ATOM      8  C   UNL     1       2.435   7.173  -7.469  0.00  0.00    +0.268 C 
ATOM      9  N   UNL     1       3.316   6.460  -8.338  0.00  0.00    -0.200 NA
BRANCH   9  10
ATOM     10  C   UNL     1       3.179   6.530  -9.776  0.00  0.00    +0.133 C 
BRANCH  10  11
ATOM     11  C   UNL     1       4.709   6.926 -10.311  0.00  0.00    +0.094 C 
ATOM     12  N   UNL     1       4.541   5.998 -11.602  0.00  0.00    -0.218 NA
ATOM     13  C   UNL     1       5.871   5.517 -11.872  0.00  0.00    +0.089 C 
ATOM     14  C   UNL     1       6.928   6.363 -11.173  0.00  0.00    +0.019 C 
ATOM     15  C   UNL     1       6.862   5.964  -9.703  0.00  0.00    +0.003 C 
ATOM     16  C   UNL     1       5.387   5.675  -9.439  0.00  0.00    +0.019 C 
ENDBRANCH  10  11
ENDBRANCH   9  10
ENDBRANCH   1   8
BRANCH   2  17
ATOM     17  O   UNL     1       4.003   6.316  -5.312  0.00  0.00    -0.466 OA
BRANCH  17  18
ATOM     18  C   UNL     1       4.853   6.048  -4.214  0.00  0.00    +0.308 C 
BRANCH  18  19
ATOM     19  C   UNL     1       5.447   7.342  -3.719  0.00  0.00    +0.438 C 
ATOM     20  F   UNL     1       5.005   8.441  -4.422  0.00  0.00    -0.166 F 
ATOM     21  F   UNL     1       5.168   7.506  -2.374  0.00  0.00    -0.166 F 
ATOM     22  F   UNL     1       6.828   7.302  -3.835  0.00  0.00    -0.166 F 
ENDBRANCH  18  19
ENDBRANCH  17  18
ENDBRANCH   2  17
BRANCH   5  23
ATOM     23  O   UNL     1      -1.528   6.159  -4.931  0.00  0.00    -0.467 OA
BRANCH  23  24
ATOM     24  C   UNL     1      -2.239   6.883  -3.929  0.00  0.00    +0.308 C 
BRANCH  24  25
ATOM     25  C   UNL     1      -3.029   5.874  -3.137  0.00  0.00    +0.438 C 
ATOM     26  F   UNL     1      -3.459   4.865  -3.975  0.00  0.00    -0.166 F 
ATOM     27  F   UNL     1      -2.201   5.330  -2.192  0.00  0.00    -0.166 F 
ATOM     28  F   UNL     1      -4.141   6.473  -2.598  0.00  0.00    -0.166 F 
ENDBRANCH  24  25
ENDBRANCH  23  24
ENDBRANCH   5  23
TORSDOF 9
ENDMDL
MODEL 3
REMARK VINA RESULT:      -7.9      3.181      4.316
REMARK  Name = 
REMARK  9 active torsions:
REMARK  status: ('A' for Active; 'I' for Inactive)
REMARK    1  A    between atoms: C_2  and  C_11
REMARK    2  A    between atoms: N_3  and  C_4
REMARK    3  A    between atoms: C_4  and  C_5
REMARK    4  A    between atoms: C_13  and  O_14
REMARK    5  A    between atoms: O_14  and  C_15
REMARK    6  A    between atoms: C_15  and  C_16
REMARK    7  A    between atoms: C_22  and  O_23
REMARK    8  A    between atoms: O_23  and  C_24
REMARK    9  A    between atoms: C_24  and  C_25
REMARK                            x       y       z     vdW  Elec       q    Type
REMARK                         _______ _______ _______ _____ _____    ______ ____
ROOT
ATOM      1  C   UNL     1       3.389   6.611  -8.116  0.00  0.00    +0.092 A 
ATOM      2  C   UNL     1       4.035   5.731  -7.256  0.00  0.00    +0.144 A 
ATOM      3  C   UNL     1       5.243   5.200  -7.692  0.00  0.00    +0.040 A 
ATOM      4  C   UNL     1       5.677   5.400  -8.997  0.00  0.00    +0.040 A 
ATOM      5  C   UNL     1       4.745   5.759  -9.944  0.00  0.00    +0.139 A 
ATOM      6  C   UNL     1       3.568   6.319  -9.464  0.00  0.00    +0.045 A 
ENDROOT
BRANCH   1   8
ATOM      7  O   UNL     1       2.068   8.476  -7.765  0.00  0.00    -0.268 OA
ATOM      8  C   UNL     1       2.217   7.291  -7.603  0.00  0.00    +0.268 C 
ATOM      9  N   UNL     1       1.216   6.668  -6.796  0.00  0.00    -0.200 NA
BRANCH   9  10
ATOM     10  C   UNL     1       0.720   7.295  -5.590  0.00  0.00    +0.133 C 
BRANCH  10  11
ATOM     11  C   UNL     1      -0.437   6.234  -5.028  0.00  0.00    +0.094 C 
ATOM     12  N   UNL     1      -0.965   5.960  -6.512  0.00  0.00    -0.218 NA
ATOM     13  C   UNL     1      -2.374   5.708  -6.350  0.00  0.00    +0.089 C 
ATOM     14  C   UNL     1      -2.722   5.367  -4.907  0.00  0.00    +0.019 C 
ATOM     15  C   UNL     1      -2.663   6.689  -4.150  0.00  0.00    +0.003 C 
ATOM     16  C   UNL     1      -1.536   7.473  -4.814  0.00  0.00    +0.019 C 
ENDBRANCH  10  11
ENDBRANCH   9  10
ENDBRANCH   1   8
BRANCH   2  17
ATOM     17  O   UNL     1       3.640   5.547  -5.937  0.00  0.00    -0.466 OA
BRANCH  17  18
ATOM     18  C   UNL     1       4.548   5.441  -4.858  0.00  0.00    +0.308 C 
BRANCH  18  19
ATOM     19  C   UNL     1       4.754   6.802  -4.246  0.00  0.00    +0.438 C 
ATOM     20  F   UNL     1       3.835   7.732  -4.680  0.00  0.00    -0.166 F 
ATOM     21  F   UNL     1       4.710   6.712  -2.866  0.00  0.00    -0.166 F 
ATOM     22  F   UNL     1       6.014   7.280  -4.571  0.00  0.00    -0.166 F 
ENDBRANCH  18  19
ENDBRANCH  17  18
ENDBRANCH   2  17
BRANCH   5  23
ATOM     23  O   UNL     1       5.082   6.057 -11.268  0.00  0.00    -0.467 OA
BRANCH  23  24
ATOM     24  C   UNL     1       6.375   5.619 -11.682  0.00  0.00    +0.308 C 
BRANCH  24  25
ATOM     25  C   UNL     1       7.215   6.854 -11.876  0.00  0.00    +0.438 C 
ATOM     26  F   UNL     1       7.893   7.139 -10.708  0.00  0.00    -0.166 F 
ATOM     27  F   UNL     1       8.134   6.596 -12.859  0.00  0.00    -0.166 F 
ATOM     28  F   UNL     1       6.407   7.926 -12.163  0.00  0.00    -0.166 F 
ENDBRANCH  24  25
ENDBRANCH  23  24
ENDBRANCH   5  23
TORSDOF 9
ENDMDL
MODEL 4
REMARK VINA RESULT:      -7.7      2.062      2.795
REMARK  Name = 
REMARK  9 active torsions:
REMARK  status: ('A' for Active; 'I' for Inactive)
REMARK    1  A    between atoms: C_2  and  C_11
REMARK    2  A    between atoms: N_3  and  C_4
REMARK    3  A    between atoms: C_4  and  C_5
REMARK    4  A    between atoms: C_13  and  O_14
REMARK    5  A    between atoms: O_14  and  C_15
REMARK    6  A    between atoms: C_15  and  C_16
REMARK    7  A    between atoms: C_22  and  O_23
REMARK    8  A    between atoms: O_23  and  C_24
REMARK    9  A    between atoms: C_24  and  C_25
REMARK                            x       y       z     vdW  Elec       q    Type
REMARK                         _______ _______ _______ _____ _____    ______ ____
ROOT
ATOM      1  C   UNL     1       3.893   5.183  -9.022  0.00  0.00    +0.092 A 
ATOM      2  C   UNL     1       3.146   6.149  -9.688  0.00  0.00    +0.144 A 
ATOM      3  C   UNL     1       3.753   6.780 -10.766  0.00  0.00    +0.040 A 
ATOM      4  C   UNL     1       5.102   6.581 -11.038  0.00  0.00    +0.040 A 
ATOM      5  C   UNL     1       5.905   6.104 -10.027  0.00  0.00    +0.139 A 
ATOM      6  C   UNL     1       5.258   5.448  -8.987  0.00  0.00    +0.045 A 
ENDROOT
BRANCH   1   8
ATOM      7  O   UNL     1       2.571   3.431  -8.296  0.00  0.00    -0.268 OA
ATOM      8  C   UNL     1       3.211   4.410  -8.004  0.00  0.00    +0.268 C 
ATOM      9  N   UNL     1       3.145   4.778  -6.625  0.00  0.00    -0.200 NA
BRANCH   9  10
ATOM     10  C   UNL     1       1.899   4.739  -5.892  0.00  0.00    +0.133 C 
BRANCH  10  11
ATOM     11  C   UNL     1       2.290   5.359  -4.394  0.00  0.00    +0.094 C 
ATOM     12  N   UNL     1       2.729   6.754  -5.041  0.00  0.00    -0.218 NA
ATOM     13  C   UNL     1       3.786   7.229  -4.186  0.00  0.00    +0.089 C 
ATOM     14  C   UNL     1       3.781   6.519  -2.839  0.00  0.00    +0.019 C 
ATOM     15  C   UNL     1       4.345   5.128  -3.108  0.00  0.00    +0.003 C 
ATOM     16  C   UNL     1       3.846   4.764  -4.502  0.00  0.00    +0.019 C 
ENDBRANCH  10  11
ENDBRANCH   9  10
ENDBRANCH   1   8
BRANCH   2  17
ATOM     17  O   UNL     1       1.788   6.335  -9.458  0.00  0.00    -0.466 OA
BRANCH  17  18
ATOM     18  C   UNL     1       0.854   6.613 -10.483  0.00  0.00    +0.308 C 
BRANCH  18  19
ATOM     19  C   UNL     1       0.429   5.321 -11.131  0.00  0.00    +0.438 C 
ATOM     20  F   UNL     1       0.493   4.243 -10.275  0.00  0.00    -0.166 F 
ATOM     21  F   UNL     1      -0.855   5.443 -11.631  0.00  0.00    -0.166 F 
ATOM     22  F   UNL     1       1.251   5.042 -12.212  0.00  0.00    -0.166 F 
ENDBRANCH  18  19
ENDBRANCH  17  18
ENDBRANCH   2  17
BRANCH   5  23
ATOM     23  O   UNL     1       7.257   5.798 -10.211  0.00  0.00    -0.467 OA
BRANCH  23  24
ATOM     24  C   UNL     1       7.968   6.674 -11.084  0.00  0.00    +0.308 C 
BRANCH  24  25
ATOM     25  C   UNL     1       8.483   5.833 -12.223  0.00  0.00    +0.438 C 
ATOM     26  F   UNL     1       9.862   5.798 -12.183  0.00  0.00    -0.166 F 
ATOM     27  F   UNL     1       8.011   4.558 -12.060  0.00  0.00    -0.166 F 
ATOM     28  F   UNL     1       8.113   6.395 -13.420  0.00  0.00    -0.166 F 
ENDBRANCH  24  25
ENDBRANCH  23  24
ENDBRANCH   5  23
TORSDOF 9
ENDMDL
MODEL 5
REMARK VINA RESULT:      -7.7      4.010      8.143
REMARK  Name = 
REMARK  9 active torsions:
REMARK  status: ('A' for Active; 'I' for Inactive)
REMARK    1  A    between atoms: C_2  and  C_11
REMARK    2  A    between atoms: N_3  and  C_4
REMARK    3  A    between atoms: C_4  and  C_5
REMARK    4  A    between atoms: C_13  and  O_14
REMARK    5  A    between atoms: O_14  and  C_15
REMARK    6  A    between atoms: C_15  and  C_16
REMARK    7  A    between atoms: C_22  and  O_23
REMARK    8  A    between atoms: O_23  and  C_24
REMARK    9  A    between atoms: C_24  and  C_25
REMARK                            x       y       z     vdW  Elec       q    Type
REMARK                         _______ _______ _______ _____ _____    ______ ____
ROOT
ATOM      1  C   UNL     1       0.757   6.605  -6.266  0.00  0.00    +0.092 A 
ATOM      2  C   UNL     1       0.672   5.430  -7.005  0.00  0.00    +0.144 A 
ATOM      3  C   UNL     1      -0.603   4.951  -7.280  0.00  0.00    +0.040 A 
ATOM      4  C   UNL     1      -1.720   5.523  -6.682  0.00  0.00    +0.040 A 
ATOM      5  C   UNL     1      -1.537   6.265  -5.537  0.00  0.00    +0.139 A 
ATOM      6  C   UNL     1      -0.254   6.753  -5.322  0.00  0.00    +0.045 A 
ENDROOT
BRANCH   1   8
ATOM      7  O   UNL     1       2.587   7.797  -7.024  0.00  0.00    -0.268 OA
ATOM      8  C   UNL     1       2.072   7.194  -6.116  0.00  0.00    +0.268 C 
ATOM      9  N   UNL     1       2.897   7.036  -4.960  0.00  0.00    -0.200 NA
BRANCH   9  10
ATOM     10  C   UNL     1       4.299   6.697  -5.074  0.00  0.00    +0.133 C 
BRANCH  10  11
ATOM     11  C   UNL     1       4.784   6.442  -3.499  0.00  0.00    +0.094 C 
ATOM     12  N   UNL     1       3.644   5.341  -3.283  0.00  0.00    -0.218 NA
ATOM     13  C   UNL     1       3.289   5.461  -1.893  0.00  0.00    +0.089 C 
ATOM     14  C   UNL     1       4.359   6.202  -1.101  0.00  0.00    +0.019 C 
ATOM     15  C   UNL     1       4.201   7.671  -1.478  0.00  0.00    +0.003 C 
ATOM     16  C   UNL     1       3.783   7.658  -2.945  0.00  0.00    +0.019 C 
ENDBRANCH  10  11
ENDBRANCH   9  10
ENDBRANCH   1   8
BRANCH   2  17
ATOM     17  O   UNL     1       1.771   4.866  -7.643  0.00  0.00    -0.466 OA
BRANCH  17  18
ATOM     18  C   UNL     1       1.989   4.944  -9.038  0.00  0.00    +0.308 C 
BRANCH  18  19
ATOM     19  C   UNL     1       3.462   4.802  -9.319  0.00  0.00    +0.438 C 
ATOM     20  F   UNL     1       3.786   5.044 -10.635  0.00  0.00    -0.166 F 
ATOM     21  F   UNL     1       4.184   5.651  -8.499  0.00  0.00    -0.166 F 
ATOM     22  F   UNL     1       3.877   3.514  -9.018  0.00  0.00    -0.166 F 
ENDBRANCH  18  19
ENDBRANCH  17  18
ENDBRANCH   2  17
BRANCH   5  23
ATOM     23  O   UNL     1      -2.578   6.943  -4.897  0.00  0.00    -0.467 OA
BRANCH  23  24
ATOM     24  C   UNL     1      -2.414   7.126  -3.492  0.00  0.00    +0.308 C 
BRANCH  24  25
ATOM     25  C   UNL     1      -3.261   6.082  -2.812  0.00  0.00    +0.438 C 
ATOM     26  F   UNL     1      -2.496   5.399  -1.889  0.00  0.00    -0.166 F 
ATOM     27  F   UNL     1      -4.274   6.720  -2.148  0.00  0.00    -0.166 F 
ATOM     28  F   UNL     1      -3.711   5.173  -3.737  0.00  0.00    -0.166 F 
ENDBRANCH  24  25
ENDBRANCH  23  24
ENDBRANCH   5  23
TORSDOF 9
ENDMDL
MODEL 6
REMARK VINA RESULT:      -7.7      4.887      9.313
REMARK  Name = 
REMARK  9 active torsions:
REMARK  status: ('A' for Active; 'I' for Inactive)
REMARK    1  A    between atoms: C_2  and  C_11
REMARK    2  A    between atoms: N_3  and  C_4
REMARK    3  A    between atoms: C_4  and  C_5
REMARK    4  A    between atoms: C_13  and  O_14
REMARK    5  A    between atoms: O_14  and  C_15
REMARK    6  A    between atoms: C_15  and  C_16
REMARK    7  A    between atoms: C_22  and  O_23
REMARK    8  A    between atoms: O_23  and  C_24
REMARK    9  A    between atoms: C_24  and  C_25
REMARK                            x       y       z     vdW  Elec       q    Type
REMARK                         _______ _______ _______ _____ _____    ______ ____
ROOT
ATOM      1  C   UNL     1       1.257   5.016  -4.677  0.00  0.00    +0.092 A 
ATOM      2  C   UNL     1       2.295   5.637  -3.993  0.00  0.00    +0.144 A 
ATOM      3  C   UNL     1       2.159   5.752  -2.614  0.00  0.00    +0.040 A 
ATOM      4  C   UNL     1       0.960   5.426  -1.990  0.00  0.00    +0.040 A 
ATOM      5  C   UNL     1      -0.183   5.391  -2.756  0.00  0.00    +0.139 A 
ATOM      6  C   UNL     1       0.000   5.239  -4.125  0.00  0.00    +0.045 A 
ENDROOT
BRANCH   1   8
ATOM      7  O   UNL     1       1.968   3.716  -6.453  0.00  0.00    -0.268 OA
ATOM      8  C   UNL     1       1.465   4.748  -6.086  0.00  0.00    +0.268 C 
ATOM      9  N   UNL     1       1.202   5.688  -7.129  0.00  0.00    -0.200 NA
BRANCH   9  10
ATOM     10  C   UNL     1       2.159   5.929  -8.188  0.00  0.00    +0.133 C 
BRANCH  10  11
ATOM     11  C   UNL     1       1.226   6.459  -9.465  0.00  0.00    +0.094 C 
ATOM     12  N   UNL     1       0.378   5.103  -9.461  0.00  0.00    -0.218 NA
ATOM     13  C   UNL     1       0.021   4.900 -10.841  0.00  0.00    +0.089 C 
ATOM     14  C   UNL     1       0.171   6.179 -11.655  0.00  0.00    +0.019 C 
ATOM     15  C   UNL     1       1.672   6.359 -11.858  0.00  0.00    +0.003 C 
ATOM     16  C   UNL     1       2.308   5.835 -10.574  0.00  0.00    +0.019 C 
ENDBRANCH  10  11
ENDBRANCH   9  10
ENDBRANCH   1   8
BRANCH   2  17
ATOM     17  O   UNL     1       3.514   5.934  -4.590  0.00  0.00    -0.466 OA
BRANCH  17  18
ATOM     18  C   UNL     1       4.755   5.851  -3.914  0.00  0.00    +0.308 C 
BRANCH  18  19
ATOM     19  C   UNL     1       5.305   7.240  -3.717  0.00  0.00    +0.438 C 
ATOM     20  F   UNL     1       4.654   8.190  -4.472  0.00  0.00    -0.166 F 
ATOM     21  F   UNL     1       5.244   7.586  -2.379  0.00  0.00    -0.166 F 
ATOM     22  F   UNL     1       6.644   7.271  -4.074  0.00  0.00    -0.166 F 
ENDBRANCH  18  19
ENDBRANCH  17  18
ENDBRANCH   2  17
BRANCH   5  23
ATOM     23  O   UNL     1      -1.427   5.005  -2.247  0.00  0.00    -0.467 OA
BRANCH  23  24
ATOM     24  C   UNL     1      -2.552   5.369  -3.045  0.00  0.00    +0.308 C 
BRANCH  24  25
ATOM     25  C   UNL     1      -3.090   6.659  -2.482  0.00  0.00    +0.438 C 
ATOM     26  F   UNL     1      -2.714   6.776  -1.160  0.00  0.00    -0.166 F 
ATOM     27  F   UNL     1      -2.534   7.695  -3.185  0.00  0.00    -0.166 F 
ATOM     28  F   UNL     1      -4.461   6.651  -2.529  0.00  0.00    -0.166 F 
ENDBRANCH  24  25
ENDBRANCH  23  24
ENDBRANCH   5  23
TORSDOF 9
ENDMDL
MODEL 7
REMARK VINA RESULT:      -7.6      4.591      8.852
REMARK  Name = 
REMARK  9 active torsions:
REMARK  status: ('A' for Active; 'I' for Inactive)
REMARK    1  A    between atoms: C_2  and  C_11
REMARK    2  A    between atoms: N_3  and  C_4
REMARK    3  A    between atoms: C_4  and  C_5
REMARK    4  A    between atoms: C_13  and  O_14
REMARK    5  A    between atoms: O_14  and  C_15
REMARK    6  A    between atoms: C_15  and  C_16
REMARK    7  A    between atoms: C_22  and  O_23
REMARK    8  A    between atoms: O_23  and  C_24
REMARK    9  A    between atoms: C_24  and  C_25
REMARK                            x       y       z     vdW  Elec       q    Type
REMARK                         _______ _______ _______ _____ _____    ______ ____
ROOT
ATOM      1  C   UNL     1       1.770   6.632  -6.343  0.00  0.00    +0.092 A 
ATOM      2  C   UNL     1       2.604   6.323  -5.275  0.00  0.00    +0.144 A 
ATOM      3  C   UNL     1       2.057   5.561  -4.249  0.00  0.00    +0.040 A 
ATOM      4  C   UNL     1       0.694   5.287  -4.218  0.00  0.00    +0.040 A 
ATOM      5  C   UNL     1      -0.148   6.093  -4.950  0.00  0.00    +0.139 A 
ATOM      6  C   UNL     1       0.437   6.809  -5.987  0.00  0.00    +0.045 A 
ENDROOT
BRANCH   1   8
ATOM      7  O   UNL     1       2.127   8.434  -7.746  0.00  0.00    -0.268 OA
ATOM      8  C   UNL     1       2.377   7.285  -7.485  0.00  0.00    +0.268 C 
ATOM      9  N   UNL     1       3.217   6.625  -8.434  0.00  0.00    -0.200 NA
BRANCH   9  10
ATOM     10  C   UNL     1       3.029   6.800  -9.858  0.00  0.00    +0.133 C 
BRANCH  10  11
ATOM     11  C   UNL     1       1.935   5.612 -10.273  0.00  0.00    +0.094 C 
ATOM     12  N   UNL     1       2.410   5.650 -11.799  0.00  0.00    -0.218 NA
ATOM     13  C   UNL     1       1.224   5.332 -12.551  0.00  0.00    +0.089 C 
ATOM     14  C   UNL     1       0.162   4.677 -11.676  0.00  0.00    +0.019 C 
ATOM     15  C   UNL     1      -0.427   5.806 -10.837  0.00  0.00    +0.003 C 
ATOM     16  C   UNL     1       0.744   6.745 -10.564  0.00  0.00    +0.019 C 
ENDBRANCH  10  11
ENDBRANCH   9  10
ENDBRANCH   1   8
BRANCH   2  17
ATOM     17  O   UNL     1       3.974   6.553  -5.303  0.00  0.00    -0.466 OA
BRANCH  17  18
ATOM     18  C   UNL     1       4.856   6.146  -4.275  0.00  0.00    +0.308 C 
BRANCH  18  19
ATOM     19  C   UNL     1       5.508   7.362  -3.670  0.00  0.00    +0.438 C 
ATOM     20  F   UNL     1       5.203   7.530  -2.337  0.00  0.00    -0.166 F 
ATOM     21  F   UNL     1       6.880   7.290  -3.828  0.00  0.00    -0.166 F 
ATOM     22  F   UNL     1       5.091   8.502  -4.338  0.00  0.00    -0.166 F 
ENDBRANCH  18  19
ENDBRANCH  17  18
ENDBRANCH   2  17
BRANCH   5  23
ATOM     23  O   UNL     1      -1.524   5.864  -5.049  0.00  0.00    -0.467 OA
BRANCH  23  24
ATOM     24  C   UNL     1      -2.340   6.679  -4.210  0.00  0.00    +0.308 C 
BRANCH  24  25
ATOM     25  C   UNL     1      -3.063   5.753  -3.268  0.00  0.00    +0.438 C 
ATOM     26  F   UNL     1      -2.159   5.195  -2.386  0.00  0.00    -0.166 F 
ATOM     27  F   UNL     1      -3.967   6.492  -2.552  0.00  0.00    -0.166 F 
ATOM     28  F   UNL     1      -3.643   4.730  -3.975  0.00  0.00    -0.166 F 
ENDBRANCH  24  25
ENDBRANCH  23  24
ENDBRANCH   5  23
TORSDOF 9
ENDMDL
MODEL 8
REMARK VINA RESULT:      -7.6      3.611      7.024
REMARK  Name = 
REMARK  9 active torsions:
REMARK  status: ('A' for Active; 'I' for Inactive)
REMARK    1  A    between atoms: C_2  and  C_11
REMARK    2  A    between atoms: N_3  and  C_4
REMARK    3  A    between atoms: C_4  and  C_5
REMARK    4  A    between atoms: C_13  and  O_14
REMARK    5  A    between atoms: O_14  and  C_15
REMARK    6  A    between atoms: C_15  and  C_16
REMARK    7  A    between atoms: C_22  and  O_23
REMARK    8  A    between atoms: O_23  and  C_24
REMARK    9  A    between atoms: C_24  and  C_25
REMARK                            x       y       z     vdW  Elec       q    Type
REMARK                         _______ _______ _______ _____ _____    ______ ____
ROOT
ATOM      1  C   UNL     1       1.831   6.430  -6.987  0.00  0.00    +0.092 A 
ATOM      2  C   UNL     1       0.686   5.796  -7.456  0.00  0.00    +0.144 A 
ATOM      3  C   UNL     1      -0.168   5.254  -6.503  0.00  0.00    +0.040 A 
ATOM      4  C   UNL     1       0.208   5.193  -5.166  0.00  0.00    +0.040 A 
ATOM      5  C   UNL     1       1.547   5.284  -4.862  0.00  0.00    +0.139 A 
ATOM      6  C   UNL     1       2.357   5.865  -5.830  0.00  0.00    +0.045 A 
ENDROOT
BRANCH   1   8
ATOM      7  O   UNL     1       2.437   8.298  -8.207  0.00  0.00    -0.268 OA
ATOM      8  C   UNL     1       2.639   7.136  -7.961  0.00  0.00    +0.268 C 
ATOM      9  N   UNL     1       3.643   6.519  -8.769  0.00  0.00    -0.200 NA
BRANCH   9  10
ATOM     10  C   UNL     1       3.724   6.767 -10.192  0.00  0.00    +0.133 C 
BRANCH  10  11
ATOM     11  C   UNL     1       5.351   7.005 -10.471  0.00  0.00    +0.094 C 
ATOM     12  N   UNL     1       5.304   6.080 -11.775  0.00  0.00    -0.218 NA
ATOM     13  C   UNL     1       6.607   5.469 -11.826  0.00  0.00    +0.089 C 
ATOM     14  C   UNL     1       7.614   6.218 -10.963  0.00  0.00    +0.019 C 
ATOM     15  C   UNL     1       7.273   5.847  -9.524  0.00  0.00    +0.003 C 
ATOM     16  C   UNL     1       5.754   5.705  -9.504  0.00  0.00    +0.019 C 
ENDBRANCH  10  11
ENDBRANCH   9  10
ENDBRANCH   1   8
BRANCH   2  17
ATOM     17  O   UNL     1       0.274   5.878  -8.781  0.00  0.00    -0.466 OA
BRANCH  17  18
ATOM     18  C   UNL     1       0.522   4.868  -9.740  0.00  0.00    +0.308 C 
BRANCH  18  19
ATOM     19  C   UNL     1       0.063   5.345 -11.093  0.00  0.00    +0.438 C 
ATOM     20  F   UNL     1       1.104   5.590 -11.960  0.00  0.00    -0.166 F 
ATOM     21  F   UNL     1      -0.801   4.420 -11.652  0.00  0.00    -0.166 F 
ATOM     22  F   UNL     1      -0.653   6.524 -10.960  0.00  0.00    -0.166 F 
ENDBRANCH  18  19
ENDBRANCH  17  18
ENDBRANCH   2  17
BRANCH   5  23
ATOM     23  O   UNL     1       2.029   5.308  -3.550  0.00  0.00    -0.467 OA
BRANCH  23  24
ATOM     24  C   UNL     1       2.941   6.363  -3.254  0.00  0.00    +0.308 C 
BRANCH  24  25
ATOM     25  C   UNL     1       4.182   5.724  -2.687  0.00  0.00    +0.438 C 
ATOM     26  F   UNL     1       5.088   5.498  -3.704  0.00  0.00    -0.166 F 
ATOM     27  F   UNL     1       4.742   6.597  -1.793  0.00  0.00    -0.166 F 
ATOM     28  F   UNL     1       3.867   4.510  -2.130  0.00  0.00    -0.166 F 
ENDBRANCH  24  25
ENDBRANCH  23  24
ENDBRANCH   5  23
TORSDOF 9
ENDMDL
MODEL 9
REMARK VINA RESULT:      -7.6      3.198      4.700
REMARK  Name = 
REMARK  9 active torsions:
REMARK  status: ('A' for Active; 'I' for Inactive)
REMARK    1  A    between atoms: C_2  and  C_11
REMARK    2  A    between atoms: N_3  and  C_4
REMARK    3  A    between atoms: C_4  and  C_5
REMARK    4  A    between atoms: C_13  and  O_14
REMARK    5  A    between atoms: O_14  and  C_15
REMARK    6  A    between atoms: C_15  and  C_16
REMARK    7  A    between atoms: C_22  and  O_23
REMARK    8  A    between atoms: O_23  and  C_24
REMARK    9  A    between atoms: C_24  and  C_25
REMARK                            x       y       z     vdW  Elec       q    Type
REMARK                         _______ _______ _______ _____ _____    ______ ____
ROOT
ATOM      1  C   UNL     1       1.756   5.001  -7.896  0.00  0.00    +0.092 A 
ATOM      2  C   UNL     1       0.420   5.369  -7.998  0.00  0.00    +0.144 A 
ATOM      3  C   UNL     1      -0.035   5.745  -9.256  0.00  0.00    +0.040 A 
ATOM      4  C   UNL     1       0.856   5.918 -10.310  0.00  0.00    +0.040 A 
ATOM      5  C   UNL     1       2.185   6.117 -10.012  0.00  0.00    +0.139 A 
ATOM      6  C   UNL     1       2.601   5.694  -8.756  0.00  0.00    +0.045 A 
ENDROOT
BRANCH   1   8
ATOM      7  O   UNL     1       1.938   3.317  -6.321  0.00  0.00    -0.268 OA
ATOM      8  C   UNL     1       2.193   4.455  -6.626  0.00  0.00    +0.268 C 
ATOM      9  N   UNL     1       2.851   5.213  -5.610  0.00  0.00    -0.200 NA
BRANCH   9  10
ATOM     10  C   UNL     1       2.444   5.130  -4.224  0.00  0.00    +0.133 C 
BRANCH  10  11
ATOM     11  C   UNL     1       3.741   5.756  -3.382  0.00  0.00    +0.094 C 
ATOM     12  N   UNL     1       2.826   6.904  -2.748  0.00  0.00    -0.218 NA
ATOM     13  C   UNL     1       3.717   8.025  -2.591  0.00  0.00    +0.089 C 
ATOM     14  C   UNL     1       5.177   7.595  -2.647  0.00  0.00    +0.019 C 
ATOM     15  C   UNL     1       5.462   7.314  -4.118  0.00  0.00    +0.003 C 
ATOM     16  C   UNL     1       4.162   6.734  -4.668  0.00  0.00    +0.019 C 
ENDBRANCH  10  11
ENDBRANCH   9  10
ENDBRANCH   1   8
BRANCH   2  17
ATOM     17  O   UNL     1      -0.494   5.167  -6.970  0.00  0.00    -0.466 OA
BRANCH  17  18
ATOM     18  C   UNL     1      -0.809   6.150  -6.003  0.00  0.00    +0.308 C 
BRANCH  18  19
ATOM     19  C   UNL     1      -2.286   6.098  -5.707  0.00  0.00    +0.438 C 
ATOM     20  F   UNL     1      -2.581   5.391  -4.563  0.00  0.00    -0.166 F 
ATOM     21  F   UNL     1      -2.792   7.382  -5.605  0.00  0.00    -0.166 F 
ATOM     22  F   UNL     1      -2.956   5.490  -6.756  0.00  0.00    -0.166 F 
ENDBRANCH  18  19
ENDBRANCH  17  18
ENDBRANCH   2  17
BRANCH   5  23
ATOM     23  O   UNL     1       3.175   6.229 -10.992  0.00  0.00    -0.467 OA
BRANCH  23  24
ATOM     24  C   UNL     1       4.393   5.543 -10.710  0.00  0.00    +0.308 C 
BRANCH  24  25
ATOM     25  C   UNL     1       5.501   6.560 -10.802  0.00  0.00    +0.438 C 
ATOM     26  F   UNL     1       4.981   7.825 -10.616  0.00  0.00    -0.166 F 
ATOM     27  F   UNL     1       6.397   6.307  -9.798  0.00  0.00    -0.166 F 
ATOM     28  F   UNL     1       6.067   6.520 -12.052  0.00  0.00    -0.166 F 
ENDBRANCH  24  25
ENDBRANCH  23  24
ENDBRANCH   5  23
TORSDOF 9
ENDMDL
