MODEL 1
REMARK VINA RESULT:      -6.6      0.000      0.000
REMARK  Name = 
REMARK  4 active torsions:
REMARK  status: ('A' for Active; 'I' for Inactive)
REMARK    1  A    between atoms: C_2  and  C_4
REMARK    2  A    between atoms: C_4  and  C_5
REMARK    3  A    between atoms: C_8  and  C_9
REMARK    4  A    between atoms: C_9  and  C_11
REMARK                            x       y       z     vdW  Elec       q    Type
REMARK                         _______ _______ _______ _____ _____    ______ ____
ROOT
ATOM      1  C   UNL     1       4.344   5.119  -8.606  0.00  0.00    -0.022 A 
ATOM      2  C   UNL     1       3.823   5.136  -9.886  0.00  0.00    -0.005 A 
ATOM      3  C   UNL     1       4.643   5.480 -10.954  0.00  0.00    -0.004 A 
ATOM      4  C   UNL     1       5.920   5.769 -10.708  0.00  0.00    -0.012 A 
ATOM      5  C   UNL     1       6.479   5.730  -9.451  0.00  0.00    -0.004 A 
ATOM      6  C   UNL     1       5.704   5.143  -8.455  0.00  0.00    -0.005 A 
ENDROOT
BRANCH   4   7
ATOM      7  C   UNL     1       6.772   6.664 -11.778  0.00  0.00    +0.126 C 
ATOM      8  C   UNL     1       7.713   7.412 -10.614  0.00  0.00    +0.017 C 
BRANCH   7   9
ATOM      9  C   UNL     1       7.868   5.479 -12.035  0.00  0.00    +0.368 C 
ATOM     10  O   UNL     1       7.370   4.589 -12.961  0.00  0.00    -0.245 OA
ATOM     11  O   UNL     1       9.044   5.753 -11.828  0.00  0.00    -0.245 OA
ENDBRANCH   7   9
ENDBRANCH   4   7
BRANCH   1  12
ATOM     12  C   UNL     1       3.475   5.031  -7.415  0.00  0.00    +0.026 C 
BRANCH  12  14
ATOM     13  C   UNL     1       3.272   7.061  -6.075  0.00  0.00    +0.000 C 
ATOM     14  C   UNL     1       3.967   5.884  -6.278  0.00  0.00    +0.004 C 
ATOM     15  C   UNL     1       4.124   5.067  -5.007  0.00  0.00    +0.000 C 
ENDBRANCH  12  14
ENDBRANCH   1  12
TORSDOF 4
ENDMDL
MODEL 2
REMARK VINA RESULT:      -6.4      3.002      5.939
REMARK  Name = 
REMARK  4 active torsions:
REMARK  status: ('A' for Active; 'I' for Inactive)
REMARK    1  A    between atoms: C_2  and  C_4
REMARK    2  A    between atoms: C_4  and  C_5
REMARK    3  A    between atoms: C_8  and  C_9
REMARK    4  A    between atoms: C_9  and  C_11
REMARK                            x       y       z     vdW  Elec       q    Type
REMARK                         _______ _______ _______ _____ _____    ______ ____
ROOT
ATOM      1  C   UNL     1       6.119   6.503 -10.493  0.00  0.00    -0.022 A 
ATOM      2  C   UNL     1       6.442   5.658  -9.447  0.00  0.00    -0.005 A 
ATOM      3  C   UNL     1       5.478   5.353  -8.493  0.00  0.00    -0.004 A 
ATOM      4  C   UNL     1       4.261   5.875  -8.628  0.00  0.00    -0.012 A 
ATOM      5  C   UNL     1       3.896   6.693  -9.674  0.00  0.00    -0.004 A 
ATOM      6  C   UNL     1       4.798   6.771 -10.731  0.00  0.00    -0.005 A 
ENDROOT
BRANCH   4   7
ATOM      7  C   UNL     1       3.280   5.998  -7.327  0.00  0.00    +0.126 C 
ATOM      8  C   UNL     1       2.560   7.422  -7.829  0.00  0.00    +0.017 C 
BRANCH   7   9
ATOM      9  C   UNL     1       2.118   5.065  -7.999  0.00  0.00    +0.368 C 
ATOM     10  O   UNL     1       2.490   3.741  -7.914  0.00  0.00    -0.245 OA
ATOM     11  O   UNL     1       0.980   5.517  -8.014  0.00  0.00    -0.245 OA
ENDBRANCH   7   9
ENDBRANCH   4   7
BRANCH   1  12
ATOM     12  C   UNL     1       7.155   7.078 -11.375  0.00  0.00    +0.026 C 
BRANCH  12  14
ATOM     13  C   UNL     1       7.339   6.308 -13.684  0.00  0.00    +0.000 C 
ATOM     14  C   UNL     1       7.687   6.080 -12.366  0.00  0.00    +0.004 C 
ATOM     15  C   UNL     1       9.179   5.865 -12.181  0.00  0.00    +0.000 C 
ENDBRANCH  12  14
ENDBRANCH   1  12
TORSDOF 4
ENDMDL
MODEL 3
REMARK VINA RESULT:      -6.4      0.988      1.458
REMARK  Name = 
REMARK  4 active torsions:
REMARK  status: ('A' for Active; 'I' for Inactive)
REMARK    1  A    between atoms: C_2  and  C_4
REMARK    2  A    between atoms: C_4  and  C_5
REMARK    3  A    between atoms: C_8  and  C_9
REMARK    4  A    between atoms: C_9  and  C_11
REMARK                            x       y       z     vdW  Elec       q    Type
REMARK                         _______ _______ _______ _____ _____    ______ ____
ROOT
ATOM      1  C   UNL     1       4.157   5.200  -8.783  0.00  0.00    -0.022 A 
ATOM      2  C   UNL     1       3.729   5.226 -10.098  0.00  0.00    -0.005 A 
ATOM      3  C   UNL     1       4.632   5.547 -11.104  0.00  0.00    -0.004 A 
ATOM      4  C   UNL     1       5.895   5.804 -10.768  0.00  0.00    -0.012 A 
ATOM      5  C   UNL     1       6.362   5.754  -9.474  0.00  0.00    -0.004 A 
ATOM      6  C   UNL     1       5.504   5.191  -8.536  0.00  0.00    -0.005 A 
ENDROOT
BRANCH   4   7
ATOM      7  C   UNL     1       6.843   6.674 -11.775  0.00  0.00    +0.126 C 
ATOM      8  C   UNL     1       7.755   7.358 -10.550  0.00  0.00    +0.017 C 
BRANCH   7   9
ATOM      9  C   UNL     1       7.896   5.443 -11.996  0.00  0.00    +0.368 C 
ATOM     10  O   UNL     1       7.397   4.581 -12.950  0.00  0.00    -0.245 OA
ATOM     11  O   UNL     1       9.073   5.662 -11.739  0.00  0.00    -0.245 OA
ENDBRANCH   7   9
ENDBRANCH   4   7
BRANCH   1  12
ATOM     12  C   UNL     1       3.203   5.138  -7.657  0.00  0.00    +0.026 C 
BRANCH  12  14
ATOM     13  C   UNL     1       0.839   5.595  -7.256  0.00  0.00    +0.000 C 
ATOM     14  C   UNL     1       2.002   6.018  -7.870  0.00  0.00    +0.004 C 
ATOM     15  C   UNL     1       2.328   7.471  -7.574  0.00  0.00    +0.000 C 
ENDBRANCH  12  14
ENDBRANCH   1  12
TORSDOF 4
ENDMDL
MODEL 4
REMARK VINA RESULT:      -6.4      5.022      6.651
REMARK  Name = 
REMARK  4 active torsions:
REMARK  status: ('A' for Active; 'I' for Inactive)
REMARK    1  A    between atoms: C_2  and  C_4
REMARK    2  A    between atoms: C_4  and  C_5
REMARK    3  A    between atoms: C_8  and  C_9
REMARK    4  A    between atoms: C_9  and  C_11
REMARK                            x       y       z     vdW  Elec       q    Type
REMARK                         _______ _______ _______ _____ _____    ______ ____
ROOT
ATOM      1  C   UNL     1      -1.140   5.528  -5.757  0.00  0.00    -0.022 A 
ATOM      2  C   UNL     1      -1.187   5.518  -7.138  0.00  0.00    -0.005 A 
ATOM      3  C   UNL     1      -0.001   5.491  -7.863  0.00  0.00    -0.004 A 
ATOM      4  C   UNL     1       1.151   5.458  -7.196  0.00  0.00    -0.012 A 
ATOM      5  C   UNL     1       1.233   5.433  -5.821  0.00  0.00    -0.004 A 
ATOM      6  C   UNL     1       0.041   5.207  -5.142  0.00  0.00    -0.005 A 
ENDROOT
BRANCH   4   7
ATOM      7  C   UNL     1       2.528   5.948  -7.927  0.00  0.00    +0.126 C 
ATOM      8  C   UNL     1       1.759   6.534  -9.292  0.00  0.00    +0.017 C 
BRANCH   7   9
ATOM      9  C   UNL     1       2.514   7.403  -7.181  0.00  0.00    +0.368 C 
ATOM     10  O   UNL     1       3.502   7.434  -6.221  0.00  0.00    -0.245 OA
ATOM     11  O   UNL     1       2.067   8.351  -7.816  0.00  0.00    -0.245 OA
ENDBRANCH   7   9
ENDBRANCH   4   7
BRANCH   1  12
ATOM     12  C   UNL     1      -2.334   5.829  -4.941  0.00  0.00    +0.026 C 
BRANCH  12  14
ATOM     13  C   UNL     1      -2.026   8.200  -4.451  0.00  0.00    +0.000 C 
ATOM     14  C   UNL     1      -2.085   6.920  -3.936  0.00  0.00    +0.004 C 
ATOM     15  C   UNL     1      -3.034   6.805  -2.756  0.00  0.00    +0.000 C 
ENDBRANCH  12  14
ENDBRANCH   1  12
TORSDOF 4
ENDMDL
MODEL 5
REMARK VINA RESULT:      -6.3      6.849      9.542
REMARK  Name = 
REMARK  4 active torsions:
REMARK  status: ('A' for Active; 'I' for Inactive)
REMARK    1  A    between atoms: C_2  and  C_4
REMARK    2  A    between atoms: C_4  and  C_5
REMARK    3  A    between atoms: C_8  and  C_9
REMARK    4  A    between atoms: C_9  and  C_11
REMARK                            x       y       z     vdW  Elec       q    Type
REMARK                         _______ _______ _______ _____ _____    ______ ____
ROOT
ATOM      1  C   UNL     1      -0.581   5.430  -7.012  0.00  0.00    -0.022 A 
ATOM      2  C   UNL     1       0.361   5.159  -6.038  0.00  0.00    -0.005 A 
ATOM      3  C   UNL     1       0.055   5.404  -4.704  0.00  0.00    -0.004 A 
ATOM      4  C   UNL     1      -1.153   5.879  -4.406  0.00  0.00    -0.012 A 
ATOM      5  C   UNL     1      -2.126   6.127  -5.348  0.00  0.00    -0.004 A 
ATOM      6  C   UNL     1      -1.878   5.639  -6.626  0.00  0.00    -0.005 A 
ENDROOT
BRANCH   4   7
ATOM      7  C   UNL     1      -1.391   6.665  -2.993  0.00  0.00    +0.126 C 
ATOM      8  C   UNL     1      -3.034   6.877  -3.228  0.00  0.00    +0.017 C 
BRANCH   7   9
ATOM      9  C   UNL     1      -1.596   5.279  -2.151  0.00  0.00    +0.368 C 
ATOM     10  O   UNL     1      -0.535   5.107  -1.289  0.00  0.00    -0.245 OA
ATOM     11  O   UNL     1      -2.746   4.883  -1.999  0.00  0.00    -0.245 OA
ENDBRANCH   7   9
ENDBRANCH   4   7
BRANCH   1  12
ATOM     12  C   UNL     1      -0.230   5.451  -8.447  0.00  0.00    +0.026 C 
BRANCH  12  14
ATOM     13  C   UNL     1       1.758   4.700  -9.648  0.00  0.00    +0.000 C 
ATOM     14  C   UNL     1       1.254   5.542  -8.675  0.00  0.00    +0.004 C 
ATOM     15  C   UNL     1       1.693   6.984  -8.863  0.00  0.00    +0.000 C 
ENDBRANCH  12  14
ENDBRANCH   1  12
TORSDOF 4
ENDMDL
MODEL 6
REMARK VINA RESULT:      -6.3      3.150      5.930
REMARK  Name = 
REMARK  4 active torsions:
REMARK  status: ('A' for Active; 'I' for Inactive)
REMARK    1  A    between atoms: C_2  and  C_4
REMARK    2  A    between atoms: C_4  and  C_5
REMARK    3  A    between atoms: C_8  and  C_9
REMARK    4  A    between atoms: C_9  and  C_11
REMARK                            x       y       z     vdW  Elec       q    Type
REMARK                         _______ _______ _______ _____ _____    ______ ____
ROOT
ATOM      1  C   UNL     1       5.819   6.366 -10.305  0.00  0.00    -0.022 A 
ATOM      2  C   UNL     1       5.971   5.663  -9.124  0.00  0.00    -0.005 A 
ATOM      3  C   UNL     1       4.849   5.342  -8.369  0.00  0.00    -0.004 A 
ATOM      4  C   UNL     1       3.652   5.711  -8.821  0.00  0.00    -0.012 A 
ATOM      5  C   UNL     1       3.461   6.382 -10.009  0.00  0.00    -0.004 A 
ATOM      6  C   UNL     1       4.566   6.462 -10.849  0.00  0.00    -0.005 A 
ENDROOT
BRANCH   4   7
ATOM      7  C   UNL     1       2.397   5.845  -7.783  0.00  0.00    +0.126 C 
ATOM      8  C   UNL     1       3.165   5.043  -6.533  0.00  0.00    +0.017 C 
BRANCH   7   9
ATOM      9  C   UNL     1       2.872   7.317  -7.254  0.00  0.00    +0.368 C 
ATOM     10  O   UNL     1       2.104   8.289  -7.858  0.00  0.00    -0.245 OA
ATOM     11  O   UNL     1       3.401   7.369  -6.151  0.00  0.00    -0.245 OA
ENDBRANCH   7   9
ENDBRANCH   4   7
BRANCH   1  12
ATOM     12  C   UNL     1       6.972   6.969 -11.004  0.00  0.00    +0.026 C 
BRANCH  12  14
ATOM     13  C   UNL     1       7.114   6.579 -13.410  0.00  0.00    +0.000 C 
ATOM     14  C   UNL     1       7.456   6.124 -12.151  0.00  0.00    +0.004 C 
ATOM     15  C   UNL     1       8.937   5.817 -12.018  0.00  0.00    +0.000 C 
ENDBRANCH  12  14
ENDBRANCH   1  12
TORSDOF 4
ENDMDL
MODEL 7
REMARK VINA RESULT:      -6.0      3.633      6.176
REMARK  Name = 
REMARK  4 active torsions:
REMARK  status: ('A' for Active; 'I' for Inactive)
REMARK    1  A    between atoms: C_2  and  C_4
REMARK    2  A    between atoms: C_4  and  C_5
REMARK    3  A    between atoms: C_8  and  C_9
REMARK    4  A    between atoms: C_9  and  C_11
REMARK                            x       y       z     vdW  Elec       q    Type
REMARK                         _______ _______ _______ _____ _____    ______ ____
ROOT
ATOM      1  C   UNL     1       4.981   5.780  -9.739  0.00  0.00    -0.022 A 
ATOM      2  C   UNL     1       5.433   5.228  -8.555  0.00  0.00    -0.005 A 
ATOM      3  C   UNL     1       4.732   5.465  -7.379  0.00  0.00    -0.004 A 
ATOM      4  C   UNL     1       3.628   6.209  -7.435  0.00  0.00    -0.012 A 
ATOM      5  C   UNL     1       3.132   6.746  -8.601  0.00  0.00    -0.004 A 
ATOM      6  C   UNL     1       3.709   6.285  -9.780  0.00  0.00    -0.005 A 
ENDROOT
BRANCH   4   7
ATOM      7  C   UNL     1       3.077   6.948  -6.086  0.00  0.00    +0.126 C 
ATOM      8  C   UNL     1       1.512   7.119  -6.651  0.00  0.00    +0.017 C 
BRANCH   7   9
ATOM      9  C   UNL     1       2.750   5.533  -5.334  0.00  0.00    +0.368 C 
ATOM     10  O   UNL     1       3.387   5.507  -4.112  0.00  0.00    -0.245 OA
ATOM     11  O   UNL     1       1.707   4.968  -5.639  0.00  0.00    -0.245 OA
ENDBRANCH   7   9
ENDBRANCH   4   7
BRANCH   1  12
ATOM     12  C   UNL     1       5.816   5.795 -10.958  0.00  0.00    +0.026 C 
BRANCH  12  14
ATOM     13  C   UNL     1       8.159   6.305 -11.416  0.00  0.00    +0.000 C 
ATOM     14  C   UNL     1       6.978   6.743 -10.847  0.00  0.00    +0.004 C 
ATOM     15  C   UNL     1       6.591   8.140 -11.301  0.00  0.00    +0.000 C 
ENDBRANCH  12  14
ENDBRANCH   1  12
TORSDOF 4
ENDMDL
MODEL 8
REMARK VINA RESULT:      -5.9      4.353      5.950
REMARK  Name = 
REMARK  4 active torsions:
REMARK  status: ('A' for Active; 'I' for Inactive)
REMARK    1  A    between atoms: C_2  and  C_4
REMARK    2  A    between atoms: C_4  and  C_5
REMARK    3  A    between atoms: C_8  and  C_9
REMARK    4  A    between atoms: C_9  and  C_11
REMARK                            x       y       z     vdW  Elec       q    Type
REMARK                         _______ _______ _______ _____ _____    ______ ____
ROOT
ATOM      1  C   UNL     1      -0.998   5.501  -6.201  0.00  0.00    -0.022 A 
ATOM      2  C   UNL     1      -0.960   5.510  -7.583  0.00  0.00    -0.005 A 
ATOM      3  C   UNL     1       0.268   5.538  -8.233  0.00  0.00    -0.004 A 
ATOM      4  C   UNL     1       1.378   5.537  -7.497  0.00  0.00    -0.012 A 
ATOM      5  C   UNL     1       1.377   5.495  -6.120  0.00  0.00    -0.004 A 
ATOM      6  C   UNL     1       0.154   5.216  -5.519  0.00  0.00    -0.005 A 
ENDROOT
BRANCH   4   7
ATOM      7  C   UNL     1       2.778   6.089  -8.135  0.00  0.00    +0.126 C 
ATOM      8  C   UNL     1       3.749   5.386  -6.968  0.00  0.00    +0.017 C 
BRANCH   7   9
ATOM      9  C   UNL     1       2.921   4.817  -9.152  0.00  0.00    +0.368 C 
ATOM     10  O   UNL     1       3.387   5.258 -10.372  0.00  0.00    -0.245 OA
ATOM     11  O   UNL     1       3.096   3.715  -8.647  0.00  0.00    -0.245 OA
ENDBRANCH   7   9
ENDBRANCH   4   7
BRANCH   1  12
ATOM     12  C   UNL     1      -2.251   5.746  -5.457  0.00  0.00    +0.026 C 
BRANCH  12  14
ATOM     13  C   UNL     1      -1.962   8.033  -4.654  0.00  0.00    +0.000 C 
ATOM     14  C   UNL     1      -2.062   6.699  -4.309  0.00  0.00    +0.004 C 
ATOM     15  C   UNL     1      -3.087   6.450  -3.216  0.00  0.00    +0.000 C 
ENDBRANCH  12  14
ENDBRANCH   1  12
TORSDOF 4
ENDMDL
MODEL 9
REMARK VINA RESULT:      -5.9      6.650      9.312
REMARK  Name = 
REMARK  4 active torsions:
REMARK  status: ('A' for Active; 'I' for Inactive)
REMARK    1  A    between atoms: C_2  and  C_4
REMARK    2  A    between atoms: C_4  and  C_5
REMARK    3  A    between atoms: C_8  and  C_9
REMARK    4  A    between atoms: C_9  and  C_11
REMARK                            x       y       z     vdW  Elec       q    Type
REMARK                         _______ _______ _______ _____ _____    ______ ____
ROOT
ATOM      1  C   UNL     1      -0.061   5.507  -6.809  0.00  0.00    -0.022 A 
ATOM      2  C   UNL     1       0.304   5.496  -5.476  0.00  0.00    -0.005 A 
ATOM      3  C   UNL     1      -0.675   5.627  -4.498  0.00  0.00    -0.004 A 
ATOM      4  C   UNL     1      -1.945   5.742  -4.881  0.00  0.00    -0.012 A 
ATOM      5  C   UNL     1      -2.347   5.723  -6.198  0.00  0.00    -0.004 A 
ATOM      6  C   UNL     1      -1.383   5.341  -7.125  0.00  0.00    -0.005 A 
ENDROOT
BRANCH   4   7
ATOM      7  C   UNL     1      -3.042   6.411  -3.871  0.00  0.00    +0.126 C 
ATOM      8  C   UNL     1      -2.661   5.421  -2.577  0.00  0.00    +0.017 C 
BRANCH   7   9
ATOM      9  C   UNL     1      -2.016   7.590  -3.390  0.00  0.00    +0.368 C 
ATOM     10  O   UNL     1      -1.956   8.567  -4.361  0.00  0.00    -0.245 OA
ATOM     11  O   UNL     1      -1.855   7.732  -2.185  0.00  0.00    -0.245 OA
ENDBRANCH   7   9
ENDBRANCH   4   7
BRANCH   1  12
ATOM     12  C   UNL     1       0.940   5.646  -7.887  0.00  0.00    +0.026 C 
BRANCH  12  14
ATOM     13  C   UNL     1       2.602   3.888  -8.215  0.00  0.00    +0.000 C 
ATOM     14  C   UNL     1       2.266   5.036  -7.523  0.00  0.00    +0.004 C 
ATOM     15  C   UNL     1       3.371   6.077  -7.542  0.00  0.00    +0.000 C 
ENDBRANCH  12  14
ENDBRANCH   1  12
TORSDOF 4
ENDMDL
