MODEL 1
REMARK VINA RESULT:      -6.6      0.000      0.000
REMARK  Name = 
REMARK  4 active torsions:
REMARK  status: ('A' for Active; 'I' for Inactive)
REMARK    1  A    between atoms: C_3  and  C_4
REMARK    2  A    between atoms: C_4  and  C_5
REMARK    3  A    between atoms: N_9  and  C_10
REMARK    4  A    between atoms: C_10  and  C_11
REMARK                            x       y       z     vdW  Elec       q    Type
REMARK                         _______ _______ _______ _____ _____    ______ ____
ROOT
ATOM      1  C   UNL     1       5.509   5.136  -8.466  0.00  0.00    +0.108 C 
ATOM      2  C   UNL     1       5.167   5.739  -9.795  0.00  0.00    +0.206 A 
ATOM      3  N   UNL     1       3.948   6.245 -10.041  0.00  0.00    -0.158 N 
ATOM      4  C   UNL     1       3.564   5.991 -11.319  0.00  0.00    +0.328 A 
ATOM      5  S   UNL     1       5.065   6.088 -12.154  0.00  0.00    -0.011 S 
ATOM      6  C   UNL     1       6.082   6.136 -10.767  0.00  0.00    +0.074 A 
ENDROOT
BRANCH   3   7
ATOM      7  C   UNL     1       3.057   6.969  -9.134  0.00  0.00    +0.355 C 
BRANCH   7   8
ATOM      8  C   UNL     1       2.171   6.035  -8.373  0.00  0.00    +0.109 A 
ATOM      9  C   UNL     1       2.002   6.341  -7.026  0.00  0.00    +0.175 A 
ATOM     10  N   UNL     1       2.817   7.344  -6.406  0.00  0.00    -0.107 NA
ATOM     11  N   UNL     1       0.825   6.107  -6.392  0.00  0.00    -0.213 NA
ATOM     12  C   UNL     1      -0.234   5.605  -7.070  0.00  0.00    +0.141 A 
ATOM     13  C   UNL     1      -1.560   5.504  -6.383  0.00  0.00    +0.074 C 
ATOM     14  N   UNL     1      -0.166   5.501  -8.420  0.00  0.00    -0.229 NA
ATOM     15  C   UNL     1       1.070   5.430  -8.971  0.00  0.00    +0.106 A 
ENDBRANCH   7   8
ENDBRANCH   3   7
BRANCH   6  16
ATOM     16  C   UNL     1       7.570   5.955 -10.728  0.00  0.00    +0.074 C 
BRANCH  16  17
ATOM     17  C   UNL     1       8.044   5.908 -12.156  0.00  0.00    +0.188 C 
ATOM     18  O   UNL     1       7.970   4.606 -12.631  0.00  0.00    -0.220 OA
ENDBRANCH  16  17
ENDBRANCH   6  16
TORSDOF 4
ENDMDL
MODEL 2
REMARK VINA RESULT:      -6.5      3.740      7.160
REMARK  Name = 
REMARK  4 active torsions:
REMARK  status: ('A' for Active; 'I' for Inactive)
REMARK    1  A    between atoms: C_3  and  C_4
REMARK    2  A    between atoms: C_4  and  C_5
REMARK    3  A    between atoms: N_9  and  C_10
REMARK    4  A    between atoms: C_10  and  C_11
REMARK                            x       y       z     vdW  Elec       q    Type
REMARK                         _______ _______ _______ _____ _____    ______ ____
ROOT
ATOM      1  C   UNL     1       0.267   5.516  -9.593  0.00  0.00    +0.108 C 
ATOM      2  C   UNL     1       0.879   5.284  -8.245  0.00  0.00    +0.206 A 
ATOM      3  N   UNL     1       2.207   5.360  -8.057  0.00  0.00    -0.158 N 
ATOM      4  C   UNL     1       2.626   4.425  -7.166  0.00  0.00    +0.328 A 
ATOM      5  S   UNL     1       1.290   4.357  -6.084  0.00  0.00    -0.011 S 
ATOM      6  C   UNL     1       0.198   5.291  -7.031  0.00  0.00    +0.074 A 
ENDROOT
BRANCH   3   7
ATOM      7  C   UNL     1       3.170   6.266  -8.683  0.00  0.00    +0.355 C 
BRANCH   7   8
ATOM      8  C   UNL     1       4.292   5.516  -9.327  0.00  0.00    +0.109 A 
ATOM      9  C   UNL     1       4.328   5.579 -10.717  0.00  0.00    +0.175 A 
ATOM     10  N   UNL     1       3.225   6.135 -11.443  0.00  0.00    -0.107 NA
ATOM     11  N   UNL     1       5.506   5.595 -11.392  0.00  0.00    -0.213 NA
ATOM     12  C   UNL     1       6.682   5.590 -10.722  0.00  0.00    +0.141 A 
ATOM     13  C   UNL     1       7.958   5.765 -11.485  0.00  0.00    +0.074 C 
ATOM     14  N   UNL     1       6.678   5.746  -9.375  0.00  0.00    -0.229 NA
ATOM     15  C   UNL     1       5.539   5.412  -8.720  0.00  0.00    +0.106 A 
ENDBRANCH   7   8
ENDBRANCH   3   7
BRANCH   6  16
ATOM     16  C   UNL     1      -1.281   5.433  -6.831  0.00  0.00    +0.074 C 
BRANCH  16  17
ATOM     17  C   UNL     1      -1.487   5.970  -5.440  0.00  0.00    +0.188 C 
ATOM     18  O   UNL     1      -2.452   6.969  -5.463  0.00  0.00    -0.220 OA
ENDBRANCH  16  17
ENDBRANCH   6  16
TORSDOF 4
ENDMDL
MODEL 3
REMARK VINA RESULT:      -6.4      4.582      7.955
REMARK  Name = 
REMARK  4 active torsions:
REMARK  status: ('A' for Active; 'I' for Inactive)
REMARK    1  A    between atoms: C_3  and  C_4
REMARK    2  A    between atoms: C_4  and  C_5
REMARK    3  A    between atoms: N_9  and  C_10
REMARK    4  A    between atoms: C_10  and  C_11
REMARK                            x       y       z     vdW  Elec       q    Type
REMARK                         _______ _______ _______ _____ _____    ______ ____
ROOT
ATOM      1  C   UNL     1      -1.965   5.441  -6.500  0.00  0.00    +0.108 C 
ATOM      2  C   UNL     1      -0.852   5.601  -5.509  0.00  0.00    +0.206 A 
ATOM      3  N   UNL     1       0.434   5.456  -5.871  0.00  0.00    -0.158 N 
ATOM      4  C   UNL     1       1.150   4.852  -4.888  0.00  0.00    +0.328 A 
ATOM      5  S   UNL     1       0.392   5.478  -3.476  0.00  0.00    -0.011 S 
ATOM      6  C   UNL     1      -0.957   6.203  -4.258  0.00  0.00    +0.074 A 
ENDROOT
BRANCH   3   7
ATOM      7  C   UNL     1       1.080   5.837  -7.127  0.00  0.00    +0.355 C 
BRANCH   7   8
ATOM      8  C   UNL     1       2.425   5.199  -7.269  0.00  0.00    +0.109 A 
ATOM      9  C   UNL     1       2.686   4.634  -8.514  0.00  0.00    +0.175 A 
ATOM     10  N   UNL     1       1.634   4.494  -9.478  0.00  0.00    -0.107 NA
ATOM     11  N   UNL     1       3.934   4.650  -9.048  0.00  0.00    -0.213 NA
ATOM     12  C   UNL     1       4.954   5.256  -8.395  0.00  0.00    +0.141 A 
ATOM     13  C   UNL     1       6.279   5.392  -9.077  0.00  0.00    +0.074 C 
ATOM     14  N   UNL     1       4.686   5.996  -7.291  0.00  0.00    -0.229 NA
ATOM     15  C   UNL     1       3.544   5.710  -6.619  0.00  0.00    +0.106 A 
ENDBRANCH   7   8
ENDBRANCH   3   7
BRANCH   6  16
ATOM     16  C   UNL     1      -2.208   6.721  -3.613  0.00  0.00    +0.074 C 
BRANCH  16  17
ATOM     17  C   UNL     1      -2.492   5.834  -2.430  0.00  0.00    +0.188 C 
ATOM     18  O   UNL     1      -2.973   4.608  -2.870  0.00  0.00    -0.220 OA
ENDBRANCH  16  17
ENDBRANCH   6  16
TORSDOF 4
ENDMDL
MODEL 4
REMARK VINA RESULT:      -6.3      3.213      6.485
REMARK  Name = 
REMARK  4 active torsions:
REMARK  status: ('A' for Active; 'I' for Inactive)
REMARK    1  A    between atoms: C_3  and  C_4
REMARK    2  A    between atoms: C_4  and  C_5
REMARK    3  A    between atoms: N_9  and  C_10
REMARK    4  A    between atoms: C_10  and  C_11
REMARK                            x       y       z     vdW  Elec       q    Type
REMARK                         _______ _______ _______ _____ _____    ______ ____
ROOT
ATOM      1  C   UNL     1       2.175   7.709  -7.692  0.00  0.00    +0.108 C 
ATOM      2  C   UNL     1       2.515   6.262  -7.881  0.00  0.00    +0.206 A 
ATOM      3  N   UNL     1       2.858   5.775  -9.085  0.00  0.00    -0.158 N 
ATOM      4  C   UNL     1       2.360   4.524  -9.263  0.00  0.00    +0.328 A 
ATOM      5  S   UNL     1       2.457   3.885  -7.668  0.00  0.00    -0.011 S 
ATOM      6  C   UNL     1       2.828   5.361  -6.867  0.00  0.00    +0.074 A 
ENDROOT
BRANCH   3   7
ATOM      7  C   UNL     1       3.635   6.417 -10.144  0.00  0.00    +0.355 C 
BRANCH   7   8
ATOM      8  C   UNL     1       4.872   5.640 -10.466  0.00  0.00    +0.109 A 
ATOM      9  C   UNL     1       5.083   5.393 -11.819  0.00  0.00    +0.175 A 
ATOM     10  N   UNL     1       4.053   5.676 -12.774  0.00  0.00    -0.107 NA
ATOM     11  N   UNL     1       6.335   5.358 -12.343  0.00  0.00    -0.213 NA
ATOM     12  C   UNL     1       7.414   5.604 -11.563  0.00  0.00    +0.141 A 
ATOM     13  C   UNL     1       8.765   5.711 -12.198  0.00  0.00    +0.074 C 
ATOM     14  N   UNL     1       7.227   6.057 -10.299  0.00  0.00    -0.229 NA
ATOM     15  C   UNL     1       6.035   5.783  -9.715  0.00  0.00    +0.106 A 
ENDBRANCH   7   8
ENDBRANCH   3   7
BRANCH   6  16
ATOM     16  C   UNL     1       2.796   5.623  -5.390  0.00  0.00    +0.074 C 
BRANCH  16  17
ATOM     17  C   UNL     1       4.219   5.841  -4.951  0.00  0.00    +0.188 C 
ATOM     18  O   UNL     1       4.685   4.708  -4.298  0.00  0.00    -0.220 OA
ENDBRANCH  16  17
ENDBRANCH   6  16
TORSDOF 4
ENDMDL
MODEL 5
REMARK VINA RESULT:      -6.3      2.706      3.760
REMARK  Name = 
REMARK  4 active torsions:
REMARK  status: ('A' for Active; 'I' for Inactive)
REMARK    1  A    between atoms: C_3  and  C_4
REMARK    2  A    between atoms: C_4  and  C_5
REMARK    3  A    between atoms: N_9  and  C_10
REMARK    4  A    between atoms: C_10  and  C_11
REMARK                            x       y       z     vdW  Elec       q    Type
REMARK                         _______ _______ _______ _____ _____    ______ ____
ROOT
ATOM      1  C   UNL     1       4.430   6.015  -5.659  0.00  0.00    +0.108 C 
ATOM      2  C   UNL     1       3.636   5.431  -6.787  0.00  0.00    +0.206 A 
ATOM      3  N   UNL     1       2.297   5.340  -6.727  0.00  0.00    -0.158 N 
ATOM      4  C   UNL     1       1.861   4.194  -7.312  0.00  0.00    +0.328 A 
ATOM      5  S   UNL     1       2.993   4.011  -8.595  0.00  0.00    -0.011 S 
ATOM      6  C   UNL     1       4.095   5.230  -8.086  0.00  0.00    +0.074 A 
ENDROOT
BRANCH   3   7
ATOM      7  C   UNL     1       1.342   6.270  -6.124  0.00  0.00    +0.355 C 
BRANCH   7   8
ATOM      8  C   UNL     1       0.199   5.547  -5.486  0.00  0.00    +0.109 A 
ATOM      9  C   UNL     1       0.282   5.408  -4.104  0.00  0.00    +0.175 A 
ATOM     10  N   UNL     1       1.495   5.740  -3.416  0.00  0.00    -0.107 NA
ATOM     11  N   UNL     1      -0.829   5.440  -3.324  0.00  0.00    -0.213 NA
ATOM     12  C   UNL     1      -2.049   5.650  -3.873  0.00  0.00    +0.141 A 
ATOM     13  C   UNL     1      -3.232   5.835  -2.975  0.00  0.00    +0.074 C 
ATOM     14  N   UNL     1      -2.135   6.001  -5.180  0.00  0.00    -0.229 NA
ATOM     15  C   UNL     1      -1.096   5.657  -5.980  0.00  0.00    +0.106 A 
ENDBRANCH   7   8
ENDBRANCH   3   7
BRANCH   6  16
ATOM     16  C   UNL     1       5.488   5.460  -8.592  0.00  0.00    +0.074 C 
BRANCH  16  17
ATOM     17  C   UNL     1       5.372   5.832 -10.046  0.00  0.00    +0.188 C 
ATOM     18  O   UNL     1       4.626   6.996 -10.172  0.00  0.00    -0.220 OA
ENDBRANCH  16  17
ENDBRANCH   6  16
TORSDOF 4
ENDMDL
MODEL 6
REMARK VINA RESULT:      -6.2      4.206      6.142
REMARK  Name = 
REMARK  4 active torsions:
REMARK  status: ('A' for Active; 'I' for Inactive)
REMARK    1  A    between atoms: C_3  and  C_4
REMARK    2  A    between atoms: C_4  and  C_5
REMARK    3  A    between atoms: N_9  and  C_10
REMARK    4  A    between atoms: C_10  and  C_11
REMARK                            x       y       z     vdW  Elec       q    Type
REMARK                         _______ _______ _______ _____ _____    ______ ____
ROOT
ATOM      1  C   UNL     1       2.081   3.565  -6.337  0.00  0.00    +0.108 C 
ATOM      2  C   UNL     1       2.164   4.940  -5.747  0.00  0.00    +0.206 A 
ATOM      3  N   UNL     1       3.281   5.679  -5.849  0.00  0.00    -0.158 N 
ATOM      4  C   UNL     1       3.492   6.399  -4.717  0.00  0.00    +0.328 A 
ATOM      5  S   UNL     1       1.881   6.768  -4.238  0.00  0.00    -0.011 S 
ATOM      6  C   UNL     1       1.082   5.717  -5.342  0.00  0.00    +0.074 A 
ENDROOT
BRANCH   3   7
ATOM      7  C   UNL     1       4.226   5.762  -6.963  0.00  0.00    +0.355 C 
BRANCH   7   8
ATOM      8  C   UNL     1       3.596   6.374  -8.173  0.00  0.00    +0.109 A 
ATOM      9  C   UNL     1       3.363   5.497  -9.229  0.00  0.00    +0.175 A 
ATOM     10  N   UNL     1       3.912   4.173  -9.203  0.00  0.00    -0.107 NA
ATOM     11  N   UNL     1       2.280   5.636 -10.036  0.00  0.00    -0.213 NA
ATOM     12  C   UNL     1       1.372   6.614  -9.806  0.00  0.00    +0.141 A 
ATOM     13  C   UNL     1       0.113   6.647 -10.615  0.00  0.00    +0.074 C 
ATOM     14  N   UNL     1       1.458   7.342  -8.666  0.00  0.00    -0.229 NA
ATOM     15  C   UNL     1       2.673   7.409  -8.067  0.00  0.00    +0.106 A 
ENDBRANCH   7   8
ENDBRANCH   3   7
BRANCH   6  16
ATOM     16  C   UNL     1      -0.360   5.308  -5.320  0.00  0.00    +0.074 C 
BRANCH  16  17
ATOM     17  C   UNL     1      -0.922   5.602  -6.685  0.00  0.00    +0.188 C 
ATOM     18  O   UNL     1      -2.306   5.683  -6.613  0.00  0.00    -0.220 OA
ENDBRANCH  16  17
ENDBRANCH   6  16
TORSDOF 4
ENDMDL
MODEL 7
REMARK VINA RESULT:      -6.2      2.803      4.381
REMARK  Name = 
REMARK  4 active torsions:
REMARK  status: ('A' for Active; 'I' for Inactive)
REMARK    1  A    between atoms: C_3  and  C_4
REMARK    2  A    between atoms: C_4  and  C_5
REMARK    3  A    between atoms: N_9  and  C_10
REMARK    4  A    between atoms: C_10  and  C_11
REMARK                            x       y       z     vdW  Elec       q    Type
REMARK                         _______ _______ _______ _____ _____    ______ ____
ROOT
ATOM      1  C   UNL     1       1.189   5.565  -8.892  0.00  0.00    +0.108 C 
ATOM      2  C   UNL     1       2.324   5.343  -7.939  0.00  0.00    +0.206 A 
ATOM      3  N   UNL     1       2.110   5.157  -6.626  0.00  0.00    -0.158 N 
ATOM      4  C   UNL     1       3.081   5.753  -5.886  0.00  0.00    +0.328 A 
ATOM      5  S   UNL     1       4.460   5.539  -6.892  0.00  0.00    -0.011 S 
ATOM      6  C   UNL     1       3.624   4.991  -8.292  0.00  0.00    +0.074 A 
ENDROOT
BRANCH   3   7
ATOM      7  C   UNL     1       1.012   4.449  -5.969  0.00  0.00    +0.355 C 
BRANCH   7   8
ATOM      8  C   UNL     1       0.201   5.367  -5.113  0.00  0.00    +0.109 A 
ATOM      9  C   UNL     1      -1.085   5.632  -5.577  0.00  0.00    +0.175 A 
ATOM     10  N   UNL     1      -1.475   5.223  -6.895  0.00  0.00    -0.107 NA
ATOM     11  N   UNL     1      -2.121   5.815  -4.720  0.00  0.00    -0.213 NA
ATOM     12  C   UNL     1      -1.936   5.703  -3.383  0.00  0.00    +0.141 A 
ATOM     13  C   UNL     1      -3.123   5.756  -2.474  0.00  0.00    +0.074 C 
ATOM     14  N   UNL     1      -0.751   5.237  -2.916  0.00  0.00    -0.229 NA
ATOM     15  C   UNL     1       0.327   5.368  -3.727  0.00  0.00    +0.106 A 
ENDBRANCH   7   8
ENDBRANCH   3   7
BRANCH   6  16
ATOM     16  C   UNL     1       4.174   4.857  -9.681  0.00  0.00    +0.074 C 
BRANCH  16  17
ATOM     17  C   UNL     1       5.167   5.972  -9.870  0.00  0.00    +0.188 C 
ATOM     18  O   UNL     1       4.498   7.137 -10.225  0.00  0.00    -0.220 OA
ENDBRANCH  16  17
ENDBRANCH   6  16
TORSDOF 4
ENDMDL
MODEL 8
REMARK VINA RESULT:      -6.2      3.117      4.599
REMARK  Name = 
REMARK  4 active torsions:
REMARK  status: ('A' for Active; 'I' for Inactive)
REMARK    1  A    between atoms: C_3  and  C_4
REMARK    2  A    between atoms: C_4  and  C_5
REMARK    3  A    between atoms: N_9  and  C_10
REMARK    4  A    between atoms: C_10  and  C_11
REMARK                            x       y       z     vdW  Elec       q    Type
REMARK                         _______ _______ _______ _____ _____    ______ ____
ROOT
ATOM      1  C   UNL     1       0.173   6.583 -10.974  0.00  0.00    +0.108 C 
ATOM      2  C   UNL     1       1.528   6.092 -11.386  0.00  0.00    +0.206 A 
ATOM      3  N   UNL     1       2.502   5.886 -10.483  0.00  0.00    -0.158 N 
ATOM      4  C   UNL     1       3.713   6.238 -10.987  0.00  0.00    +0.328 A 
ATOM      5  S   UNL     1       3.537   5.803 -12.643  0.00  0.00    -0.011 S 
ATOM      6  C   UNL     1       1.843   5.504 -12.608  0.00  0.00    +0.074 A 
ENDROOT
BRANCH   3   7
ATOM      7  C   UNL     1       2.391   5.380  -9.116  0.00  0.00    +0.355 C 
BRANCH   7   8
ATOM      8  C   UNL     1       3.376   6.038  -8.204  0.00  0.00    +0.109 A 
ATOM      9  C   UNL     1       2.898   7.149  -7.514  0.00  0.00    +0.175 A 
ATOM     10  N   UNL     1       1.628   7.719  -7.856  0.00  0.00    -0.107 NA
ATOM     11  N   UNL     1       3.314   7.428  -6.252  0.00  0.00    -0.213 NA
ATOM     12  C   UNL     1       4.180   6.605  -5.616  0.00  0.00    +0.141 A 
ATOM     13  C   UNL     1       4.499   6.854  -4.175  0.00  0.00    +0.074 C 
ATOM     14  N   UNL     1       4.493   5.411  -6.177  0.00  0.00    -0.229 NA
ATOM     15  C   UNL     1       4.337   5.302  -7.520  0.00  0.00    +0.106 A 
ENDBRANCH   7   8
ENDBRANCH   3   7
BRANCH   6  16
ATOM     16  C   UNL     1       0.929   5.332 -13.785  0.00  0.00    +0.074 C 
BRANCH  16  17
ATOM     17  C   UNL     1       1.014   6.598 -14.595  0.00  0.00    +0.188 C 
ATOM     18  O   UNL     1       0.602   6.347 -15.897  0.00  0.00    -0.220 OA
ENDBRANCH  16  17
ENDBRANCH   6  16
TORSDOF 4
ENDMDL
MODEL 9
REMARK VINA RESULT:      -6.2      3.288      6.627
REMARK  Name = 
REMARK  4 active torsions:
REMARK  status: ('A' for Active; 'I' for Inactive)
REMARK    1  A    between atoms: C_3  and  C_4
REMARK    2  A    between atoms: C_4  and  C_5
REMARK    3  A    between atoms: N_9  and  C_10
REMARK    4  A    between atoms: C_10  and  C_11
REMARK                            x       y       z     vdW  Elec       q    Type
REMARK                         _______ _______ _______ _____ _____    ______ ____
ROOT
ATOM      1  C   UNL     1       2.978   6.681  -7.556  0.00  0.00    +0.108 C 
ATOM      2  C   UNL     1       2.077   5.928  -8.489  0.00  0.00    +0.206 A 
ATOM      3  N   UNL     1       2.556   5.325  -9.589  0.00  0.00    -0.158 N 
ATOM      4  C   UNL     1       1.677   5.427 -10.620  0.00  0.00    +0.328 A 
ATOM      5  S   UNL     1       0.169   5.341  -9.797  0.00  0.00    -0.011 S 
ATOM      6  C   UNL     1       0.786   5.494  -8.199  0.00  0.00    +0.074 A 
ENDROOT
BRANCH   3   7
ATOM      7  C   UNL     1       3.835   4.642  -9.776  0.00  0.00    +0.355 C 
BRANCH   7   8
ATOM      8  C   UNL     1       4.813   5.497 -10.517  0.00  0.00    +0.109 A 
ATOM      9  C   UNL     1       6.005   5.754  -9.846  0.00  0.00    +0.175 A 
ATOM     10  N   UNL     1       6.146   5.401  -8.464  0.00  0.00    -0.107 NA
ATOM     11  N   UNL     1       7.180   5.870 -10.516  0.00  0.00    -0.213 NA
ATOM     12  C   UNL     1       7.227   5.697 -11.858  0.00  0.00    +0.141 A 
ATOM     13  C   UNL     1       8.556   5.678 -12.546  0.00  0.00    +0.074 C 
ATOM     14  N   UNL     1       6.128   5.236 -12.504  0.00  0.00    -0.229 NA
ATOM     15  C   UNL     1       4.930   5.433 -11.901  0.00  0.00    +0.106 A 
ENDBRANCH   7   8
ENDBRANCH   3   7
BRANCH   6  16
ATOM     16  C   UNL     1       0.005   5.770  -6.949  0.00  0.00    +0.074 C 
BRANCH  16  17
ATOM     17  C   UNL     1       0.344   4.679  -5.969  0.00  0.00    +0.188 C 
ATOM     18  O   UNL     1       1.030   5.218  -4.888  0.00  0.00    -0.220 OA
ENDBRANCH  16  17
ENDBRANCH   6  16
TORSDOF 4
ENDMDL
