MODEL 1
REMARK VINA RESULT:      -4.3      0.000      0.000
REMARK  Name = 
REMARK  2 active torsions:
REMARK  status: ('A' for Active; 'I' for Inactive)
REMARK    1  A    between atoms: CB_2  and  CA_4
REMARK    2  A    between atoms: CA_4  and  C_6
REMARK                            x       y       z     vdW  Elec       q    Type
REMARK                         _______ _______ _______ _____ _____    ______ ____
ROOT
ATOM      1  CA  VAL A   1       6.533   5.661 -10.931  0.00  0.00    +0.194 C 
ATOM      2  N   VAL A   1       7.965   6.328 -10.866  0.00  0.00    -0.121 NA
ENDROOT
BRANCH   1   4
ATOM      3  CG1 VAL A   1       4.534   7.000 -10.457  0.00  0.00    +0.002 C 
ATOM      4  CB  VAL A   1       5.722   7.078 -11.078  0.00  0.00    +0.029 C 
ATOM      5  CG2 VAL A   1       6.493   8.175 -11.462  0.00  0.00    +0.002 C 
ENDBRANCH   1   4
BRANCH   1   6
ATOM      6  C   VAL A   1       6.632   5.390 -12.521  0.00  0.00    +0.382 C 
ATOM      7  OXT VAL A   1       7.787   4.617 -12.755  0.00  0.00    -0.244 OA
ATOM      8  O   VAL A   1       5.674   4.887 -13.117  0.00  0.00    -0.244 OA
ENDBRANCH   1   6
TORSDOF 2
ENDMDL
MODEL 2
REMARK VINA RESULT:      -4.3      1.437      1.635
REMARK  Name = 
REMARK  2 active torsions:
REMARK  status: ('A' for Active; 'I' for Inactive)
REMARK    1  A    between atoms: CB_2  and  CA_4
REMARK    2  A    between atoms: CA_4  and  C_6
REMARK                            x       y       z     vdW  Elec       q    Type
REMARK                         _______ _______ _______ _____ _____    ______ ____
ROOT
ATOM      1  CA  VAL A   1       7.785   5.093 -11.636  0.00  0.00    +0.194 C 
ATOM      2  N   VAL A   1       8.878   6.031 -12.289  0.00  0.00    -0.121 NA
ENDROOT
BRANCH   1   4
ATOM      3  CG1 VAL A   1       7.227   5.812  -9.360  0.00  0.00    +0.002 C 
ATOM      4  CB  VAL A   1       7.191   6.244 -10.631  0.00  0.00    +0.029 C 
ATOM      5  CG2 VAL A   1       7.110   7.529 -11.169  0.00  0.00    +0.002 C 
ENDBRANCH   1   4
BRANCH   1   6
ATOM      6  C   VAL A   1       6.714   5.370 -12.815  0.00  0.00    +0.382 C 
ATOM      7  OXT VAL A   1       7.317   5.013 -14.038  0.00  0.00    -0.244 OA
ATOM      8  O   VAL A   1       5.588   4.867 -12.750  0.00  0.00    -0.244 OA
ENDBRANCH   1   6
TORSDOF 2
ENDMDL
MODEL 3
REMARK VINA RESULT:      -4.2      1.628      2.439
REMARK  Name = 
REMARK  2 active torsions:
REMARK  status: ('A' for Active; 'I' for Inactive)
REMARK    1  A    between atoms: CB_2  and  CA_4
REMARK    2  A    between atoms: CA_4  and  C_6
REMARK                            x       y       z     vdW  Elec       q    Type
REMARK                         _______ _______ _______ _____ _____    ______ ____
ROOT
ATOM      1  CA  VAL A   1       7.338   6.849 -11.631  0.00  0.00    +0.194 C 
ATOM      2  N   VAL A   1       6.327   6.362 -12.745  0.00  0.00    -0.121 NA
ENDROOT
BRANCH   1   4
ATOM      3  CG1 VAL A   1       7.403   5.799  -9.416  0.00  0.00    +0.002 C 
ATOM      4  CB  VAL A   1       6.542   6.131 -10.391  0.00  0.00    +0.029 C 
ATOM      5  CG2 VAL A   1       5.158   6.314 -10.379  0.00  0.00    +0.002 C 
ENDBRANCH   1   4
BRANCH   1   6
ATOM      6  C   VAL A   1       8.349   5.613 -11.882  0.00  0.00    +0.382 C 
ATOM      7  OXT VAL A   1       7.714   4.706 -12.754  0.00  0.00    -0.244 OA
ATOM      8  O   VAL A   1       9.497   5.833 -12.283  0.00  0.00    -0.244 OA
ENDBRANCH   1   6
TORSDOF 2
ENDMDL
MODEL 4
REMARK VINA RESULT:      -4.1     11.199     11.851
REMARK  Name = 
REMARK  2 active torsions:
REMARK  status: ('A' for Active; 'I' for Inactive)
REMARK    1  A    between atoms: CB_2  and  CA_4
REMARK    2  A    between atoms: CA_4  and  C_6
REMARK                            x       y       z     vdW  Elec       q    Type
REMARK                         _______ _______ _______ _____ _____    ______ ____
ROOT
ATOM      1  CA  VAL A   1      -1.851   5.488  -3.429  0.00  0.00    +0.194 C 
ATOM      2  N   VAL A   1      -2.430   5.005  -2.039  0.00  0.00    -0.121 NA
ENDROOT
BRANCH   1   4
ATOM      3  CG1 VAL A   1      -2.198   7.335  -1.854  0.00  0.00    +0.002 C 
ATOM      4  CB  VAL A   1      -2.168   7.075  -3.171  0.00  0.00    +0.029 C 
ATOM      5  CG2 VAL A   1      -1.986   7.912  -4.273  0.00  0.00    +0.002 C 
ENDBRANCH   1   4
BRANCH   1   6
ATOM      6  C   VAL A   1      -0.335   5.555  -2.875  0.00  0.00    +0.382 C 
ATOM      7  OXT VAL A   1      -0.229   4.656  -1.795  0.00  0.00    -0.244 OA
ATOM      8  O   VAL A   1       0.609   5.377  -3.651  0.00  0.00    -0.244 OA
ENDBRANCH   1   6
TORSDOF 2
ENDMDL
MODEL 5
REMARK VINA RESULT:      -4.0      0.977      1.644
REMARK  Name = 
REMARK  2 active torsions:
REMARK  status: ('A' for Active; 'I' for Inactive)
REMARK    1  A    between atoms: CB_2  and  CA_4
REMARK    2  A    between atoms: CA_4  and  C_6
REMARK                            x       y       z     vdW  Elec       q    Type
REMARK                         _______ _______ _______ _____ _____    ______ ____
ROOT
ATOM      1  CA  VAL A   1       6.875   5.781 -10.654  0.00  0.00    +0.194 C 
ATOM      2  N   VAL A   1       7.911   6.849 -10.120  0.00  0.00    -0.121 NA
ENDROOT
BRANCH   1   4
ATOM      3  CG1 VAL A   1       6.402   8.039 -11.484  0.00  0.00    +0.002 C 
ATOM      4  CB  VAL A   1       5.784   6.888 -11.174  0.00  0.00    +0.029 C 
ATOM      5  CG2 VAL A   1       4.540   6.377 -11.547  0.00  0.00    +0.002 C 
ENDBRANCH   1   4
BRANCH   1   6
ATOM      6  C   VAL A   1       7.621   5.638 -12.080  0.00  0.00    +0.382 C 
ATOM      7  OXT VAL A   1       9.009   5.727 -11.852  0.00  0.00    -0.244 OA
ATOM      8  O   VAL A   1       7.385   4.662 -12.799  0.00  0.00    -0.244 OA
ENDBRANCH   1   6
TORSDOF 2
ENDMDL
MODEL 6
REMARK VINA RESULT:      -4.0      2.286      2.874
REMARK  Name = 
REMARK  2 active torsions:
REMARK  status: ('A' for Active; 'I' for Inactive)
REMARK    1  A    between atoms: CB_2  and  CA_4
REMARK    2  A    between atoms: CA_4  and  C_6
REMARK                            x       y       z     vdW  Elec       q    Type
REMARK                         _______ _______ _______ _____ _____    ______ ____
ROOT
ATOM      1  CA  VAL A   1       6.629   5.508 -12.104  0.00  0.00    +0.194 C 
ATOM      2  N   VAL A   1       7.385   4.804 -13.301  0.00  0.00    -0.121 NA
ENDROOT
BRANCH   1   4
ATOM      3  CG1 VAL A   1       7.733   5.554  -9.915  0.00  0.00    +0.002 C 
ATOM      4  CB  VAL A   1       7.981   5.772 -11.217  0.00  0.00    +0.029 C 
ATOM      5  CG2 VAL A   1       9.177   5.803 -11.936  0.00  0.00    +0.002 C 
ENDBRANCH   1   4
BRANCH   1   6
ATOM      6  C   VAL A   1       6.649   6.955 -12.824  0.00  0.00    +0.382 C 
ATOM      7  OXT VAL A   1       5.861   6.868 -13.989  0.00  0.00    -0.244 OA
ATOM      8  O   VAL A   1       6.325   7.961 -12.184  0.00  0.00    -0.244 OA
ENDBRANCH   1   6
TORSDOF 2
ENDMDL
MODEL 7
REMARK VINA RESULT:      -4.0      1.843      2.476
REMARK  Name = 
REMARK  2 active torsions:
REMARK  status: ('A' for Active; 'I' for Inactive)
REMARK    1  A    between atoms: CB_2  and  CA_4
REMARK    2  A    between atoms: CA_4  and  C_6
REMARK                            x       y       z     vdW  Elec       q    Type
REMARK                         _______ _______ _______ _____ _____    ______ ____
ROOT
ATOM      1  CA  VAL A   1       6.439   6.917 -12.397  0.00  0.00    +0.194 C 
ATOM      2  N   VAL A   1       5.627   7.412 -11.134  0.00  0.00    -0.121 NA
ENDROOT
BRANCH   1   4
ATOM      3  CG1 VAL A   1       7.558   6.621 -10.236  0.00  0.00    +0.002 C 
ATOM      4  CB  VAL A   1       7.789   6.524 -11.556  0.00  0.00    +0.029 C 
ATOM      5  CG2 VAL A   1       8.766   5.835 -12.274  0.00  0.00    +0.002 C 
ENDBRANCH   1   4
BRANCH   1   6
ATOM      6  C   VAL A   1       5.800   5.434 -12.339  0.00  0.00    +0.382 C 
ATOM      7  OXT VAL A   1       4.576   5.518 -11.646  0.00  0.00    -0.244 OA
ATOM      8  O   VAL A   1       5.636   4.796 -13.384  0.00  0.00    -0.244 OA
ENDBRANCH   1   6
TORSDOF 2
ENDMDL
MODEL 8
REMARK VINA RESULT:      -3.9     10.960     11.724
REMARK  Name = 
REMARK  2 active torsions:
REMARK  status: ('A' for Active; 'I' for Inactive)
REMARK    1  A    between atoms: CB_2  and  CA_4
REMARK    2  A    between atoms: CA_4  and  C_6
REMARK                            x       y       z     vdW  Elec       q    Type
REMARK                         _______ _______ _______ _____ _____    ______ ____
ROOT
ATOM      1  CA  VAL A   1      -2.806   6.642  -4.038  0.00  0.00    +0.194 C 
ATOM      2  N   VAL A   1      -2.011   7.872  -3.445  0.00  0.00    -0.121 NA
ENDROOT
BRANCH   1   4
ATOM      3  CG1 VAL A   1      -2.364   5.781  -6.291  0.00  0.00    +0.002 C 
ATOM      4  CB  VAL A   1      -1.739   6.351  -5.248  0.00  0.00    +0.029 C 
ATOM      5  CG2 VAL A   1      -0.528   7.038  -5.159  0.00  0.00    +0.002 C 
ENDBRANCH   1   4
BRANCH   1   6
ATOM      6  C   VAL A   1      -2.136   5.595  -3.005  0.00  0.00    +0.382 C 
ATOM      7  OXT VAL A   1      -1.708   6.319  -1.875  0.00  0.00    -0.244 OA
ATOM      8  O   VAL A   1      -2.774   4.603  -2.639  0.00  0.00    -0.244 OA
ENDBRANCH   1   6
TORSDOF 2
ENDMDL
MODEL 9
REMARK VINA RESULT:      -3.9     10.831     11.809
REMARK  Name = 
REMARK  2 active torsions:
REMARK  status: ('A' for Active; 'I' for Inactive)
REMARK    1  A    between atoms: CB_2  and  CA_4
REMARK    2  A    between atoms: CA_4  and  C_6
REMARK                            x       y       z     vdW  Elec       q    Type
REMARK                         _______ _______ _______ _____ _____    ______ ____
ROOT
ATOM      1  CA  VAL A   1      -1.489   6.522  -3.365  0.00  0.00    +0.194 C 
ATOM      2  N   VAL A   1      -0.807   5.234  -2.752  0.00  0.00    -0.121 NA
ENDROOT
BRANCH   1   4
ATOM      3  CG1 VAL A   1      -0.121   5.351  -5.029  0.00  0.00    +0.002 C 
ATOM      4  CB  VAL A   1      -1.240   6.086  -4.925  0.00  0.00    +0.029 C 
ATOM      5  CG2 VAL A   1      -2.345   6.211  -5.768  0.00  0.00    +0.002 C 
ENDBRANCH   1   4
BRANCH   1   6
ATOM      6  C   VAL A   1      -2.973   5.888  -3.277  0.00  0.00    +0.382 C 
ATOM      7  OXT VAL A   1      -2.853   4.580  -2.765  0.00  0.00    -0.244 OA
ATOM      8  O   VAL A   1      -3.860   6.489  -2.663  0.00  0.00    -0.244 OA
ENDBRANCH   1   6
TORSDOF 2
ENDMDL
