MODEL 1
REMARK VINA RESULT:      -4.1      0.000      0.000
REMARK  Name = 
REMARK  3 active torsions:
REMARK  status: ('A' for Active; 'I' for Inactive)
REMARK    1  A    between atoms: C_2  and  C_4
REMARK    2  A    between atoms: C_4  and  C_6
REMARK    3  A    between atoms: C_6  and  C_8
REMARK                            x       y       z     vdW  Elec       q    Type
REMARK                         _______ _______ _______ _____ _____    ______ ____
ROOT
ATOM      1  C   UNL     1       7.197   6.061 -13.129  0.00  0.00    +0.287 C 
ATOM      2  O   UNL     1       7.817   4.661 -12.993  0.00  0.00    -0.208 OA
ENDROOT
BRANCH   1   4
ATOM      3  O   UNL     1       5.494   4.792 -13.402  0.00  0.00    -0.243 OA
ATOM      4  C   UNL     1       5.760   5.409 -13.584  0.00  0.00    +0.397 C 
ATOM      5  O   UNL     1       5.177   6.336 -14.457  0.00  0.00    -0.243 OA
ENDBRANCH   1   4
BRANCH   1   6
ATOM      6  C   UNL     1       6.708   6.051 -11.435  0.00  0.00    +0.226 C 
ATOM      7  O   UNL     1       8.143   6.314 -10.973  0.00  0.00    -0.217 OA
BRANCH   6   8
ATOM      8  C   UNL     1       6.382   7.681 -11.473  0.00  0.00    +0.218 C 
ATOM      9  O   UNL     1       5.164   7.745 -10.779  0.00  0.00    -0.217 OA
ENDBRANCH   6   8
ENDBRANCH   1   6
TORSDOF 3
ENDMDL
MODEL 2
REMARK VINA RESULT:      -4.0     11.026     12.661
REMARK  Name = 
REMARK  3 active torsions:
REMARK  status: ('A' for Active; 'I' for Inactive)
REMARK    1  A    between atoms: C_2  and  C_4
REMARK    2  A    between atoms: C_4  and  C_6
REMARK    3  A    between atoms: C_6  and  C_8
REMARK                            x       y       z     vdW  Elec       q    Type
REMARK                         _______ _______ _______ _____ _____    ______ ____
ROOT
ATOM      1  C   UNL     1      -1.711   6.667  -3.202  0.00  0.00    +0.287 C 
ATOM      2  O   UNL     1      -2.124   7.957  -2.475  0.00  0.00    -0.208 OA
ENDROOT
BRANCH   1   4
ATOM      3  O   UNL     1      -3.746   6.271  -2.665  0.00  0.00    -0.243 OA
ATOM      4  C   UNL     1      -3.141   5.959  -2.813  0.00  0.00    +0.397 C 
ATOM      5  O   UNL     1      -2.897   4.580  -2.800  0.00  0.00    -0.243 OA
ENDBRANCH   1   4
BRANCH   1   6
ATOM      6  C   UNL     1      -2.378   7.265  -4.721  0.00  0.00    +0.226 C 
ATOM      7  O   UNL     1      -1.213   8.242  -4.898  0.00  0.00    -0.217 OA
BRANCH   6   8
ATOM      8  C   UNL     1      -1.575   6.093  -5.586  0.00  0.00    +0.218 C 
ATOM      9  O   UNL     1      -2.596   5.597  -6.410  0.00  0.00    -0.217 OA
ENDBRANCH   6   8
ENDBRANCH   1   6
TORSDOF 3
ENDMDL
MODEL 3
REMARK VINA RESULT:      -4.0      1.417      2.856
REMARK  Name = 
REMARK  3 active torsions:
REMARK  status: ('A' for Active; 'I' for Inactive)
REMARK    1  A    between atoms: C_2  and  C_4
REMARK    2  A    between atoms: C_4  and  C_6
REMARK    3  A    between atoms: C_6  and  C_8
REMARK                            x       y       z     vdW  Elec       q    Type
REMARK                         _______ _______ _______ _____ _____    ______ ____
ROOT
ATOM      1  C   UNL     1       5.818   6.005 -12.681  0.00  0.00    +0.287 C 
ATOM      2  O   UNL     1       5.168   4.717 -13.209  0.00  0.00    -0.208 OA
ENDROOT
BRANCH   1   4
ATOM      3  O   UNL     1       4.663   5.340 -11.006  0.00  0.00    -0.243 OA
ATOM      4  C   UNL     1       4.946   5.907 -11.293  0.00  0.00    +0.397 C 
ATOM      5  O   UNL     1       4.848   7.217 -10.808  0.00  0.00    -0.243 OA
ENDBRANCH   1   4
BRANCH   1   6
ATOM      6  C   UNL     1       7.140   5.087 -11.959  0.00  0.00    +0.226 C 
ATOM      7  O   UNL     1       7.710   4.740 -13.336  0.00  0.00    -0.217 OA
BRANCH   6   8
ATOM      8  C   UNL     1       8.093   6.447 -11.866  0.00  0.00    +0.218 C 
ATOM      9  O   UNL     1       9.326   5.963 -12.329  0.00  0.00    -0.217 OA
ENDBRANCH   6   8
ENDBRANCH   1   6
TORSDOF 3
ENDMDL
MODEL 4
REMARK VINA RESULT:      -3.9     10.598     11.992
REMARK  Name = 
REMARK  3 active torsions:
REMARK  status: ('A' for Active; 'I' for Inactive)
REMARK    1  A    between atoms: C_2  and  C_4
REMARK    2  A    between atoms: C_4  and  C_6
REMARK    3  A    between atoms: C_6  and  C_8
REMARK                            x       y       z     vdW  Elec       q    Type
REMARK                         _______ _______ _______ _____ _____    ______ ____
ROOT
ATOM      1  C   UNL     1      -2.400   7.309  -4.791  0.00  0.00    +0.287 C 
ATOM      2  O   UNL     1      -1.196   8.256  -4.915  0.00  0.00    -0.208 OA
ENDROOT
BRANCH   1   4
ATOM      3  O   UNL     1      -0.943   6.069  -5.752  0.00  0.00    -0.243 OA
ATOM      4  C   UNL     1      -1.629   6.169  -5.686  0.00  0.00    +0.397 C 
ATOM      5  O   UNL     1      -2.635   5.444  -6.337  0.00  0.00    -0.243 OA
ENDBRANCH   1   4
BRANCH   1   6
ATOM      6  C   UNL     1      -1.757   6.625  -3.298  0.00  0.00    +0.226 C 
ATOM      7  O   UNL     1      -2.135   7.880  -2.508  0.00  0.00    -0.217 OA
BRANCH   6   8
ATOM      8  C   UNL     1      -3.218   5.916  -2.942  0.00  0.00    +0.218 C 
ATOM      9  O   UNL     1      -2.845   4.577  -2.746  0.00  0.00    -0.217 OA
ENDBRANCH   6   8
ENDBRANCH   1   6
TORSDOF 3
ENDMDL
MODEL 5
REMARK VINA RESULT:      -3.9      1.083      3.135
REMARK  Name = 
REMARK  3 active torsions:
REMARK  status: ('A' for Active; 'I' for Inactive)
REMARK    1  A    between atoms: C_2  and  C_4
REMARK    2  A    between atoms: C_4  and  C_6
REMARK    3  A    between atoms: C_6  and  C_8
REMARK                            x       y       z     vdW  Elec       q    Type
REMARK                         _______ _______ _______ _____ _____    ______ ____
ROOT
ATOM      1  C   UNL     1       6.619   5.811 -11.454  0.00  0.00    +0.287 C 
ATOM      2  O   UNL     1       7.889   5.470 -10.658  0.00  0.00    -0.208 OA
ENDROOT
BRANCH   1   4
ATOM      3  O   UNL     1       7.264   7.739 -10.784  0.00  0.00    -0.243 OA
ATOM      4  C   UNL     1       6.697   7.375 -10.959  0.00  0.00    +0.397 C 
ATOM      5  O   UNL     1       5.374   7.832 -10.921  0.00  0.00    -0.243 OA
ENDBRANCH   1   4
BRANCH   1   6
ATOM      6  C   UNL     1       7.573   6.179 -12.891  0.00  0.00    +0.226 C 
ATOM      7  O   UNL     1       7.785   4.692 -13.185  0.00  0.00    -0.217 OA
BRANCH   6   8
ATOM      8  C   UNL     1       6.209   6.211 -13.842  0.00  0.00    +0.218 C 
ATOM      9  O   UNL     1       6.376   7.418 -14.538  0.00  0.00    -0.217 OA
ENDBRANCH   6   8
ENDBRANCH   1   6
TORSDOF 3
ENDMDL
MODEL 6
REMARK VINA RESULT:      -3.9      1.443      3.711
REMARK  Name = 
REMARK  3 active torsions:
REMARK  status: ('A' for Active; 'I' for Inactive)
REMARK    1  A    between atoms: C_2  and  C_4
REMARK    2  A    between atoms: C_4  and  C_6
REMARK    3  A    between atoms: C_6  and  C_8
REMARK                            x       y       z     vdW  Elec       q    Type
REMARK                         _______ _______ _______ _____ _____    ______ ____
ROOT
ATOM      1  C   UNL     1       6.794   7.305 -11.023  0.00  0.00    +0.287 C 
ATOM      2  O   UNL     1       5.377   7.881 -10.872  0.00  0.00    -0.208 OA
ENDROOT
BRANCH   1   4
ATOM      3  O   UNL     1       5.767   5.714 -10.023  0.00  0.00    -0.243 OA
ATOM      4  C   UNL     1       6.394   6.008 -10.098  0.00  0.00    +0.397 C 
ATOM      5  O   UNL     1       7.571   5.622  -9.447  0.00  0.00    -0.243 OA
ENDBRANCH   1   4
BRANCH   1   6
ATOM      6  C   UNL     1       6.331   6.447 -12.492  0.00  0.00    +0.226 C 
ATOM      7  O   UNL     1       6.423   7.730 -13.323  0.00  0.00    -0.217 OA
BRANCH   6   8
ATOM      8  C   UNL     1       7.916   6.072 -12.826  0.00  0.00    +0.218 C 
ATOM      9  O   UNL     1       7.837   4.692 -13.067  0.00  0.00    -0.217 OA
ENDBRANCH   6   8
ENDBRANCH   1   6
TORSDOF 3
ENDMDL
MODEL 7
REMARK VINA RESULT:      -3.9     10.429     11.974
REMARK  Name = 
REMARK  3 active torsions:
REMARK  status: ('A' for Active; 'I' for Inactive)
REMARK    1  A    between atoms: C_2  and  C_4
REMARK    2  A    between atoms: C_4  and  C_6
REMARK    3  A    between atoms: C_6  and  C_8
REMARK                            x       y       z     vdW  Elec       q    Type
REMARK                         _______ _______ _______ _____ _____    ______ ____
ROOT
ATOM      1  C   UNL     1      -1.772   6.589  -3.567  0.00  0.00    +0.287 C 
ATOM      2  O   UNL     1      -2.751   7.187  -4.590  0.00  0.00    -0.208 OA
ENDROOT
BRANCH   1   4
ATOM      3  O   UNL     1      -3.260   5.059  -3.733  0.00  0.00    -0.243 OA
ATOM      4  C   UNL     1      -2.783   5.323  -3.301  0.00  0.00    +0.397 C 
ATOM      5  O   UNL     1      -2.523   4.891  -1.994  0.00  0.00    -0.243 OA
ENDBRANCH   1   4
BRANCH   1   6
ATOM      6  C   UNL     1      -0.930   5.698  -4.835  0.00  0.00    +0.226 C 
ATOM      7  O   UNL     1      -0.282   6.979  -5.366  0.00  0.00    -0.217 OA
BRANCH   6   8
ATOM      8  C   UNL     1       0.367   5.411  -3.834  0.00  0.00    +0.218 C 
ATOM      9  O   UNL     1       1.315   4.904  -4.736  0.00  0.00    -0.217 OA
ENDBRANCH   6   8
ENDBRANCH   1   6
TORSDOF 3
ENDMDL
MODEL 8
REMARK VINA RESULT:      -3.9      1.731      2.916
REMARK  Name = 
REMARK  3 active torsions:
REMARK  status: ('A' for Active; 'I' for Inactive)
REMARK    1  A    between atoms: C_2  and  C_4
REMARK    2  A    between atoms: C_4  and  C_6
REMARK    3  A    between atoms: C_6  and  C_8
REMARK                            x       y       z     vdW  Elec       q    Type
REMARK                         _______ _______ _______ _____ _____    ______ ____
ROOT
ATOM      1  C   UNL     1       6.755   6.632 -11.909  0.00  0.00    +0.287 C 
ATOM      2  O   UNL     1       7.426   7.424 -10.776  0.00  0.00    -0.208 OA
ENDROOT
BRANCH   1   4
ATOM      3  O   UNL     1       8.115   5.207 -11.071  0.00  0.00    -0.243 OA
ATOM      4  C   UNL     1       7.759   5.360 -11.649  0.00  0.00    +0.397 C 
ATOM      5  O   UNL     1       7.793   4.644 -12.853  0.00  0.00    -0.243 OA
ENDBRANCH   1   4
BRANCH   1   6
ATOM      6  C   UNL     1       5.564   5.968 -10.791  0.00  0.00    +0.226 C 
ATOM      7  O   UNL     1       4.858   7.321 -10.669  0.00  0.00    -0.217 OA
BRANCH   6   8
ATOM      8  C   UNL     1       4.569   5.520 -12.046  0.00  0.00    +0.218 C 
ATOM      9  O   UNL     1       3.310   5.912 -11.566  0.00  0.00    -0.217 OA
ENDBRANCH   6   8
ENDBRANCH   1   6
TORSDOF 3
ENDMDL
MODEL 9
REMARK VINA RESULT:      -3.8     10.916     12.289
REMARK  Name = 
REMARK  3 active torsions:
REMARK  status: ('A' for Active; 'I' for Inactive)
REMARK    1  A    between atoms: C_2  and  C_4
REMARK    2  A    between atoms: C_4  and  C_6
REMARK    3  A    between atoms: C_6  and  C_8
REMARK                            x       y       z     vdW  Elec       q    Type
REMARK                         _______ _______ _______ _____ _____    ______ ____
ROOT
ATOM      1  C   UNL     1      -0.435   6.018  -2.471  0.00  0.00    +0.287 C 
ATOM      2  O   UNL     1      -0.033   4.659  -1.874  0.00  0.00    -0.208 OA
ENDROOT
BRANCH   1   4
ATOM      3  O   UNL     1       0.582   5.053  -4.089  0.00  0.00    -0.243 OA
ATOM      4  C   UNL     1       0.372   5.675  -3.859  0.00  0.00    +0.397 C 
ATOM      5  O   UNL     1       0.594   6.907  -4.488  0.00  0.00    -0.243 OA
ENDBRANCH   1   4
BRANCH   1   6
ATOM      6  C   UNL     1      -1.924   5.333  -3.123  0.00  0.00    +0.226 C 
ATOM      7  O   UNL     1      -2.463   5.053  -1.718  0.00  0.00    -0.217 OA
BRANCH   6   8
ATOM      8  C   UNL     1      -2.653   6.827  -3.147  0.00  0.00    +0.218 C 
ATOM      9  O   UNL     1      -3.890   6.550  -2.544  0.00  0.00    -0.217 OA
ENDBRANCH   6   8
ENDBRANCH   1   6
TORSDOF 3
ENDMDL
