MODEL 1
REMARK VINA RESULT:      -7.3      0.000      0.000
REMARK  Name = 
REMARK  2 active torsions:
REMARK  status: ('A' for Active; 'I' for Inactive)
REMARK    1  A    between atoms: C_2  and  C_3
REMARK    2  A    between atoms: C_10  and  C_11
REMARK                            x       y       z     vdW  Elec       q    Type
REMARK                         _______ _______ _______ _____ _____    ______ ____
ROOT
ATOM      1  C   UNL     1       2.648   6.380  -9.462  0.00  0.00    +0.065 A 
ATOM      2  C   UNL     1       3.524   6.398 -10.540  0.00  0.00    +0.049 A 
ATOM      3  C   UNL     1       3.146   5.832 -11.752  0.00  0.00    +0.174 A 
ATOM      4  N   UNL     1       4.131   5.806 -12.780  0.00  0.00    -0.107 NA
ATOM      5  N   UNL     1       1.867   5.478 -11.945  0.00  0.00    -0.193 NA
ATOM      6  C   UNL     1       1.132   5.204 -10.855  0.00  0.00    +0.258 A 
ATOM      7  N   UNL     1      -0.111   4.529 -11.071  0.00  0.00    -0.086 NA
ATOM      8  N   UNL     1       1.482   5.713  -9.653  0.00  0.00    -0.215 NA
ENDROOT
BRANCH   2   9
ATOM      9  C   UNL     1       4.926   6.720 -10.242  0.00  0.00    +0.004 A 
ATOM     10  C   UNL     1       5.747   5.777  -9.635  0.00  0.00    +0.001 A 
ATOM     11  C   UNL     1       7.086   5.632  -9.977  0.00  0.00    +0.011 A 
ATOM     12  C   UNL     1       7.616   6.435 -10.975  0.00  0.00    +0.058 A 
ATOM     13 CL   UNL     1       8.808   5.837 -12.124  0.00  0.00    -0.082 Cl
ATOM     14  C   UNL     1       6.937   7.632 -11.181  0.00  0.00    +0.011 A 
ATOM     15  C   UNL     1       5.575   7.742 -10.925  0.00  0.00    +0.001 A 
ENDBRANCH   2   9
BRANCH   1  17
ATOM     16  C   UNL     1       2.835   7.029  -7.069  0.00  0.00    +0.007 C 
ATOM     17  C   UNL     1       2.758   7.510  -8.489  0.00  0.00    +0.046 C 
ENDBRANCH   1  17
TORSDOF 2
ENDMDL
MODEL 2
REMARK VINA RESULT:      -7.2      1.157      2.746
REMARK  Name = 
REMARK  2 active torsions:
REMARK  status: ('A' for Active; 'I' for Inactive)
REMARK    1  A    between atoms: C_2  and  C_3
REMARK    2  A    between atoms: C_10  and  C_11
REMARK                            x       y       z     vdW  Elec       q    Type
REMARK                         _______ _______ _______ _____ _____    ______ ____
ROOT
ATOM      1  C   UNL     1       3.389   6.091 -11.813  0.00  0.00    +0.065 A 
ATOM      2  C   UNL     1       3.728   6.361 -10.493  0.00  0.00    +0.049 A 
ATOM      3  C   UNL     1       2.731   6.606  -9.556  0.00  0.00    +0.174 A 
ATOM      4  N   UNL     1       3.161   6.967  -8.247  0.00  0.00    -0.107 NA
ATOM      5  N   UNL     1       1.452   6.360  -9.873  0.00  0.00    -0.193 NA
ATOM      6  C   UNL     1       1.124   6.381 -11.175  0.00  0.00    +0.258 A 
ATOM      7  N   UNL     1      -0.272   6.437 -11.486  0.00  0.00    -0.086 NA
ATOM      8  N   UNL     1       2.069   6.174 -12.118  0.00  0.00    -0.215 NA
ENDROOT
BRANCH   2   9
ATOM      9  C   UNL     1       5.134   6.698 -10.233  0.00  0.00    +0.004 A 
ATOM     10  C   UNL     1       5.981   5.763  -9.650  0.00  0.00    +0.001 A 
ATOM     11  C   UNL     1       7.312   5.634 -10.029  0.00  0.00    +0.011 A 
ATOM     12  C   UNL     1       7.805   6.444 -11.040  0.00  0.00    +0.058 A 
ATOM     13 CL   UNL     1       8.972   5.861 -12.222  0.00  0.00    -0.082 Cl
ATOM     14  C   UNL     1       7.109   7.634 -11.225  0.00  0.00    +0.011 A 
ATOM     15  C   UNL     1       5.753   7.729 -10.931  0.00  0.00    +0.001 A 
ENDBRANCH   2   9
BRANCH   1  17
ATOM     16  C   UNL     1       4.725   5.806 -13.890  0.00  0.00    +0.007 C 
ATOM     17  C   UNL     1       4.318   5.203 -12.577  0.00  0.00    +0.046 C 
ENDBRANCH   1  17
TORSDOF 2
ENDMDL
MODEL 3
REMARK VINA RESULT:      -7.0      5.969      7.673
REMARK  Name = 
REMARK  2 active torsions:
REMARK  status: ('A' for Active; 'I' for Inactive)
REMARK    1  A    between atoms: C_2  and  C_3
REMARK    2  A    between atoms: C_10  and  C_11
REMARK                            x       y       z     vdW  Elec       q    Type
REMARK                         _______ _______ _______ _____ _____    ______ ____
ROOT
ATOM      1  C   UNL     1       0.306   5.391  -4.130  0.00  0.00    +0.065 A 
ATOM      2  C   UNL     1       1.291   5.397  -3.150  0.00  0.00    +0.049 A 
ATOM      3  C   UNL     1       0.937   5.321  -1.809  0.00  0.00    +0.174 A 
ATOM      4  N   UNL     1       1.995   5.428  -0.862  0.00  0.00    -0.107 NA
ATOM      5  N   UNL     1      -0.325   5.015  -1.475  0.00  0.00    -0.193 NA
ATOM      6  C   UNL     1      -1.285   5.288  -2.374  0.00  0.00    +0.258 A 
ATOM      7  N   UNL     1      -2.635   5.261  -1.902  0.00  0.00    -0.086 NA
ATOM      8  N   UNL     1      -0.976   5.397  -3.686  0.00  0.00    -0.215 NA
ENDROOT
BRANCH   2   9
ATOM      9  C   UNL     1       2.634   5.817  -3.573  0.00  0.00    +0.004 A 
ATOM     10  C   UNL     1       3.652   4.880  -3.700  0.00  0.00    +0.001 A 
ATOM     11  C   UNL     1       4.599   4.949  -4.715  0.00  0.00    +0.011 A 
ATOM     12  C   UNL     1       4.510   5.970  -5.649  0.00  0.00    +0.058 A 
ATOM     13 CL   UNL     1       4.898   5.721  -7.348  0.00  0.00    -0.082 Cl
ATOM     14  C   UNL     1       3.827   7.100  -5.213  0.00  0.00    +0.011 A 
ATOM     15  C   UNL     1       2.815   7.010  -4.263  0.00  0.00    +0.001 A 
ENDBRANCH   2   9
BRANCH   1  17
ATOM     16  C   UNL     1       0.242   5.661  -6.601  0.00  0.00    +0.007 C 
ATOM     17  C   UNL     1       0.677   4.799  -5.452  0.00  0.00    +0.046 C 
ENDBRANCH   1  17
TORSDOF 2
ENDMDL
MODEL 4
REMARK VINA RESULT:      -6.9      6.090      8.328
REMARK  Name = 
REMARK  2 active torsions:
REMARK  status: ('A' for Active; 'I' for Inactive)
REMARK    1  A    between atoms: C_2  and  C_3
REMARK    2  A    between atoms: C_10  and  C_11
REMARK                            x       y       z     vdW  Elec       q    Type
REMARK                         _______ _______ _______ _____ _____    ______ ____
ROOT
ATOM      1  C   UNL     1       1.806   6.476  -4.132  0.00  0.00    +0.065 A 
ATOM      2  C   UNL     1       1.385   6.781  -5.420  0.00  0.00    +0.049 A 
ATOM      3  C   UNL     1       2.287   7.303  -6.339  0.00  0.00    +0.174 A 
ATOM      4  N   UNL     1       1.761   7.678  -7.608  0.00  0.00    -0.107 NA
ATOM      5  N   UNL     1       3.598   7.298  -6.056  0.00  0.00    -0.193 NA
ATOM      6  C   UNL     1       3.948   7.275  -4.759  0.00  0.00    +0.258 A 
ATOM      7  N   UNL     1       5.310   7.589  -4.455  0.00  0.00    -0.086 NA
ATOM      8  N   UNL     1       3.088   6.800  -3.830  0.00  0.00    -0.215 NA
ENDROOT
BRANCH   2   9
ATOM      9  C   UNL     1      -0.066   6.845  -5.640  0.00  0.00    +0.004 A 
ATOM     10  C   UNL     1      -0.738   5.761  -6.192  0.00  0.00    +0.001 A 
ATOM     11  C   UNL     1      -2.009   5.387  -5.772  0.00  0.00    +0.011 A 
ATOM     12  C   UNL     1      -2.617   6.100  -4.751  0.00  0.00    +0.058 A 
ATOM     13 CL   UNL     1      -3.618   5.321  -3.530  0.00  0.00    -0.082 Cl
ATOM     14  C   UNL     1      -2.152   7.402  -4.593  0.00  0.00    +0.011 A 
ATOM     15  C   UNL     1      -0.848   7.747  -4.928  0.00  0.00    +0.001 A 
ENDBRANCH   2   9
BRANCH   1  17
ATOM     16  C   UNL     1       0.773   5.683  -2.013  0.00  0.00    +0.007 C 
ATOM     17  C   UNL     1       1.095   5.355  -3.442  0.00  0.00    +0.046 C 
ENDBRANCH   1  17
TORSDOF 2
ENDMDL
MODEL 5
REMARK VINA RESULT:      -6.8      4.833      6.923
REMARK  Name = 
REMARK  2 active torsions:
REMARK  status: ('A' for Active; 'I' for Inactive)
REMARK    1  A    between atoms: C_2  and  C_3
REMARK    2  A    between atoms: C_10  and  C_11
REMARK                            x       y       z     vdW  Elec       q    Type
REMARK                         _______ _______ _______ _____ _____    ______ ____
ROOT
ATOM      1  C   UNL     1       0.456   5.640  -3.936  0.00  0.00    +0.065 A 
ATOM      2  C   UNL     1      -0.204   5.750  -5.154  0.00  0.00    +0.049 A 
ATOM      3  C   UNL     1      -1.592   5.692  -5.199  0.00  0.00    +0.174 A 
ATOM      4  N   UNL     1      -2.190   5.719  -6.491  0.00  0.00    -0.107 NA
ATOM      5  N   UNL     1      -2.294   5.758  -4.059  0.00  0.00    -0.193 NA
ATOM      6  C   UNL     1      -1.675   5.373  -2.931  0.00  0.00    +0.258 A 
ATOM      7  N   UNL     1      -2.505   5.141  -1.789  0.00  0.00    -0.086 NA
ATOM      8  N   UNL     1      -0.325   5.389  -2.856  0.00  0.00    -0.215 NA
ENDROOT
BRANCH   2   9
ATOM      9  C   UNL     1       0.616   5.591  -6.362  0.00  0.00    +0.004 A 
ATOM     10  C   UNL     1       1.178   6.703  -6.978  0.00  0.00    +0.001 A 
ATOM     11  C   UNL     1       2.447   6.674  -7.543  0.00  0.00    +0.011 A 
ATOM     12  C   UNL     1       3.190   5.505  -7.467  0.00  0.00    +0.058 A 
ATOM     13 CL   UNL     1       4.934   5.517  -7.225  0.00  0.00    -0.082 Cl
ATOM     14  C   UNL     1       2.437   4.346  -7.307  0.00  0.00    +0.011 A 
ATOM     15  C   UNL     1       1.209   4.368  -6.656  0.00  0.00    +0.001 A 
ENDBRANCH   2   9
BRANCH   1  17
ATOM     16  C   UNL     1       2.891   5.425  -3.485  0.00  0.00    +0.007 C 
ATOM     17  C   UNL     1       1.762   6.357  -3.813  0.00  0.00    +0.046 C 
ENDBRANCH   1  17
TORSDOF 2
ENDMDL
MODEL 6
REMARK VINA RESULT:      -6.8      3.366      5.361
REMARK  Name = 
REMARK  2 active torsions:
REMARK  status: ('A' for Active; 'I' for Inactive)
REMARK    1  A    between atoms: C_2  and  C_3
REMARK    2  A    between atoms: C_10  and  C_11
REMARK                            x       y       z     vdW  Elec       q    Type
REMARK                         _______ _______ _______ _____ _____    ______ ____
ROOT
ATOM      1  C   UNL     1       4.514   5.409 -11.738  0.00  0.00    +0.065 A 
ATOM      2  C   UNL     1       5.098   5.651 -10.501  0.00  0.00    +0.049 A 
ATOM      3  C   UNL     1       6.482   5.693 -10.383  0.00  0.00    +0.174 A 
ATOM      4  N   UNL     1       7.007   5.853  -9.069  0.00  0.00    -0.107 NA
ATOM      5  N   UNL     1       7.239   5.726 -11.490  0.00  0.00    -0.193 NA
ATOM      6  C   UNL     1       6.708   5.218 -12.615  0.00  0.00    +0.258 A 
ATOM      7  N   UNL     1       7.612   4.964 -13.694  0.00  0.00    -0.086 NA
ATOM      8  N   UNL     1       5.367   5.136 -12.757  0.00  0.00    -0.215 NA
ENDROOT
BRANCH   2   9
ATOM      9  C   UNL     1       4.226   5.523  -9.326  0.00  0.00    +0.004 A 
ATOM     10  C   UNL     1       3.612   6.646  -8.784  0.00  0.00    +0.001 A 
ATOM     11  C   UNL     1       2.318   6.609  -8.278  0.00  0.00    +0.011 A 
ATOM     12  C   UNL     1       1.606   5.422  -8.338  0.00  0.00    +0.058 A 
ATOM     13 CL   UNL     1      -0.125   5.384  -8.661  0.00  0.00    -0.082 Cl
ATOM     14  C   UNL     1       2.389   4.275  -8.415  0.00  0.00    +0.011 A 
ATOM     15  C   UNL     1       3.646   4.299  -9.009  0.00  0.00    +0.001 A 
ENDBRANCH   2   9
BRANCH   1  17
ATOM     16  C   UNL     1       2.590   5.612 -13.300  0.00  0.00    +0.007 C 
ATOM     17  C   UNL     1       3.172   6.023 -11.979  0.00  0.00    +0.046 C 
ENDBRANCH   1  17
TORSDOF 2
ENDMDL
MODEL 7
REMARK VINA RESULT:      -6.7      5.075      7.618
REMARK  Name = 
REMARK  2 active torsions:
REMARK  status: ('A' for Active; 'I' for Inactive)
REMARK    1  A    between atoms: C_2  and  C_3
REMARK    2  A    between atoms: C_10  and  C_11
REMARK                            x       y       z     vdW  Elec       q    Type
REMARK                         _______ _______ _______ _____ _____    ______ ____
ROOT
ATOM      1  C   UNL     1       1.714   6.987  -7.005  0.00  0.00    +0.065 A 
ATOM      2  C   UNL     1       0.589   6.290  -6.581  0.00  0.00    +0.049 A 
ATOM      3  C   UNL     1      -0.205   5.625  -7.508  0.00  0.00    +0.174 A 
ATOM      4  N   UNL     1      -1.390   5.012  -7.009  0.00  0.00    -0.107 NA
ATOM      5  N   UNL     1       0.235   5.469  -8.765  0.00  0.00    -0.193 NA
ATOM      6  C   UNL     1       1.138   6.355  -9.216  0.00  0.00    +0.258 A 
ATOM      7  N   UNL     1       1.361   6.382 -10.629  0.00  0.00    -0.086 NA
ATOM      8  N   UNL     1       1.911   7.042  -8.346  0.00  0.00    -0.215 NA
ENDROOT
BRANCH   2   9
ATOM      9  C   UNL     1       0.119   6.568  -5.218  0.00  0.00    +0.004 A 
ATOM     10  C   UNL     1      -0.755   7.622  -4.980  0.00  0.00    +0.001 A 
ATOM     11  C   UNL     1      -1.783   7.535  -4.050  0.00  0.00    +0.011 A 
ATOM     12  C   UNL     1      -1.962   6.350  -3.354  0.00  0.00    +0.058 A 
ATOM     13 CL   UNL     1      -3.561   5.734  -2.947  0.00  0.00    -0.082 Cl
ATOM     14  C   UNL     1      -0.826   5.553  -3.259  0.00  0.00    +0.011 A 
ATOM     15  C   UNL     1       0.156   5.576  -4.244  0.00  0.00    +0.001 A 
ENDBRANCH   2   9
BRANCH   1  17
ATOM     16  C   UNL     1       3.917   6.061  -6.319  0.00  0.00    +0.007 C 
ATOM     17  C   UNL     1       2.851   7.079  -6.038  0.00  0.00    +0.046 C 
ENDBRANCH   1  17
TORSDOF 2
ENDMDL
MODEL 8
REMARK VINA RESULT:      -6.6      5.859      8.650
REMARK  Name = 
REMARK  2 active torsions:
REMARK  status: ('A' for Active; 'I' for Inactive)
REMARK    1  A    between atoms: C_2  and  C_3
REMARK    2  A    between atoms: C_10  and  C_11
REMARK                            x       y       z     vdW  Elec       q    Type
REMARK                         _______ _______ _______ _____ _____    ______ ____
ROOT
ATOM      1  C   UNL     1       2.035   6.375  -6.112  0.00  0.00    +0.065 A 
ATOM      2  C   UNL     1       1.216   6.458  -4.992  0.00  0.00    +0.049 A 
ATOM      3  C   UNL     1       1.681   6.018  -3.758  0.00  0.00    +0.174 A 
ATOM      4  N   UNL     1       0.753   6.048  -2.679  0.00  0.00    -0.107 NA
ATOM      5  N   UNL     1       2.982   5.730  -3.607  0.00  0.00    -0.193 NA
ATOM      6  C   UNL     1       3.670   5.386  -4.709  0.00  0.00    +0.258 A 
ATOM      7  N   UNL     1       4.949   4.779  -4.504  0.00  0.00    -0.086 NA
ATOM      8  N   UNL     1       3.236   5.772  -5.929  0.00  0.00    -0.215 NA
ENDROOT
BRANCH   2   9
ATOM      9  C   UNL     1      -0.211   6.700  -5.238  0.00  0.00    +0.004 A 
ATOM     10  C   UNL     1      -1.066   5.637  -5.503  0.00  0.00    +0.001 A 
ATOM     11  C   UNL     1      -2.368   5.595  -5.017  0.00  0.00    +0.011 A 
ATOM     12  C   UNL     1      -2.821   6.635  -4.220  0.00  0.00    +0.058 A 
ATOM     13 CL   UNL     1      -3.898   6.367  -2.853  0.00  0.00    -0.082 Cl
ATOM     14  C   UNL     1      -2.148   7.840  -4.395  0.00  0.00    +0.011 A 
ATOM     15  C   UNL     1      -0.815   7.870  -4.791  0.00  0.00    +0.001 A 
ENDBRANCH   2   9
BRANCH   1  17
ATOM     16  C   UNL     1       1.979   6.840  -8.554  0.00  0.00    +0.007 C 
ATOM     17  C   UNL     1       1.827   7.408  -7.173  0.00  0.00    +0.046 C 
ENDBRANCH   1  17
TORSDOF 2
ENDMDL
MODEL 9
REMARK VINA RESULT:      -6.6      1.999      3.089
REMARK  Name = 
REMARK  2 active torsions:
REMARK  status: ('A' for Active; 'I' for Inactive)
REMARK    1  A    between atoms: C_2  and  C_3
REMARK    2  A    between atoms: C_10  and  C_11
REMARK                            x       y       z     vdW  Elec       q    Type
REMARK                         _______ _______ _______ _____ _____    ______ ____
ROOT
ATOM      1  C   UNL     1       2.555   6.474  -9.775  0.00  0.00    +0.065 A 
ATOM      2  C   UNL     1       3.882   6.059  -9.775  0.00  0.00    +0.049 A 
ATOM      3  C   UNL     1       4.481   5.649  -8.590  0.00  0.00    +0.174 A 
ATOM      4  N   UNL     1       5.867   5.328  -8.653  0.00  0.00    -0.107 NA
ATOM      5  N   UNL     1       3.723   5.440  -7.504  0.00  0.00    -0.193 NA
ATOM      6  C   UNL     1       2.551   6.094  -7.434  0.00  0.00    +0.258 A 
ATOM      7  N   UNL     1       1.906   6.122  -6.158  0.00  0.00    -0.086 NA
ATOM      8  N   UNL     1       1.949   6.532  -8.562  0.00  0.00    -0.215 NA
ENDROOT
BRANCH   2   9
ATOM      9  C   UNL     1       4.673   6.390 -10.967  0.00  0.00    +0.004 A 
ATOM     10  C   UNL     1       5.479   7.522 -10.981  0.00  0.00    +0.001 A 
ATOM     11  C   UNL     1       6.723   7.537 -11.601  0.00  0.00    +0.011 A 
ATOM     12  C   UNL     1       7.188   6.378 -12.202  0.00  0.00    +0.058 A 
ATOM     13 CL   UNL     1       8.887   5.916 -12.156  0.00  0.00    -0.082 Cl
ATOM     14  C   UNL     1       6.196   5.481 -12.584  0.00  0.00    +0.011 A 
ATOM     15  C   UNL     1       4.989   5.407 -11.898  0.00  0.00    +0.001 A 
ENDBRANCH   2   9
BRANCH   1  17
ATOM     16  C   UNL     1       0.683   5.236 -10.843  0.00  0.00    +0.007 C 
ATOM     17  C   UNL     1       1.779   6.243 -11.032  0.00  0.00    +0.046 C 
ENDBRANCH   1  17
TORSDOF 2
ENDMDL
