MODEL 1
REMARK VINA RESULT:      -8.6      0.000      0.000
REMARK  Name = 
REMARK  6 active torsions:
REMARK  status: ('A' for Active; 'I' for Inactive)
REMARK    1  A    between atoms: C_2  and  C_3
REMARK    2  A    between atoms: C_3  and  N_4
REMARK    3  A    between atoms: N_7  and  C_8
REMARK    4  A    between atoms: C_8  and  C_9
REMARK    5  A    between atoms: C_9  and  C_10
REMARK    6  A    between atoms: C_10  and  N_11
REMARK                            x       y       z     vdW  Elec       q    Type
REMARK                         _______ _______ _______ _____ _____    ______ ____
ROOT
ATOM      1  N   UNL     1       1.980   5.108  -4.881  0.00  0.00    -0.286 N 
ATOM      2  C   UNL     1       0.631   5.268  -4.464  0.00  0.00    +0.058 A 
ATOM      3  C   UNL     1       0.280   5.554  -3.151  0.00  0.00    +0.043 A 
ATOM      4  C   UNL     1      -0.866   6.321  -2.982  0.00  0.00    +0.009 A 
ATOM      5  C   UNL     1      -1.918   6.199  -3.880  0.00  0.00    +0.012 A 
ATOM      6  C   UNL     1      -1.645   5.749  -5.163  0.00  0.00    +0.059 A 
ATOM      7 CL   UNL     1      -2.698   6.222  -6.473  0.00  0.00    -0.082 Cl
ATOM      8  S   UNL     1       1.648   5.945  -2.054  0.00  0.00    -0.084 S 
ATOM      9  C   UNL     1       2.999   6.465  -3.119  0.00  0.00    +0.043 A 
ATOM     10  C   UNL     1       3.707   7.628  -2.855  0.00  0.00    +0.008 A 
ATOM     11  C   UNL     1       4.790   7.903  -3.674  0.00  0.00    +0.001 A 
ATOM     12  C   UNL     1       5.010   7.112  -4.794  0.00  0.00    +0.001 A 
ATOM     13  C   UNL     1       4.300   5.935  -5.000  0.00  0.00    +0.015 A 
ATOM     14  C   UNL     1      -0.410   5.153  -5.376  0.00  0.00    +0.027 A 
ATOM     15  C   UNL     1       3.059   5.876  -4.376  0.00  0.00    +0.058 A 
ENDROOT
BRANCH   1  16
ATOM     16  C   UNL     1       2.224   4.252  -6.036  0.00  0.00    +0.097 C 
BRANCH  16  17
ATOM     17  C   UNL     1       2.272   5.118  -7.289  0.00  0.00    +0.039 C 
BRANCH  17  18
ATOM     18  C   UNL     1       3.083   4.392  -8.334  0.00  0.00    +0.074 C 
BRANCH  18  22
ATOM     19  N   UNL     1       5.826   6.486 -10.560  0.00  0.00    -0.268 NA
ATOM     20  C   UNL     1       6.355   5.749  -9.438  0.00  0.00    +0.090 C 
ATOM     21  C   UNL     1       5.321   4.937  -8.713  0.00  0.00    +0.090 C 
ATOM     22  N   UNL     1       3.968   5.368  -8.967  0.00  0.00    -0.270 NA
ATOM     23  C   UNL     1       3.630   5.387 -10.368  0.00  0.00    +0.090 C 
ATOM     24  C   UNL     1       4.772   5.790 -11.256  0.00  0.00    +0.090 C 
BRANCH  19  25
ATOM     25  C   UNL     1       6.927   6.629 -11.512  0.00  0.00    +0.108 C 
BRANCH  25  27
ATOM     26  O   UNL     1       7.787   4.618 -12.505  0.00  0.00    -0.219 OA
ATOM     27  C   UNL     1       7.770   5.370 -11.343  0.00  0.00    +0.199 C 
ENDBRANCH  25  27
ENDBRANCH  19  25
ENDBRANCH  18  22
ENDBRANCH  17  18
ENDBRANCH  16  17
ENDBRANCH   1  16
TORSDOF 6
ENDMDL
MODEL 2
REMARK VINA RESULT:      -8.4      4.702      9.020
REMARK  Name = 
REMARK  6 active torsions:
REMARK  status: ('A' for Active; 'I' for Inactive)
REMARK    1  A    between atoms: C_2  and  C_3
REMARK    2  A    between atoms: C_3  and  N_4
REMARK    3  A    between atoms: N_7  and  C_8
REMARK    4  A    between atoms: C_8  and  C_9
REMARK    5  A    between atoms: C_9  and  C_10
REMARK    6  A    between atoms: C_10  and  N_11
REMARK                            x       y       z     vdW  Elec       q    Type
REMARK                         _______ _______ _______ _____ _____    ______ ____
ROOT
ATOM      1  N   UNL     1       3.091   5.441 -10.752  0.00  0.00    -0.286 N 
ATOM      2  C   UNL     1       4.372   5.539 -11.362  0.00  0.00    +0.058 A 
ATOM      3  C   UNL     1       4.561   5.424 -12.733  0.00  0.00    +0.043 A 
ATOM      4  C   UNL     1       5.608   6.164 -13.266  0.00  0.00    +0.009 A 
ATOM      5  C   UNL     1       6.752   6.385 -12.511  0.00  0.00    +0.012 A 
ATOM      6  C   UNL     1       6.653   6.340 -11.128  0.00  0.00    +0.059 A 
ATOM      7 CL   UNL     1       7.785   7.253 -10.163  0.00  0.00    -0.082 Cl
ATOM      8  S   UNL     1       3.058   5.379 -13.718  0.00  0.00    -0.084 S 
ATOM      9  C   UNL     1       1.780   6.126 -12.700  0.00  0.00    +0.043 A 
ATOM     10  C   UNL     1       0.946   7.109 -13.212  0.00  0.00    +0.008 A 
ATOM     11  C   UNL     1      -0.070   7.563 -12.386  0.00  0.00    +0.001 A 
ATOM     12  C   UNL     1      -0.102   7.147 -11.061  0.00  0.00    +0.001 A 
ATOM     13  C   UNL     1       0.730   6.132 -10.600  0.00  0.00    +0.015 A 
ATOM     14  C   UNL     1       5.505   5.770 -10.594  0.00  0.00    +0.027 A 
ATOM     15  C   UNL     1       1.902   5.954 -11.327  0.00  0.00    +0.058 A 
ENDROOT
BRANCH   1  16
ATOM     16  C   UNL     1       3.045   4.972  -9.372  0.00  0.00    +0.097 C 
BRANCH  16  17
ATOM     17  C   UNL     1       2.859   6.172  -8.451  0.00  0.00    +0.039 C 
BRANCH  17  18
ATOM     18  C   UNL     1       2.566   5.660  -7.062  0.00  0.00    +0.074 C 
BRANCH  18  22
ATOM     19  N   UNL     1      -1.127   6.445  -5.449  0.00  0.00    -0.268 NA
ATOM     20  C   UNL     1      -1.098   5.475  -6.515  0.00  0.00    +0.090 C 
ATOM     21  C   UNL     1       0.286   5.166  -7.007  0.00  0.00    +0.090 C 
ATOM     22  N   UNL     1       1.258   6.175  -6.665  0.00  0.00    -0.270 NA
ATOM     23  C   UNL     1       1.328   6.440  -5.250  0.00  0.00    +0.090 C 
ATOM     24  C   UNL     1       0.000   6.347  -4.555  0.00  0.00    +0.090 C 
BRANCH  19  25
ATOM     25  C   UNL     1      -2.315   6.144  -4.652  0.00  0.00    +0.108 C 
BRANCH  25  27
ATOM     26  O   UNL     1      -2.810   4.765  -2.748  0.00  0.00    -0.219 OA
ATOM     27  C   UNL     1      -1.794   5.437  -3.405  0.00  0.00    +0.199 C 
ENDBRANCH  25  27
ENDBRANCH  19  25
ENDBRANCH  18  22
ENDBRANCH  17  18
ENDBRANCH  16  17
ENDBRANCH   1  16
TORSDOF 6
ENDMDL
MODEL 3
REMARK VINA RESULT:      -8.0      2.046      2.638
REMARK  Name = 
REMARK  6 active torsions:
REMARK  status: ('A' for Active; 'I' for Inactive)
REMARK    1  A    between atoms: C_2  and  C_3
REMARK    2  A    between atoms: C_3  and  N_4
REMARK    3  A    between atoms: N_7  and  C_8
REMARK    4  A    between atoms: C_8  and  C_9
REMARK    5  A    between atoms: C_9  and  C_10
REMARK    6  A    between atoms: C_10  and  N_11
REMARK                            x       y       z     vdW  Elec       q    Type
REMARK                         _______ _______ _______ _____ _____    ______ ____
ROOT
ATOM      1  N   UNL     1       2.118   5.166  -4.781  0.00  0.00    -0.286 N 
ATOM      2  C   UNL     1       0.755   5.236  -4.382  0.00  0.00    +0.058 A 
ATOM      3  C   UNL     1       0.369   5.420  -3.061  0.00  0.00    +0.043 A 
ATOM      4  C   UNL     1      -0.815   6.120  -2.867  0.00  0.00    +0.009 A 
ATOM      5  C   UNL     1      -1.844   6.008  -3.792  0.00  0.00    +0.012 A 
ATOM      6  C   UNL     1      -1.528   5.655  -5.095  0.00  0.00    +0.059 A 
ATOM      7 CL   UNL     1      -2.579   6.162  -6.393  0.00  0.00    -0.082 Cl
ATOM      8  S   UNL     1       1.698   5.802  -1.914  0.00  0.00    -0.084 S 
ATOM      9  C   UNL     1       3.041   6.452  -2.915  0.00  0.00    +0.043 A 
ATOM     10  C   UNL     1       3.687   7.628  -2.563  0.00  0.00    +0.008 A 
ATOM     11  C   UNL     1       4.770   8.006  -3.341  0.00  0.00    +0.001 A 
ATOM     12  C   UNL     1       5.047   7.300  -4.505  0.00  0.00    +0.001 A 
ATOM     13  C   UNL     1       4.398   6.106  -4.800  0.00  0.00    +0.015 A 
ATOM     14  C   UNL     1      -0.263   5.132  -5.320  0.00  0.00    +0.027 A 
ATOM     15  C   UNL     1       3.150   5.950  -4.206  0.00  0.00    +0.058 A 
ENDROOT
BRANCH   1  16
ATOM     16  C   UNL     1       2.422   4.399  -5.983  0.00  0.00    +0.097 C 
BRANCH  16  17
ATOM     17  C   UNL     1       2.283   5.310  -7.197  0.00  0.00    +0.039 C 
BRANCH  17  18
ATOM     18  C   UNL     1       2.404   4.464  -8.440  0.00  0.00    +0.074 C 
BRANCH  18  22
ATOM     19  N   UNL     1       1.639   6.152 -12.103  0.00  0.00    -0.268 NA
ATOM     20  C   UNL     1       3.030   6.023 -11.747  0.00  0.00    +0.090 C 
ATOM     21  C   UNL     1       3.251   5.324 -10.437  0.00  0.00    +0.090 C 
ATOM     22  N   UNL     1       2.086   5.310  -9.588  0.00  0.00    -0.270 NA
ATOM     23  C   UNL     1       0.927   4.732 -10.220  0.00  0.00    +0.090 C 
ATOM     24  C   UNL     1       0.836   5.027 -11.690  0.00  0.00    +0.090 C 
BRANCH  19  25
ATOM     25  C   UNL     1       1.591   6.179 -13.565  0.00  0.00    +0.108 C 
BRANCH  25  27
ATOM     26  O   UNL     1       2.455   4.185 -14.588  0.00  0.00    -0.219 OA
ATOM     27  C   UNL     1       1.337   4.736 -13.986  0.00  0.00    +0.199 C 
ENDBRANCH  25  27
ENDBRANCH  19  25
ENDBRANCH  18  22
ENDBRANCH  17  18
ENDBRANCH  16  17
ENDBRANCH   1  16
TORSDOF 6
ENDMDL
MODEL 4
REMARK VINA RESULT:      -8.0      4.540      8.755
REMARK  Name = 
REMARK  6 active torsions:
REMARK  status: ('A' for Active; 'I' for Inactive)
REMARK    1  A    between atoms: C_2  and  C_3
REMARK    2  A    between atoms: C_3  and  N_4
REMARK    3  A    between atoms: N_7  and  C_8
REMARK    4  A    between atoms: C_8  and  C_9
REMARK    5  A    between atoms: C_9  and  C_10
REMARK    6  A    between atoms: C_10  and  N_11
REMARK                            x       y       z     vdW  Elec       q    Type
REMARK                         _______ _______ _______ _____ _____    ______ ____
ROOT
ATOM      1  N   UNL     1       2.872   5.956 -11.331  0.00  0.00    -0.286 N 
ATOM      2  C   UNL     1       4.239   5.717 -11.640  0.00  0.00    +0.058 A 
ATOM      3  C   UNL     1       4.644   5.101 -12.817  0.00  0.00    +0.043 A 
ATOM      4  C   UNL     1       5.874   5.506 -13.322  0.00  0.00    +0.009 A 
ATOM      5  C   UNL     1       6.887   5.883 -12.452  0.00  0.00    +0.012 A 
ATOM      6  C   UNL     1       6.541   6.346 -11.191  0.00  0.00    +0.059 A 
ATOM      7 CL   UNL     1       7.617   7.442 -10.362  0.00  0.00    -0.082 Cl
ATOM      8  S   UNL     1       3.350   4.837 -14.036  0.00  0.00    -0.084 S 
ATOM      9  C   UNL     1       2.049   6.008 -13.633  0.00  0.00    +0.043 A 
ATOM     10  C   UNL     1       1.484   6.810 -14.614  0.00  0.00    +0.008 A 
ATOM     11  C   UNL     1       0.425   7.617 -14.232  0.00  0.00    +0.001 A 
ATOM     12  C   UNL     1       0.095   7.709 -12.886  0.00  0.00    +0.001 A 
ATOM     13  C   UNL     1       0.661   6.859 -11.942  0.00  0.00    +0.015 A 
ATOM     14  C   UNL     1       5.242   6.108 -10.765  0.00  0.00    +0.027 A 
ATOM     15  C   UNL     1       1.898   6.330 -12.290  0.00  0.00    +0.058 A 
ENDROOT
BRANCH   1  16
ATOM     16  C   UNL     1       2.511   6.020  -9.919  0.00  0.00    +0.097 C 
BRANCH  16  17
ATOM     17  C   UNL     1       2.058   4.639  -9.463  0.00  0.00    +0.039 C 
BRANCH  17  18
ATOM     18  C   UNL     1       2.976   4.182  -8.357  0.00  0.00    +0.074 C 
BRANCH  18  22
ATOM     19  N   UNL     1       2.527   5.846  -4.630  0.00  0.00    -0.268 NA
ATOM     20  C   UNL     1       1.538   4.867  -5.007  0.00  0.00    +0.090 C 
ATOM     21  C   UNL     1       1.800   4.233  -6.342  0.00  0.00    +0.090 C 
ATOM     22  N   UNL     1       2.692   4.997  -7.177  0.00  0.00    -0.270 NA
ATOM     23  C   UNL     1       3.960   5.276  -6.551  0.00  0.00    +0.090 C 
ATOM     24  C   UNL     1       3.859   5.513  -5.071  0.00  0.00    +0.090 C 
BRANCH  19  25
ATOM     25  C   UNL     1       2.565   5.850  -3.168  0.00  0.00    +0.108 C 
BRANCH  25  27
ATOM     26  O   UNL     1       3.985   5.008  -1.423  0.00  0.00    -0.219 OA
ATOM     27  C   UNL     1       3.813   5.057  -2.796  0.00  0.00    +0.199 C 
ENDBRANCH  25  27
ENDBRANCH  19  25
ENDBRANCH  18  22
ENDBRANCH  17  18
ENDBRANCH  16  17
ENDBRANCH   1  16
TORSDOF 6
ENDMDL
MODEL 5
REMARK VINA RESULT:      -7.9      2.408      3.179
REMARK  Name = 
REMARK  6 active torsions:
REMARK  status: ('A' for Active; 'I' for Inactive)
REMARK    1  A    between atoms: C_2  and  C_3
REMARK    2  A    between atoms: C_3  and  N_4
REMARK    3  A    between atoms: N_7  and  C_8
REMARK    4  A    between atoms: C_8  and  C_9
REMARK    5  A    between atoms: C_9  and  C_10
REMARK    6  A    between atoms: C_10  and  N_11
REMARK                            x       y       z     vdW  Elec       q    Type
REMARK                         _______ _______ _______ _____ _____    ______ ____
ROOT
ATOM      1  N   UNL     1       2.033   5.047  -4.830  0.00  0.00    -0.286 N 
ATOM      2  C   UNL     1       0.676   5.219  -4.443  0.00  0.00    +0.058 A 
ATOM      3  C   UNL     1       0.301   5.553  -3.148  0.00  0.00    +0.043 A 
ATOM      4  C   UNL     1      -0.849   6.323  -3.029  0.00  0.00    +0.009 A 
ATOM      5  C   UNL     1      -1.884   6.164  -3.940  0.00  0.00    +0.012 A 
ATOM      6  C   UNL     1      -1.588   5.667  -5.200  0.00  0.00    +0.059 A 
ATOM      7 CL   UNL     1      -2.618   6.087  -6.545  0.00  0.00    -0.082 Cl
ATOM      8  S   UNL     1       1.649   5.989  -2.043  0.00  0.00    -0.084 S 
ATOM      9  C   UNL     1       3.018   6.473  -3.102  0.00  0.00    +0.043 A 
ATOM     10  C   UNL     1       3.718   7.647  -2.870  0.00  0.00    +0.008 A 
ATOM     11  C   UNL     1       4.815   7.894  -3.679  0.00  0.00    +0.001 A 
ATOM     12  C   UNL     1       5.057   7.062  -4.765  0.00  0.00    +0.001 A 
ATOM     13  C   UNL     1       4.353   5.876  -4.938  0.00  0.00    +0.015 A 
ATOM     14  C   UNL     1      -0.348   5.067  -5.368  0.00  0.00    +0.027 A 
ATOM     15  C   UNL     1       3.101   5.837  -4.335  0.00  0.00    +0.058 A 
ENDROOT
BRANCH   1  16
ATOM     16  C   UNL     1       2.299   4.149  -5.947  0.00  0.00    +0.097 C 
BRANCH  16  17
ATOM     17  C   UNL     1       2.426   4.974  -7.222  0.00  0.00    +0.039 C 
BRANCH  17  18
ATOM     18  C   UNL     1       3.311   4.222  -8.186  0.00  0.00    +0.074 C 
BRANCH  18  22
ATOM     19  N   UNL     1       1.574   5.588 -11.646  0.00  0.00    -0.268 NA
ATOM     20  C   UNL     1       0.698   4.901 -10.730  0.00  0.00    +0.090 C 
ATOM     21  C   UNL     1       1.367   4.499  -9.448  0.00  0.00    +0.090 C 
ATOM     22  N   UNL     1       2.806   4.464  -9.535  0.00  0.00    -0.270 NA
ATOM     23  C   UNL     1       3.381   5.710  -9.976  0.00  0.00    +0.090 C 
ATOM     24  C   UNL     1       2.541   6.433 -10.989  0.00  0.00    +0.090 C 
BRANCH  19  25
ATOM     25  C   UNL     1       0.724   6.473 -12.442  0.00  0.00    +0.108 C 
BRANCH  25  27
ATOM     26  O   UNL     1      -0.613   8.231 -11.496  0.00  0.00    -0.219 OA
ATOM     27  C   UNL     1      -0.427   6.859 -11.519  0.00  0.00    +0.199 C 
ENDBRANCH  25  27
ENDBRANCH  19  25
ENDBRANCH  18  22
ENDBRANCH  17  18
ENDBRANCH  16  17
ENDBRANCH   1  16
TORSDOF 6
ENDMDL
MODEL 6
REMARK VINA RESULT:      -7.6      1.573      2.092
REMARK  Name = 
REMARK  6 active torsions:
REMARK  status: ('A' for Active; 'I' for Inactive)
REMARK    1  A    between atoms: C_2  and  C_3
REMARK    2  A    between atoms: C_3  and  N_4
REMARK    3  A    between atoms: N_7  and  C_8
REMARK    4  A    between atoms: C_8  and  C_9
REMARK    5  A    between atoms: C_9  and  C_10
REMARK    6  A    between atoms: C_10  and  N_11
REMARK                            x       y       z     vdW  Elec       q    Type
REMARK                         _______ _______ _______ _____ _____    ______ ____
ROOT
ATOM      1  N   UNL     1       1.699   6.500  -4.404  0.00  0.00    -0.286 N 
ATOM      2  C   UNL     1       0.344   6.115  -4.218  0.00  0.00    +0.058 A 
ATOM      3  C   UNL     1      -0.072   5.326  -3.153  0.00  0.00    +0.043 A 
ATOM      4  C   UNL     1      -1.359   5.565  -2.688  0.00  0.00    +0.009 A 
ATOM      5  C   UNL     1      -2.351   5.964  -3.573  0.00  0.00    +0.012 A 
ATOM      6  C   UNL     1      -1.976   6.607  -4.743  0.00  0.00    +0.059 A 
ATOM      7 CL   UNL     1      -3.095   7.708  -5.506  0.00  0.00    -0.082 Cl
ATOM      8  S   UNL     1       1.169   5.017  -1.891  0.00  0.00    -0.084 S 
ATOM      9  C   UNL     1       2.382   6.331  -2.061  0.00  0.00    +0.043 A 
ATOM     10  C   UNL     1       2.817   7.047  -0.956  0.00  0.00    +0.008 A 
ATOM     11  C   UNL     1       3.821   7.978  -1.167  0.00  0.00    +0.001 A 
ATOM     12  C   UNL     1       4.218   8.264  -2.467  0.00  0.00    +0.001 A 
ATOM     13  C   UNL     1       3.784   7.495  -3.542  0.00  0.00    +0.015 A 
ATOM     14  C   UNL     1      -0.639   6.530  -5.106  0.00  0.00    +0.027 A 
ATOM     15  C   UNL     1       2.580   6.829  -3.343  0.00  0.00    +0.058 A 
ENDROOT
BRANCH   1  16
ATOM     16  C   UNL     1       2.133   6.769  -5.770  0.00  0.00    +0.097 C 
BRANCH  16  17
ATOM     17  C   UNL     1       2.726   5.495  -6.358  0.00  0.00    +0.039 C 
BRANCH  17  18
ATOM     18  C   UNL     1       4.116   5.806  -6.856  0.00  0.00    +0.074 C 
BRANCH  18  22
ATOM     19  N   UNL     1       4.695   5.531 -10.911  0.00  0.00    -0.268 NA
ATOM     20  C   UNL     1       3.616   6.387 -10.485  0.00  0.00    +0.090 C 
ATOM     21  C   UNL     1       3.505   6.515  -8.994  0.00  0.00    +0.090 C 
ATOM     22  N   UNL     1       4.170   5.458  -8.274  0.00  0.00    -0.270 NA
ATOM     23  C   UNL     1       5.564   5.325  -8.616  0.00  0.00    +0.090 C 
ATOM     24  C   UNL     1       5.857   5.610 -10.061  0.00  0.00    +0.090 C 
BRANCH  19  25
ATOM     25  C   UNL     1       5.111   6.019 -12.226  0.00  0.00    +0.108 C 
BRANCH  25  27
ATOM     26  O   UNL     1       3.691   5.559 -14.108  0.00  0.00    -0.219 OA
ATOM     27  C   UNL     1       4.587   4.989 -13.220  0.00  0.00    +0.199 C 
ENDBRANCH  25  27
ENDBRANCH  19  25
ENDBRANCH  18  22
ENDBRANCH  17  18
ENDBRANCH  16  17
ENDBRANCH   1  16
TORSDOF 6
ENDMDL
MODEL 7
REMARK VINA RESULT:      -7.3      3.113      4.767
REMARK  Name = 
REMARK  6 active torsions:
REMARK  status: ('A' for Active; 'I' for Inactive)
REMARK    1  A    between atoms: C_2  and  C_3
REMARK    2  A    between atoms: C_3  and  N_4
REMARK    3  A    between atoms: N_7  and  C_8
REMARK    4  A    between atoms: C_8  and  C_9
REMARK    5  A    between atoms: C_9  and  C_10
REMARK    6  A    between atoms: C_10  and  N_11
REMARK                            x       y       z     vdW  Elec       q    Type
REMARK                         _______ _______ _______ _____ _____    ______ ____
ROOT
ATOM      1  N   UNL     1       1.224   6.188  -0.689  0.00  0.00    -0.286 N 
ATOM      2  C   UNL     1      -0.126   6.035  -1.110  0.00  0.00    +0.058 A 
ATOM      3  C   UNL     1      -1.203   6.478  -0.353  0.00  0.00    +0.043 A 
ATOM      4  C   UNL     1      -2.316   6.898  -1.069  0.00  0.00    +0.009 A 
ATOM      5  C   UNL     1      -2.631   6.289  -2.276  0.00  0.00    +0.012 A 
ATOM      6  C   UNL     1      -1.615   5.676  -2.994  0.00  0.00    +0.059 A 
ATOM      7 CL   UNL     1      -1.763   5.535  -4.727  0.00  0.00    -0.082 Cl
ATOM      8  S   UNL     1      -0.779   7.472   1.083  0.00  0.00    -0.084 S 
ATOM      9  C   UNL     1       0.865   8.123   0.764  0.00  0.00    +0.043 A 
ATOM     10  C   UNL     1       1.144   9.470   0.942  0.00  0.00    +0.008 A 
ATOM     11  C   UNL     1       2.459   9.868   0.761  0.00  0.00    +0.001 A 
ATOM     12  C   UNL     1       3.379   8.956   0.260  0.00  0.00    +0.001 A 
ATOM     13  C   UNL     1       3.066   7.607   0.131  0.00  0.00    +0.015 A 
ATOM     14  C   UNL     1      -0.424   5.432  -2.324  0.00  0.00    +0.027 A 
ATOM     15  C   UNL     1       1.710   7.325   0.003  0.00  0.00    +0.058 A 
ENDROOT
BRANCH   1  16
ATOM     16  C   UNL     1       2.190   5.215  -1.184  0.00  0.00    +0.097 C 
BRANCH  16  17
ATOM     17  C   UNL     1       2.725   5.693  -2.529  0.00  0.00    +0.039 C 
BRANCH  17  18
ATOM     18  C   UNL     1       3.908   4.832  -2.900  0.00  0.00    +0.074 C 
BRANCH  18  22
ATOM     19  N   UNL     1       3.898   5.723  -6.908  0.00  0.00    -0.268 NA
ATOM     20  C   UNL     1       2.763   4.977  -6.425  0.00  0.00    +0.090 C 
ATOM     21  C   UNL     1       2.779   4.754  -4.941  0.00  0.00    +0.090 C 
ATOM     22  N   UNL     1       4.083   4.917  -4.348  0.00  0.00    -0.270 NA
ATOM     23  C   UNL     1       4.676   6.202  -4.620  0.00  0.00    +0.090 C 
ATOM     24  C   UNL     1       4.352   6.735  -5.986  0.00  0.00    +0.090 C 
BRANCH  19  25
ATOM     25  C   UNL     1       3.446   6.428  -8.107  0.00  0.00    +0.108 C 
BRANCH  25  27
ATOM     26  O   UNL     1       2.086   8.395  -7.882  0.00  0.00    -0.219 OA
ATOM     27  C   UNL     1       2.090   7.018  -7.738  0.00  0.00    +0.199 C 
ENDBRANCH  25  27
ENDBRANCH  19  25
ENDBRANCH  18  22
ENDBRANCH  17  18
ENDBRANCH  16  17
ENDBRANCH   1  16
TORSDOF 6
ENDMDL
MODEL 8
REMARK VINA RESULT:      -7.2      2.354      3.976
REMARK  Name = 
REMARK  6 active torsions:
REMARK  status: ('A' for Active; 'I' for Inactive)
REMARK    1  A    between atoms: C_2  and  C_3
REMARK    2  A    between atoms: C_3  and  N_4
REMARK    3  A    between atoms: N_7  and  C_8
REMARK    4  A    between atoms: C_8  and  C_9
REMARK    5  A    between atoms: C_9  and  C_10
REMARK    6  A    between atoms: C_10  and  N_11
REMARK                            x       y       z     vdW  Elec       q    Type
REMARK                         _______ _______ _______ _____ _____    ______ ____
ROOT
ATOM      1  N   UNL     1       1.286   6.485  -4.669  0.00  0.00    -0.286 N 
ATOM      2  C   UNL     1       1.316   6.269  -3.264  0.00  0.00    +0.058 A 
ATOM      3  C   UNL     1       0.230   6.534  -2.441  0.00  0.00    +0.043 A 
ATOM      4  C   UNL     1       0.099   5.716  -1.326  0.00  0.00    +0.009 A 
ATOM      5  C   UNL     1       1.232   5.220  -0.696  0.00  0.00    +0.012 A 
ATOM      6  C   UNL     1       2.400   5.096  -1.434  0.00  0.00    +0.059 A 
ATOM      7 CL   UNL     1       3.578   3.897  -0.967  0.00  0.00    -0.082 Cl
ATOM      8  S   UNL     1      -1.300   6.945  -3.290  0.00  0.00    -0.084 S 
ATOM      9  C   UNL     1      -1.135   6.279  -4.950  0.00  0.00    +0.043 A 
ATOM     10  C   UNL     1      -2.147   5.516  -5.515  0.00  0.00    +0.008 A 
ATOM     11  C   UNL     1      -1.975   5.121  -6.832  0.00  0.00    +0.001 A 
ATOM     12  C   UNL     1      -0.756   5.358  -7.456  0.00  0.00    +0.001 A 
ATOM     13  C   UNL     1       0.216   6.159  -6.866  0.00  0.00    +0.015 A 
ATOM     14  C   UNL     1       2.454   5.763  -2.650  0.00  0.00    +0.027 A 
ATOM     15  C   UNL     1       0.149   6.246  -5.480  0.00  0.00    +0.058 A 
ENDROOT
BRANCH   1  16
ATOM     16  C   UNL     1       2.556   6.767  -5.327  0.00  0.00    +0.097 C 
BRANCH  16  17
ATOM     17  C   UNL     1       3.065   5.489  -5.983  0.00  0.00    +0.039 C 
BRANCH  17  18
ATOM     18  C   UNL     1       4.407   5.781  -6.608  0.00  0.00    +0.074 C 
BRANCH  18  22
ATOM     19  N   UNL     1       4.551   5.448 -10.698  0.00  0.00    -0.268 NA
ATOM     20  C   UNL     1       3.449   6.211 -10.166  0.00  0.00    +0.090 C 
ATOM     21  C   UNL     1       3.495   6.370  -8.674  0.00  0.00    +0.090 C 
ATOM     22  N   UNL     1       4.334   5.400  -8.017  0.00  0.00    -0.270 NA
ATOM     23  C   UNL     1       5.687   5.388  -8.513  0.00  0.00    +0.090 C 
ATOM     24  C   UNL     1       5.788   5.657  -9.988  0.00  0.00    +0.090 C 
BRANCH  19  25
ATOM     25  C   UNL     1       4.767   5.935 -12.060  0.00  0.00    +0.108 C 
BRANCH  25  27
ATOM     26  O   UNL     1       6.133   5.007 -13.805  0.00  0.00    -0.219 OA
ATOM     27  C   UNL     1       6.127   5.382 -12.472  0.00  0.00    +0.199 C 
ENDBRANCH  25  27
ENDBRANCH  19  25
ENDBRANCH  18  22
ENDBRANCH  17  18
ENDBRANCH  16  17
ENDBRANCH   1  16
TORSDOF 6
ENDMDL
MODEL 9
REMARK VINA RESULT:      -7.2      3.190      4.955
REMARK  Name = 
REMARK  6 active torsions:
REMARK  status: ('A' for Active; 'I' for Inactive)
REMARK    1  A    between atoms: C_2  and  C_3
REMARK    2  A    between atoms: C_3  and  N_4
REMARK    3  A    between atoms: N_7  and  C_8
REMARK    4  A    between atoms: C_8  and  C_9
REMARK    5  A    between atoms: C_9  and  C_10
REMARK    6  A    between atoms: C_10  and  N_11
REMARK                            x       y       z     vdW  Elec       q    Type
REMARK                         _______ _______ _______ _____ _____    ______ ____
ROOT
ATOM      1  N   UNL     1       0.648   6.710  -4.589  0.00  0.00    -0.286 N 
ATOM      2  C   UNL     1       1.740   6.355  -3.751  0.00  0.00    +0.058 A 
ATOM      3  C   UNL     1       1.646   6.332  -2.365  0.00  0.00    +0.043 A 
ATOM      4  C   UNL     1       2.436   5.390  -1.719  0.00  0.00    +0.009 A 
ATOM      5  C   UNL     1       3.671   5.042  -2.251  0.00  0.00    +0.012 A 
ATOM      6  C   UNL     1       3.877   5.209  -3.612  0.00  0.00    +0.059 A 
ATOM      7 CL   UNL     1       5.044   4.199  -4.427  0.00  0.00    -0.082 Cl
ATOM      8  S   UNL     1      -0.010   6.548  -1.701  0.00  0.00    -0.084 S 
ATOM      9  C   UNL     1      -1.135   6.102  -3.028  0.00  0.00    +0.043 A 
ATOM     10  C   UNL     1      -2.194   5.233  -2.804  0.00  0.00    +0.008 A 
ATOM     11  C   UNL     1      -3.064   5.018  -3.860  0.00  0.00    +0.001 A 
ATOM     12  C   UNL     1      -2.751   5.535  -5.111  0.00  0.00    +0.001 A 
ATOM     13  C   UNL     1      -1.702   6.431  -5.283  0.00  0.00    +0.015 A 
ATOM     14  C   UNL     1       2.965   6.000  -4.298  0.00  0.00    +0.027 A 
ATOM     15  C   UNL     1      -0.699   6.357  -4.322  0.00  0.00    +0.058 A 
ENDROOT
BRANCH   1  16
ATOM     16  C   UNL     1       0.966   7.284  -5.891  0.00  0.00    +0.097 C 
BRANCH  16  17
ATOM     17  C   UNL     1       0.977   6.171  -6.931  0.00  0.00    +0.039 C 
BRANCH  17  18
ATOM     18  C   UNL     1       2.024   6.501  -7.966  0.00  0.00    +0.074 C 
BRANCH  18  22
ATOM     19  N   UNL     1       0.667   5.487 -11.707  0.00  0.00    -0.268 NA
ATOM     20  C   UNL     1       1.985   6.069 -11.650  0.00  0.00    +0.090 C 
ATOM     21  C   UNL     1       2.462   6.341 -10.253  0.00  0.00    +0.090 C 
ATOM     22  N   UNL     1       1.397   6.397  -9.282  0.00  0.00    -0.270 NA
ATOM     23  C   UNL     1       0.583   5.208  -9.260  0.00  0.00    +0.090 C 
ATOM     24  C   UNL     1       0.392   4.587 -10.615  0.00  0.00    +0.090 C 
BRANCH  19  25
ATOM     25  C   UNL     1       0.625   4.683 -12.927  0.00  0.00    +0.108 C 
BRANCH  25  27
ATOM     26  O   UNL     1       2.332   4.046 -14.493  0.00  0.00    -0.219 OA
ATOM     27  C   UNL     1       1.861   5.094 -13.721  0.00  0.00    +0.199 C 
ENDBRANCH  25  27
ENDBRANCH  19  25
ENDBRANCH  18  22
ENDBRANCH  17  18
ENDBRANCH  16  17
ENDBRANCH   1  16
TORSDOF 6
ENDMDL
