MODEL 1
REMARK VINA RESULT:      -7.7      0.000      0.000
REMARK  Name = 
REMARK  1 active torsions:
REMARK  status: ('A' for Active; 'I' for Inactive)
REMARK    1  A    between atoms: O_2  and  C_3
REMARK                            x       y       z     vdW  Elec       q    Type
REMARK                         _______ _______ _______ _____ _____    ______ ____
ROOT
ATOM      1  C   UNL     1      -0.845   5.428  -4.598  0.00  0.00    +0.172 A 
ATOM      2  C   UNL     1       0.541   5.399  -4.419  0.00  0.00    +0.168 A 
ATOM      3  O   UNL     1       1.291   5.892  -3.343  0.00  0.00    -0.476 OA
ATOM      4  C   UNL     1       2.133   7.025  -3.991  0.00  0.00    +0.176 C 
ATOM      5  C   UNL     1       2.653   5.971  -5.122  0.00  0.00    +0.078 C 
ATOM      6  C   UNL     1       3.128   6.724  -6.363  0.00  0.00    +0.029 C 
ATOM      7  C   UNL     1       3.562   5.509  -7.202  0.00  0.00    +0.073 C 
ATOM      8  N   UNL     1       2.627   5.114  -8.180  0.00  0.00    -0.268 NA
ATOM      9  C   UNL     1       1.329   5.695  -8.083  0.00  0.00    +0.099 C 
ATOM     10  C   UNL     1       0.709   5.427  -6.744  0.00  0.00    -0.007 A 
ATOM     11  C   UNL     1      -0.583   5.929  -6.869  0.00  0.00    +0.000 A 
ATOM     12  C   UNL     1       2.484   3.698  -8.410  0.00  0.00    +0.090 C 
ATOM     13  C   UNL     1       3.834   5.302  -4.749  0.00  0.00    -0.021 C 
ATOM     14  C   UNL     1       4.891   6.147  -4.589  0.00  0.00    +0.002 C 
ATOM     15  C   UNL     1       4.442   7.560  -3.894  0.00  0.00    +0.177 C 
ATOM     16  O   UNL     1       5.552   7.481  -2.848  0.00  0.00    -0.218 OA
ATOM     17  C   UNL     1       3.368   6.757  -2.918  0.00  0.00    +0.082 C 
ATOM     18  C   UNL     1       1.393   5.394  -5.524  0.00  0.00    +0.019 A 
ATOM     19  C   UNL     1      -1.406   5.905  -5.779  0.00  0.00    +0.040 A 
ENDROOT
BRANCH   1  21
ATOM     20  C   UNL     1      -2.997   5.401  -3.450  0.00  0.00    +0.253 C 
ATOM     21  O   UNL     1      -1.695   5.158  -3.547  0.00  0.00    -0.468 OA
ENDBRANCH   1  21
TORSDOF 1
ENDMDL
MODEL 2
REMARK VINA RESULT:      -7.5      5.424      7.351
REMARK  Name = 
REMARK  1 active torsions:
REMARK  status: ('A' for Active; 'I' for Inactive)
REMARK    1  A    between atoms: O_2  and  C_3
REMARK                            x       y       z     vdW  Elec       q    Type
REMARK                         _______ _______ _______ _____ _____    ______ ____
ROOT
ATOM      1  C   UNL     1       1.137   5.600 -12.968  0.00  0.00    +0.172 A 
ATOM      2  C   UNL     1       2.375   6.106 -12.562  0.00  0.00    +0.168 A 
ATOM      3  O   UNL     1       3.580   6.139 -13.276  0.00  0.00    -0.476 OA
ATOM      4  C   UNL     1       4.508   5.212 -12.444  0.00  0.00    +0.176 C 
ATOM      5  C   UNL     1       4.157   6.085 -11.110  0.00  0.00    +0.078 C 
ATOM      6  C   UNL     1       4.419   5.255  -9.855  0.00  0.00    +0.029 C 
ATOM      7  C   UNL     1       4.035   6.316  -8.809  0.00  0.00    +0.073 C 
ATOM      8  N   UNL     1       2.743   6.158  -8.267  0.00  0.00    -0.268 NA
ATOM      9  C   UNL     1       1.888   5.235  -8.937  0.00  0.00    +0.099 C 
ATOM     10  C   UNL     1       1.720   5.596 -10.383  0.00  0.00    -0.007 A 
ATOM     11  C   UNL     1       0.762   4.697 -10.842  0.00  0.00    +0.000 A 
ATOM     12  C   UNL     1       2.000   7.362  -7.993  0.00  0.00    +0.090 C 
ATOM     13  C   UNL     1       5.043   7.160 -10.908  0.00  0.00    -0.021 C 
ATOM     14  C   UNL     1       6.326   6.754 -10.696  0.00  0.00    +0.002 C 
ATOM     15  C   UNL     1       6.722   5.472 -11.635  0.00  0.00    +0.177 C 
ATOM     16  O   UNL     1       8.008   6.138 -12.125  0.00  0.00    -0.218 OA
ATOM     17  C   UNL     1       5.837   6.098 -12.890  0.00  0.00    +0.082 C 
ATOM     18  C   UNL     1       2.718   6.125 -11.209  0.00  0.00    +0.019 A 
ATOM     19  C   UNL     1       0.427   4.711 -12.166  0.00  0.00    +0.040 A 
ENDROOT
BRANCH   1  21
ATOM     20  C   UNL     1       0.577   6.973 -14.904  0.00  0.00    +0.253 C 
ATOM     21  O   UNL     1       0.672   5.823 -14.246  0.00  0.00    -0.468 OA
ENDBRANCH   1  21
TORSDOF 1
ENDMDL
MODEL 3
REMARK VINA RESULT:      -7.5      4.138      6.744
REMARK  Name = 
REMARK  1 active torsions:
REMARK  status: ('A' for Active; 'I' for Inactive)
REMARK    1  A    between atoms: O_2  and  C_3
REMARK                            x       y       z     vdW  Elec       q    Type
REMARK                         _______ _______ _______ _____ _____    ______ ____
ROOT
ATOM      1  C   UNL     1       4.838   6.408 -11.813  0.00  0.00    +0.172 A 
ATOM      2  C   UNL     1       4.092   6.388 -10.631  0.00  0.00    +0.168 A 
ATOM      3  O   UNL     1       4.499   5.994  -9.349  0.00  0.00    -0.476 OA
ATOM      4  C   UNL     1       3.615   4.748  -9.067  0.00  0.00    +0.176 C 
ATOM      5  C   UNL     1       2.289   5.627  -9.426  0.00  0.00    +0.078 C 
ATOM      6  C   UNL     1       1.137   4.704  -9.818  0.00  0.00    +0.029 C 
ATOM      7  C   UNL     1       0.067   5.783 -10.063  0.00  0.00    +0.073 C 
ATOM      8  N   UNL     1      -0.136   6.103 -11.421  0.00  0.00    -0.268 NA
ATOM      9  C   UNL     1       0.835   5.604 -12.338  0.00  0.00    +0.099 C 
ATOM     10  C   UNL     1       2.216   6.066 -11.977  0.00  0.00    -0.007 A 
ATOM     11  C   UNL     1       3.004   5.619 -13.033  0.00  0.00    +0.000 A 
ATOM     12  C   UNL     1      -0.400   7.485 -11.733  0.00  0.00    +0.090 C 
ATOM     13  C   UNL     1       1.739   6.276  -8.304  0.00  0.00    -0.021 C 
ATOM     14  C   UNL     1       1.298   5.404  -7.353  0.00  0.00    +0.002 C 
ATOM     15  C   UNL     1       2.293   4.112  -7.204  0.00  0.00    +0.177 C 
ATOM     16  O   UNL     1       2.376   4.263  -5.685  0.00  0.00    -0.218 OA
ATOM     17  C   UNL     1       3.616   5.083  -7.443  0.00  0.00    +0.082 C 
ATOM     18  C   UNL     1       2.708   6.214 -10.675  0.00  0.00    +0.019 A 
ATOM     19  C   UNL     1       4.354   5.819 -12.977  0.00  0.00    +0.040 A 
ENDROOT
BRANCH   1  21
ATOM     20  C   UNL     1       6.632   7.992 -11.345  0.00  0.00    +0.253 C 
ATOM     21  O   UNL     1       6.144   6.848 -11.811  0.00  0.00    -0.468 OA
ENDBRANCH   1  21
TORSDOF 1
ENDMDL
MODEL 4
REMARK VINA RESULT:      -7.5      2.509      4.275
REMARK  Name = 
REMARK  1 active torsions:
REMARK  status: ('A' for Active; 'I' for Inactive)
REMARK    1  A    between atoms: O_2  and  C_3
REMARK                            x       y       z     vdW  Elec       q    Type
REMARK                         _______ _______ _______ _____ _____    ______ ____
ROOT
ATOM      1  C   UNL     1       1.121   6.204  -9.043  0.00  0.00    +0.172 A 
ATOM      2  C   UNL     1       1.774   6.395  -7.822  0.00  0.00    +0.168 A 
ATOM      3  O   UNL     1       3.114   6.141  -7.501  0.00  0.00    -0.476 OA
ATOM      4  C   UNL     1       3.013   5.013  -6.437  0.00  0.00    +0.176 C 
ATOM      5  C   UNL     1       1.979   5.938  -5.578  0.00  0.00    +0.078 C 
ATOM      6  C   UNL     1       1.137   5.062  -4.652  0.00  0.00    +0.029 C 
ATOM      7  C   UNL     1       0.313   6.179  -3.987  0.00  0.00    +0.073 C 
ATOM      8  N   UNL     1      -0.986   6.335  -4.511  0.00  0.00    -0.268 NA
ATOM      9  C   UNL     1      -1.260   5.648  -5.731  0.00  0.00    +0.099 C 
ATOM     10  C   UNL     1      -0.297   6.047  -6.810  0.00  0.00    -0.007 A 
ATOM     11  C   UNL     1      -0.786   5.407  -7.945  0.00  0.00    +0.000 A 
ATOM     12  C   UNL     1      -1.490   7.681  -4.614  0.00  0.00    +0.090 C 
ATOM     13  C   UNL     1       2.628   6.767  -4.644  0.00  0.00    -0.021 C 
ATOM     14  C   UNL     1       3.297   6.062  -3.688  0.00  0.00    +0.002 C 
ATOM     15  C   UNL     1       4.016   4.727  -4.307  0.00  0.00    +0.177 C 
ATOM     16  O   UNL     1       5.359   5.067  -3.662  0.00  0.00    -0.218 OA
ATOM     17  C   UNL     1       4.393   5.554  -5.695  0.00  0.00    +0.082 C 
ATOM     18  C   UNL     1       1.062   6.324  -6.623  0.00  0.00    +0.019 A 
ATOM     19  C   UNL     1      -0.082   5.509  -9.111  0.00  0.00    +0.040 A 
ENDROOT
BRANCH   1  21
ATOM     20  C   UNL     1       2.499   5.783 -11.010  0.00  0.00    +0.253 C 
ATOM     21  O   UNL     1       1.737   6.540 -10.229  0.00  0.00    -0.468 OA
ENDBRANCH   1  21
TORSDOF 1
ENDMDL
MODEL 5
REMARK VINA RESULT:      -7.4      1.343      4.677
REMARK  Name = 
REMARK  1 active torsions:
REMARK  status: ('A' for Active; 'I' for Inactive)
REMARK    1  A    between atoms: O_2  and  C_3
REMARK                            x       y       z     vdW  Elec       q    Type
REMARK                         _______ _______ _______ _____ _____    ______ ____
ROOT
ATOM      1  C   UNL     1       3.752   6.086  -3.066  0.00  0.00    +0.172 A 
ATOM      2  C   UNL     1       2.459   6.472  -3.432  0.00  0.00    +0.168 A 
ATOM      3  O   UNL     1       1.300   6.495  -2.644  0.00  0.00    -0.476 OA
ATOM      4  C   UNL     1       0.390   5.436  -3.325  0.00  0.00    +0.176 C 
ATOM      5  C   UNL     1       0.597   6.200  -4.752  0.00  0.00    +0.078 C 
ATOM      6  C   UNL     1       0.317   5.240  -5.907  0.00  0.00    +0.029 C 
ATOM      7  C   UNL     1       0.562   6.220  -7.068  0.00  0.00    +0.073 C 
ATOM      8  N   UNL     1       1.826   6.095  -7.679  0.00  0.00    -0.268 NA
ATOM      9  C   UNL     1       2.783   5.296  -6.988  0.00  0.00    +0.099 C 
ATOM     10  C   UNL     1       3.013   5.802  -5.594  0.00  0.00    -0.007 A 
ATOM     11  C   UNL     1       4.058   5.012  -5.122  0.00  0.00    +0.000 A 
ATOM     12  C   UNL     1       2.465   7.313  -8.110  0.00  0.00    +0.090 C 
ATOM     13  C   UNL     1      -0.372   7.193  -4.990  0.00  0.00    -0.021 C 
ATOM     14  C   UNL     1      -1.635   6.687  -5.078  0.00  0.00    +0.002 C 
ATOM     15  C   UNL     1      -1.882   5.477  -4.003  0.00  0.00    +0.177 C 
ATOM     16  O   UNL     1      -3.179   6.103  -3.490  0.00  0.00    -0.218 OA
ATOM     17  C   UNL     1      -0.967   6.273  -2.871  0.00  0.00    +0.082 C 
ATOM     18  C   UNL     1       2.033   6.342  -4.754  0.00  0.00    +0.019 A 
ATOM     19  C   UNL     1       4.471   5.173  -3.830  0.00  0.00    +0.040 A 
ENDROOT
BRANCH   1  21
ATOM     20  C   UNL     1       4.263   5.790  -0.700  0.00  0.00    +0.253 C 
ATOM     21  O   UNL     1       4.277   6.459  -1.847  0.00  0.00    -0.468 OA
ENDBRANCH   1  21
TORSDOF 1
ENDMDL
MODEL 6
REMARK VINA RESULT:      -7.4      2.220      4.124
REMARK  Name = 
REMARK  1 active torsions:
REMARK  status: ('A' for Active; 'I' for Inactive)
REMARK    1  A    between atoms: O_2  and  C_3
REMARK                            x       y       z     vdW  Elec       q    Type
REMARK                         _______ _______ _______ _____ _____    ______ ____
ROOT
ATOM      1  C   UNL     1      -0.429   5.824  -2.918  0.00  0.00    +0.172 A 
ATOM      2  C   UNL     1       0.354   5.988  -4.065  0.00  0.00    +0.168 A 
ATOM      3  O   UNL     1       0.045   5.645  -5.388  0.00  0.00    -0.476 OA
ATOM      4  C   UNL     1       1.091   4.545  -5.719  0.00  0.00    +0.176 C 
ATOM      5  C   UNL     1       2.281   5.554  -5.241  0.00  0.00    +0.078 C 
ATOM      6  C   UNL     1       3.527   4.756  -4.865  0.00  0.00    +0.029 C 
ATOM      7  C   UNL     1       4.440   5.939  -4.496  0.00  0.00    +0.073 C 
ATOM      8  N   UNL     1       4.554   6.177  -3.111  0.00  0.00    -0.268 NA
ATOM      9  C   UNL     1       3.623   5.492  -2.276  0.00  0.00    +0.099 C 
ATOM     10  C   UNL     1       2.208   5.803  -2.664  0.00  0.00    -0.007 A 
ATOM     11  C   UNL     1       1.448   5.181  -1.678  0.00  0.00    +0.000 A 
ATOM     12  C   UNL     1       4.627   7.553  -2.691  0.00  0.00    +0.090 C 
ATOM     13  C   UNL     1       2.780   6.351  -6.288  0.00  0.00    -0.021 C 
ATOM     14  C   UNL     1       3.363   5.616  -7.278  0.00  0.00    +0.002 C 
ATOM     15  C   UNL     1       2.548   4.224  -7.562  0.00  0.00    +0.177 C 
ATOM     16  O   UNL     1       2.499   4.479  -9.069  0.00  0.00    -0.218 OA
ATOM     17  C   UNL     1       1.103   5.000  -7.313  0.00  0.00    +0.082 C 
ATOM     18  C   UNL     1       1.747   5.987  -3.972  0.00  0.00    +0.019 A 
ATOM     19  C   UNL     1       0.086   5.213  -1.779  0.00  0.00    +0.040 A 
ENDROOT
BRANCH   1  21
ATOM     20  C   UNL     1      -2.787   5.266  -3.195  0.00  0.00    +0.253 C 
ATOM     21  O   UNL     1      -1.780   6.095  -2.946  0.00  0.00    -0.468 OA
ENDBRANCH   1  21
TORSDOF 1
ENDMDL
MODEL 7
REMARK VINA RESULT:      -7.3      2.425      4.604
REMARK  Name = 
REMARK  1 active torsions:
REMARK  status: ('A' for Active; 'I' for Inactive)
REMARK    1  A    between atoms: O_2  and  C_3
REMARK                            x       y       z     vdW  Elec       q    Type
REMARK                         _______ _______ _______ _____ _____    ______ ____
ROOT
ATOM      1  C   UNL     1       0.697   5.846  -8.614  0.00  0.00    +0.172 A 
ATOM      2  C   UNL     1       0.375   5.512  -7.295  0.00  0.00    +0.168 A 
ATOM      3  O   UNL     1      -0.891   5.422  -6.703  0.00  0.00    -0.476 OA
ATOM      4  C   UNL     1      -0.862   6.552  -5.637  0.00  0.00    +0.176 C 
ATOM      5  C   UNL     1       0.524   5.931  -5.040  0.00  0.00    +0.078 C 
ATOM      6  C   UNL     1       1.289   7.003  -4.267  0.00  0.00    +0.029 C 
ATOM      7  C   UNL     1       2.485   6.140  -3.825  0.00  0.00    +0.073 C 
ATOM      8  N   UNL     1       3.647   6.312  -4.605  0.00  0.00    -0.268 NA
ATOM      9  C   UNL     1       3.485   7.030  -5.826  0.00  0.00    +0.099 C 
ATOM     10  C   UNL     1       2.454   6.387  -6.706  0.00  0.00    -0.007 A 
ATOM     11  C   UNL     1       2.525   7.115  -7.890  0.00  0.00    +0.000 A 
ATOM     12  C   UNL     1       4.441   5.137  -4.860  0.00  0.00    +0.090 C 
ATOM     13  C   UNL     1       0.308   4.976  -4.029  0.00  0.00    -0.021 C 
ATOM     14  C   UNL     1      -0.307   5.500  -2.931  0.00  0.00    +0.002 C 
ATOM     15  C   UNL     1      -1.449   6.601  -3.340  0.00  0.00    +0.177 C 
ATOM     16  O   UNL     1      -2.504   5.940  -2.453  0.00  0.00    -0.218 OA
ATOM     17  C   UNL     1      -1.881   5.687  -4.656  0.00  0.00    +0.082 C 
ATOM     18  C   UNL     1       1.275   5.776  -6.262  0.00  0.00    +0.019 A 
ATOM     19  C   UNL     1       1.647   6.824  -8.894  0.00  0.00    +0.040 A 
ENDROOT
BRANCH   1  21
ATOM     20  C   UNL     1       0.359   4.592 -10.678  0.00  0.00    +0.253 C 
ATOM     21  O   UNL     1      -0.044   5.350  -9.665  0.00  0.00    -0.468 OA
ENDBRANCH   1  21
TORSDOF 1
ENDMDL
MODEL 8
REMARK VINA RESULT:      -7.2      2.670      4.954
REMARK  Name = 
REMARK  1 active torsions:
REMARK  status: ('A' for Active; 'I' for Inactive)
REMARK    1  A    between atoms: O_2  and  C_3
REMARK                            x       y       z     vdW  Elec       q    Type
REMARK                         _______ _______ _______ _____ _____    ______ ____
ROOT
ATOM      1  C   UNL     1       1.704   5.309  -1.417  0.00  0.00    +0.172 A 
ATOM      2  C   UNL     1       1.464   5.241  -2.792  0.00  0.00    +0.168 A 
ATOM      3  O   UNL     1       2.389   5.315  -3.843  0.00  0.00    -0.476 OA
ATOM      4  C   UNL     1       1.984   6.623  -4.576  0.00  0.00    +0.176 C 
ATOM      5  C   UNL     1       0.452   6.071  -4.682  0.00  0.00    +0.078 C 
ATOM      6  C   UNL     1      -0.515   7.238  -4.872  0.00  0.00    +0.029 C 
ATOM      7  C   UNL     1      -1.820   6.427  -4.959  0.00  0.00    +0.073 C 
ATOM      8  N   UNL     1      -2.571   6.404  -3.766  0.00  0.00    -0.268 NA
ATOM      9  C   UNL     1      -1.911   6.885  -2.597  0.00  0.00    +0.099 C 
ATOM     10  C   UNL     1      -0.642   6.129  -2.335  0.00  0.00    -0.007 A 
ATOM     11  C   UNL     1      -0.210   6.618  -1.106  0.00  0.00    +0.000 A 
ATOM     12  C   UNL     1      -3.244   5.171  -3.443  0.00  0.00    +0.090 C 
ATOM     13  C   UNL     1       0.213   5.333  -5.856  0.00  0.00    -0.021 C 
ATOM     14  C   UNL     1       0.363   6.079  -6.988  0.00  0.00    +0.002 C 
ATOM     15  C   UNL     1       1.615   7.126  -6.865  0.00  0.00    +0.177 C 
ATOM     16  O   UNL     1       2.207   6.687  -8.203  0.00  0.00    -0.218 OA
ATOM     17  C   UNL     1       2.497   6.000  -6.025  0.00  0.00    +0.082 C 
ATOM     18  C   UNL     1       0.240   5.660  -3.315  0.00  0.00    +0.019 A 
ATOM     19  C   UNL     1       0.981   6.177  -0.605  0.00  0.00    +0.040 A 
ENDROOT
BRANCH   1  21
ATOM     20  C   UNL     1       4.068   4.971  -0.923  0.00  0.00    +0.253 C 
ATOM     21  O   UNL     1       2.780   4.653  -0.858  0.00  0.00    -0.468 OA
ENDBRANCH   1  21
TORSDOF 1
ENDMDL
MODEL 9
REMARK VINA RESULT:      -7.1      2.403      5.154
REMARK  Name = 
REMARK  1 active torsions:
REMARK  status: ('A' for Active; 'I' for Inactive)
REMARK    1  A    between atoms: O_2  and  C_3
REMARK                            x       y       z     vdW  Elec       q    Type
REMARK                         _______ _______ _______ _____ _____    ______ ____
ROOT
ATOM      1  C   UNL     1       2.870   4.625  -7.000  0.00  0.00    +0.172 A 
ATOM      2  C   UNL     1       1.878   4.702  -6.017  0.00  0.00    +0.168 A 
ATOM      3  O   UNL     1       0.498   4.879  -6.183  0.00  0.00    -0.476 OA
ATOM      4  C   UNL     1       0.239   6.258  -5.516  0.00  0.00    +0.176 C 
ATOM      5  C   UNL     1       0.983   5.727  -4.165  0.00  0.00    +0.078 C 
ATOM      6  C   UNL     1       1.476   6.912  -3.337  0.00  0.00    +0.029 C 
ATOM      7  C   UNL     1       2.085   6.121  -2.166  0.00  0.00    +0.073 C 
ATOM      8  N   UNL     1       3.486   5.978  -2.226  0.00  0.00    -0.268 NA
ATOM      9  C   UNL     1       4.103   6.332  -3.462  0.00  0.00    +0.099 C 
ATOM     10  C   UNL     1       3.529   5.547  -4.604  0.00  0.00    -0.007 A 
ATOM     11  C   UNL     1       4.326   5.905  -5.688  0.00  0.00    +0.000 A 
ATOM     12  C   UNL     1       4.033   4.721  -1.780  0.00  0.00    +0.090 C 
ATOM     13  C   UNL     1       0.100   5.115  -3.255  0.00  0.00    -0.021 C 
ATOM     14  C   UNL     1      -0.848   5.973  -2.782  0.00  0.00    +0.002 C 
ATOM     15  C   UNL     1      -1.377   6.997  -3.945  0.00  0.00    +0.177 C 
ATOM     16  O   UNL     1      -2.844   6.695  -3.642  0.00  0.00    -0.218 OA
ATOM     17  C   UNL     1      -1.288   5.785  -5.075  0.00  0.00    +0.082 C 
ATOM     18  C   UNL     1       2.186   5.178  -4.742  0.00  0.00    +0.019 A 
ATOM     19  C   UNL     1       4.017   5.409  -6.923  0.00  0.00    +0.040 A 
ENDROOT
BRANCH   1  21
ATOM     20  C   UNL     1       2.115   4.324  -9.298  0.00  0.00    +0.253 C 
ATOM     21  O   UNL     1       2.657   3.911  -8.159  0.00  0.00    -0.468 OA
ENDBRANCH   1  21
TORSDOF 1
ENDMDL
