MODEL 1
REMARK VINA RESULT:      -8.0      0.000      0.000
REMARK  Name = 
REMARK  2 active torsions:
REMARK  status: ('A' for Active; 'I' for Inactive)
REMARK    1  A    between atoms: C_7  and  N_8
REMARK    2  A    between atoms: C_13  and  S_14
REMARK                            x       y       z     vdW  Elec       q    Type
REMARK                         _______ _______ _______ _____ _____    ______ ____
ROOT
ATOM      1  N   UNL     1       1.820   5.387  -6.501  0.00  0.00    -0.239 N 
ATOM      2  C   UNL     1       0.500   4.556  -6.239  0.00  0.00    +0.173 C 
ATOM      3  C   UNL     1      -0.329   5.339  -7.435  0.00  0.00    +0.046 C 
ATOM      4  N   UNL     1       0.006   5.598  -5.152  0.00  0.00    -0.219 NA
ATOM      5  C   UNL     1       0.847   5.698  -4.007  0.00  0.00    +0.072 A 
ATOM      6  C   UNL     1       2.221   5.532  -4.088  0.00  0.00    +0.070 A 
ATOM      7  C   UNL     1       3.079   5.878  -3.065  0.00  0.00    +0.027 A 
ATOM      8  C   UNL     1       2.526   6.412  -1.906  0.00  0.00    +0.136 A 
ATOM      9  C   UNL     1       1.162   6.245  -1.706  0.00  0.00    +0.078 A 
ATOM     10 CL   UNL     1       0.585   6.268  -0.048  0.00  0.00    -0.081 Cl
ATOM     11  C   UNL     1       0.325   6.106  -2.790  0.00  0.00    +0.029 A 
ATOM     12  C   UNL     1       2.723   5.148  -5.414  0.00  0.00    +0.255 C 
ATOM     13  O   UNL     1       3.959   5.035  -5.632  0.00  0.00    -0.269 OA
ENDROOT
BRANCH   1  16
ATOM     14  C   UNL     1       2.345   7.677  -7.682  0.00  0.00    +0.032 C 
ATOM     15  C   UNL     1       2.646   6.710  -8.276  0.00  0.00    -0.008 A 
ATOM     16  C   UNL     1       2.265   5.441  -7.848  0.00  0.00    +0.052 A 
ATOM     17  C   UNL     1       2.810   4.320  -8.468  0.00  0.00    +0.015 A 
ATOM     18  C   UNL     1       3.870   4.422  -9.362  0.00  0.00    +0.001 A 
ATOM     19  C   UNL     1       4.282   5.688  -9.761  0.00  0.00    -0.000 A 
ATOM     20  C   UNL     1       3.583   6.797  -9.300  0.00  0.00    -0.003 A 
ENDBRANCH   1  16
BRANCH   8  21
ATOM     21  S   UNL     1       3.541   7.216  -0.746  0.00  0.00    +0.094 S 
ATOM     22  O   UNL     1       4.791   7.667  -1.437  0.00  0.00    -0.150 OA
ATOM     23  O   UNL     1       3.836   6.291   0.398  0.00  0.00    -0.150 OA
ATOM     24  N   UNL     1       2.765   8.622  -0.084  0.00  0.00    +0.039 NA
ENDBRANCH   8  21
TORSDOF 2
ENDMDL
MODEL 2
REMARK VINA RESULT:      -8.0      4.542      7.595
REMARK  Name = 
REMARK  2 active torsions:
REMARK  status: ('A' for Active; 'I' for Inactive)
REMARK    1  A    between atoms: C_7  and  N_8
REMARK    2  A    between atoms: C_13  and  S_14
REMARK                            x       y       z     vdW  Elec       q    Type
REMARK                         _______ _______ _______ _____ _____    ______ ____
ROOT
ATOM      1  N   UNL     1       0.011   5.906  -4.942  0.00  0.00    -0.239 N 
ATOM      2  C   UNL     1       1.374   5.230  -4.512  0.00  0.00    +0.173 C 
ATOM      3  C   UNL     1       1.666   6.365  -3.347  0.00  0.00    +0.046 C 
ATOM      4  N   UNL     1       2.180   6.063  -5.591  0.00  0.00    -0.219 NA
ATOM      5  C   UNL     1       1.816   5.790  -6.940  0.00  0.00    +0.072 A 
ATOM      6  C   UNL     1       0.517   5.457  -7.297  0.00  0.00    +0.070 A 
ATOM      7  C   UNL     1       0.079   5.444  -8.605  0.00  0.00    +0.027 A 
ATOM      8  C   UNL     1       0.992   5.781  -9.598  0.00  0.00    +0.136 A 
ATOM      9  C   UNL     1       2.341   5.764  -9.267  0.00  0.00    +0.078 A 
ATOM     10 CL   UNL     1       3.485   5.499 -10.573  0.00  0.00    -0.081 Cl
ATOM     11  C   UNL     1       2.727   5.986  -7.965  0.00  0.00    +0.029 A 
ATOM     12  C   UNL     1      -0.417   5.310  -6.173  0.00  0.00    +0.255 C 
ATOM     13  O   UNL     1      -1.640   5.078  -6.372  0.00  0.00    -0.269 OA
ENDROOT
BRANCH   1  16
ATOM     14  C   UNL     1      -1.299   8.185  -4.849  0.00  0.00    +0.032 C 
ATOM     15  C   UNL     1      -1.625   7.371  -4.068  0.00  0.00    -0.008 A 
ATOM     16  C   UNL     1      -0.900   6.195  -3.892  0.00  0.00    +0.052 A 
ATOM     17  C   UNL     1      -1.431   5.178  -3.104  0.00  0.00    +0.015 A 
ATOM     18  C   UNL     1      -2.746   5.214  -2.653  0.00  0.00    +0.001 A 
ATOM     19  C   UNL     1      -3.489   6.370  -2.864  0.00  0.00    -0.000 A 
ATOM     20  C   UNL     1      -2.872   7.463  -3.460  0.00  0.00    -0.003 A 
ENDBRANCH   1  16
BRANCH   8  21
ATOM     21  S   UNL     1       0.436   6.158 -11.201  0.00  0.00    +0.094 S 
ATOM     22  O   UNL     1       1.458   7.027 -11.869  0.00  0.00    -0.150 OA
ATOM     23  O   UNL     1      -0.906   6.826 -11.131  0.00  0.00    -0.150 OA
ATOM     24  N   UNL     1       0.249   4.726 -12.167  0.00  0.00    +0.039 NA
ENDBRANCH   8  21
TORSDOF 2
ENDMDL
MODEL 3
REMARK VINA RESULT:      -7.9      5.027      7.859
REMARK  Name = 
REMARK  2 active torsions:
REMARK  status: ('A' for Active; 'I' for Inactive)
REMARK    1  A    between atoms: C_7  and  N_8
REMARK    2  A    between atoms: C_13  and  S_14
REMARK                            x       y       z     vdW  Elec       q    Type
REMARK                         _______ _______ _______ _____ _____    ______ ____
ROOT
ATOM      1  N   UNL     1       1.772   5.954  -8.562  0.00  0.00    -0.239 N 
ATOM      2  C   UNL     1       0.830   6.539  -9.689  0.00  0.00    +0.173 C 
ATOM      3  C   UNL     1      -0.315   5.371  -9.455  0.00  0.00    +0.046 C 
ATOM      4  N   UNL     1       1.550   5.675 -10.804  0.00  0.00    -0.219 NA
ATOM      5  C   UNL     1       2.925   5.990 -10.998  0.00  0.00    +0.072 A 
ATOM      6  C   UNL     1       3.737   6.406  -9.953  0.00  0.00    +0.070 A 
ATOM      7  C   UNL     1       5.112   6.465 -10.051  0.00  0.00    +0.027 A 
ATOM      8  C   UNL     1       5.694   6.089 -11.257  0.00  0.00    +0.136 A 
ATOM      9  C   UNL     1       4.873   6.019 -12.374  0.00  0.00    +0.078 A 
ATOM     10 CL   UNL     1       5.633   6.233 -13.943  0.00  0.00    -0.081 Cl
ATOM     11  C   UNL     1       3.532   5.754 -12.221  0.00  0.00    +0.029 A 
ATOM     12  C   UNL     1       3.050   6.593  -8.669  0.00  0.00    +0.255 C 
ATOM     13  O   UNL     1       3.692   6.902  -7.629  0.00  0.00    -0.269 OA
ENDROOT
BRANCH   1  16
ATOM     14  C   UNL     1       2.218   3.727  -7.235  0.00  0.00    +0.032 C 
ATOM     15  C   UNL     1       1.616   4.557  -6.662  0.00  0.00    -0.008 A 
ATOM     16  C   UNL     1       1.161   5.705  -7.305  0.00  0.00    +0.052 A 
ATOM     17  C   UNL     1       0.630   6.746  -6.548  0.00  0.00    +0.015 A 
ATOM     18  C   UNL     1       0.724   6.762  -5.161  0.00  0.00    +0.001 A 
ATOM     19  C   UNL     1       1.218   5.634  -4.516  0.00  0.00    -0.000 A 
ATOM     20  C   UNL     1       1.540   4.515  -5.274  0.00  0.00    -0.003 A 
ENDBRANCH   1  16
BRANCH   8  21
ATOM     21  S   UNL     1       7.401   5.769 -11.338  0.00  0.00    +0.094 S 
ATOM     22  O   UNL     1       7.854   5.254 -10.007  0.00  0.00    -0.150 OA
ATOM     23  O   UNL     1       8.134   7.017 -11.735  0.00  0.00    -0.150 OA
ATOM     24  N   UNL     1       7.768   4.558 -12.528  0.00  0.00    +0.039 NA
ENDBRANCH   8  21
TORSDOF 2
ENDMDL
MODEL 4
REMARK VINA RESULT:      -7.9      2.593      3.033
REMARK  Name = 
REMARK  2 active torsions:
REMARK  status: ('A' for Active; 'I' for Inactive)
REMARK    1  A    between atoms: C_7  and  N_8
REMARK    2  A    between atoms: C_13  and  S_14
REMARK                            x       y       z     vdW  Elec       q    Type
REMARK                         _______ _______ _______ _____ _____    ______ ____
ROOT
ATOM      1  N   UNL     1       0.984   5.357  -7.544  0.00  0.00    -0.239 N 
ATOM      2  C   UNL     1      -0.335   4.849  -8.252  0.00  0.00    +0.173 C 
ATOM      3  C   UNL     1      -0.141   5.875  -9.534  0.00  0.00    +0.046 C 
ATOM      4  N   UNL     1      -1.216   5.912  -7.476  0.00  0.00    -0.219 NA
ATOM      5  C   UNL     1      -1.234   5.744  -6.063  0.00  0.00    +0.072 A 
ATOM      6  C   UNL     1      -0.135   5.261  -5.367  0.00  0.00    +0.070 A 
ATOM      7  C   UNL     1      -0.029   5.333  -3.993  0.00  0.00    +0.027 A 
ATOM      8  C   UNL     1      -1.078   5.914  -3.290  0.00  0.00    +0.136 A 
ATOM      9  C   UNL     1      -2.291   6.063  -3.948  0.00  0.00    +0.078 A 
ATOM     10 CL   UNL     1      -3.740   6.125  -2.957  0.00  0.00    -0.081 Cl
ATOM     11  C   UNL     1      -2.314   6.191  -5.318  0.00  0.00    +0.029 A 
ATOM     12  C   UNL     1       0.998   4.848  -6.205  0.00  0.00    +0.255 C 
ATOM     13  O   UNL     1       2.079   4.458  -5.687  0.00  0.00    -0.269 OA
ENDROOT
BRANCH   1  16
ATOM     14  C   UNL     1       2.512   7.494  -7.676  0.00  0.00    +0.032 C 
ATOM     15  C   UNL     1       2.933   6.526  -8.191  0.00  0.00    -0.008 A 
ATOM     16  C   UNL     1       2.153   5.383  -8.348  0.00  0.00    +0.052 A 
ATOM     17  C   UNL     1       2.753   4.203  -8.780  0.00  0.00    +0.015 A 
ATOM     18  C   UNL     1       4.135   4.074  -8.865  0.00  0.00    +0.001 A 
ATOM     19  C   UNL     1       4.920   5.203  -8.668  0.00  0.00    -0.000 A 
ATOM     20  C   UNL     1       4.295   6.426  -8.453  0.00  0.00    -0.003 A 
ENDBRANCH   1  16
BRANCH   8  21
ATOM     21  S   UNL     1      -0.860   6.384  -1.630  0.00  0.00    +0.094 S 
ATOM     22  O   UNL     1       0.608   6.507  -1.358  0.00  0.00    -0.150 OA
ATOM     23  O   UNL     1      -1.515   5.381  -0.727  0.00  0.00    -0.150 OA
ATOM     24  N   UNL     1      -1.589   7.926  -1.302  0.00  0.00    +0.039 NA
ENDBRANCH   8  21
TORSDOF 2
ENDMDL
MODEL 5
REMARK VINA RESULT:      -7.6      2.386      3.471
REMARK  Name = 
REMARK  2 active torsions:
REMARK  status: ('A' for Active; 'I' for Inactive)
REMARK    1  A    between atoms: C_7  and  N_8
REMARK    2  A    between atoms: C_13  and  S_14
REMARK                            x       y       z     vdW  Elec       q    Type
REMARK                         _______ _______ _______ _____ _____    ______ ____
ROOT
ATOM      1  N   UNL     1       2.937   5.923  -7.301  0.00  0.00    -0.239 N 
ATOM      2  C   UNL     1       4.391   6.534  -7.196  0.00  0.00    +0.173 C 
ATOM      3  C   UNL     1       4.999   5.495  -8.329  0.00  0.00    +0.046 C 
ATOM      4  N   UNL     1       4.771   5.544  -6.019  0.00  0.00    -0.219 NA
ATOM      5  C   UNL     1       4.001   5.715  -4.833  0.00  0.00    +0.072 A 
ATOM      6  C   UNL     1       2.672   6.109  -4.872  0.00  0.00    +0.070 A 
ATOM      7  C   UNL     1       1.836   6.030  -3.778  0.00  0.00    +0.027 A 
ATOM      8  C   UNL     1       2.364   5.534  -2.591  0.00  0.00    +0.136 A 
ATOM      9  C   UNL     1       3.746   5.481  -2.473  0.00  0.00    +0.078 A 
ATOM     10 CL   UNL     1       4.416   5.535  -0.850  0.00  0.00    -0.081 Cl
ATOM     11  C   UNL     1       4.523   5.355  -3.601  0.00  0.00    +0.029 A 
ATOM     12  C   UNL     1       2.158   6.431  -6.210  0.00  0.00    +0.255 C 
ATOM     13  O   UNL     1       0.947   6.734  -6.384  0.00  0.00    -0.269 OA
ENDROOT
BRANCH   1  16
ATOM     14  C   UNL     1       2.320   3.580  -8.324  0.00  0.00    +0.032 C 
ATOM     15  C   UNL     1       1.987   4.518  -8.946  0.00  0.00    -0.008 A 
ATOM     16  C   UNL     1       2.403   5.804  -8.610  0.00  0.00    +0.052 A 
ATOM     17  C   UNL     1       1.827   6.897  -9.252  0.00  0.00    +0.015 A 
ATOM     18  C   UNL     1       0.709   6.759 -10.068  0.00  0.00    +0.001 A 
ATOM     19  C   UNL     1       0.263   5.479 -10.372  0.00  0.00    -0.000 A 
ATOM     20  C   UNL     1       0.984   4.388  -9.901  0.00  0.00    -0.003 A 
ENDBRANCH   1  16
BRANCH   8  21
ATOM     21  S   UNL     1       1.304   5.049  -1.301  0.00  0.00    +0.094 S 
ATOM     22  O   UNL     1       1.898   3.854  -0.619  0.00  0.00    -0.150 OA
ATOM     23  O   UNL     1      -0.063   4.759  -1.847  0.00  0.00    -0.150 OA
ATOM     24  N   UNL     1       1.129   6.304  -0.112  0.00  0.00    +0.039 NA
ENDBRANCH   8  21
TORSDOF 2
ENDMDL
MODEL 6
REMARK VINA RESULT:      -7.6      2.973      3.951
REMARK  Name = 
REMARK  2 active torsions:
REMARK  status: ('A' for Active; 'I' for Inactive)
REMARK    1  A    between atoms: C_7  and  N_8
REMARK    2  A    between atoms: C_13  and  S_14
REMARK                            x       y       z     vdW  Elec       q    Type
REMARK                         _______ _______ _______ _____ _____    ______ ____
ROOT
ATOM      1  N   UNL     1       2.676   6.018  -5.815  0.00  0.00    -0.239 N 
ATOM      2  C   UNL     1       3.718   6.792  -4.913  0.00  0.00    +0.173 C 
ATOM      3  C   UNL     1       4.905   5.673  -5.179  0.00  0.00    +0.046 C 
ATOM      4  N   UNL     1       3.229   6.032  -3.613  0.00  0.00    -0.219 NA
ATOM      5  C   UNL     1       1.874   6.287  -3.256  0.00  0.00    +0.072 A 
ATOM      6  C   UNL     1       0.895   6.524  -4.210  0.00  0.00    +0.070 A 
ATOM      7  C   UNL     1      -0.453   6.513  -3.917  0.00  0.00    +0.027 A 
ATOM      8  C   UNL     1      -0.831   6.255  -2.604  0.00  0.00    +0.136 A 
ATOM      9  C   UNL     1       0.141   6.372  -1.619  0.00  0.00    +0.078 A 
ATOM     10 CL   UNL     1      -0.407   6.733   0.010  0.00  0.00    -0.081 Cl
ATOM     11  C   UNL     1       1.464   6.169  -1.938  0.00  0.00    +0.029 A 
ATOM     12  C   UNL     1       1.381   6.590  -5.594  0.00  0.00    +0.255 C 
ATOM     13  O   UNL     1       0.579   6.730  -6.556  0.00  0.00    -0.269 OA
ENDROOT
BRANCH   1  16
ATOM     14  C   UNL     1       2.260   3.608  -6.781  0.00  0.00    +0.032 C 
ATOM     15  C   UNL     1       2.693   4.398  -7.535  0.00  0.00    -0.008 A 
ATOM     16  C   UNL     1       3.123   5.653  -7.111  0.00  0.00    +0.052 A 
ATOM     17  C   UNL     1       3.439   6.621  -8.060  0.00  0.00    +0.015 A 
ATOM     18  C   UNL     1       3.147   6.446  -9.408  0.00  0.00    +0.001 A 
ATOM     19  C   UNL     1       2.676   5.208  -9.830  0.00  0.00    -0.000 A 
ATOM     20  C   UNL     1       2.574   4.178  -8.903  0.00  0.00    -0.003 A 
ENDBRANCH   1  16
BRANCH   8  21
ATOM     21  S   UNL     1      -2.480   5.849  -2.236  0.00  0.00    +0.094 S 
ATOM     22  O   UNL     1      -3.241   7.117  -1.991  0.00  0.00    -0.150 OA
ATOM     23  O   UNL     1      -2.526   4.931  -1.050  0.00  0.00    -0.150 OA
ATOM     24  N   UNL     1      -3.245   5.021  -3.558  0.00  0.00    +0.039 NA
ENDBRANCH   8  21
TORSDOF 2
ENDMDL
MODEL 7
REMARK VINA RESULT:      -7.5      5.476      8.245
REMARK  Name = 
REMARK  2 active torsions:
REMARK  status: ('A' for Active; 'I' for Inactive)
REMARK    1  A    between atoms: C_7  and  N_8
REMARK    2  A    between atoms: C_13  and  S_14
REMARK                            x       y       z     vdW  Elec       q    Type
REMARK                         _______ _______ _______ _____ _____    ______ ____
ROOT
ATOM      1  N   UNL     1       1.632   5.957  -7.942  0.00  0.00    -0.239 N 
ATOM      2  C   UNL     1       0.149   6.477  -8.108  0.00  0.00    +0.173 C 
ATOM      3  C   UNL     1      -0.432   5.438  -6.962  0.00  0.00    +0.046 C 
ATOM      4  N   UNL     1      -0.137   5.434  -9.265  0.00  0.00    -0.219 NA
ATOM      5  C   UNL     1       0.659   5.615 -10.432  0.00  0.00    +0.072 A 
ATOM      6  C   UNL     1       1.961   6.088 -10.367  0.00  0.00    +0.070 A 
ATOM      7  C   UNL     1       2.834   6.026 -11.433  0.00  0.00    +0.027 A 
ATOM      8  C   UNL     1       2.372   5.466 -12.619  0.00  0.00    +0.136 A 
ATOM      9  C   UNL     1       0.999   5.329 -12.776  0.00  0.00    +0.078 A 
ATOM     10 CL   UNL     1       0.378   5.297 -14.418  0.00  0.00    -0.081 Cl
ATOM     11  C   UNL     1       0.197   5.190 -11.667  0.00  0.00    +0.029 A 
ATOM     12  C   UNL     1       2.414   6.477  -9.025  0.00  0.00    +0.255 C 
ATOM     13  O   UNL     1       3.599   6.856  -8.825  0.00  0.00    -0.269 OA
ENDROOT
BRANCH   1  16
ATOM     14  C   UNL     1       2.419   3.695  -6.855  0.00  0.00    +0.032 C 
ATOM     15  C   UNL     1       2.648   4.669  -6.241  0.00  0.00    -0.008 A 
ATOM     16  C   UNL     1       2.131   5.907  -6.614  0.00  0.00    +0.052 A 
ATOM     17  C   UNL     1       2.588   7.057  -5.976  0.00  0.00    +0.015 A 
ATOM     18  C   UNL     1       3.686   7.033  -5.123  0.00  0.00    +0.001 A 
ATOM     19  C   UNL     1       4.233   5.802  -4.780  0.00  0.00    -0.000 A 
ATOM     20  C   UNL     1       3.626   4.643  -5.253  0.00  0.00    -0.003 A 
ENDBRANCH   1  16
BRANCH   8  21
ATOM     21  S   UNL     1       3.498   5.007 -13.862  0.00  0.00    +0.094 S 
ATOM     22  O   UNL     1       2.962   3.799 -14.568  0.00  0.00    -0.150 OA
ATOM     23  O   UNL     1       4.847   4.750 -13.258  0.00  0.00    -0.150 OA
ATOM     24  N   UNL     1       3.693   6.266 -15.043  0.00  0.00    +0.039 NA
ENDBRANCH   8  21
TORSDOF 2
ENDMDL
MODEL 8
REMARK VINA RESULT:      -7.5      5.521      8.141
REMARK  Name = 
REMARK  2 active torsions:
REMARK  status: ('A' for Active; 'I' for Inactive)
REMARK    1  A    between atoms: C_7  and  N_8
REMARK    2  A    between atoms: C_13  and  S_14
REMARK                            x       y       z     vdW  Elec       q    Type
REMARK                         _______ _______ _______ _____ _____    ______ ____
ROOT
ATOM      1  N   UNL     1       3.419   5.435  -7.464  0.00  0.00    -0.239 N 
ATOM      2  C   UNL     1       4.640   4.847  -6.651  0.00  0.00    +0.173 C 
ATOM      3  C   UNL     1       4.461   5.945  -5.428  0.00  0.00    +0.046 C 
ATOM      4  N   UNL     1       5.661   5.790  -7.410  0.00  0.00    -0.219 NA
ATOM      5  C   UNL     1       5.751   5.554  -8.811  0.00  0.00    +0.072 A 
ATOM      6  C   UNL     1       4.658   5.138  -9.558  0.00  0.00    +0.070 A 
ATOM      7  C   UNL     1       4.644   5.154 -10.937  0.00  0.00    +0.027 A 
ATOM      8  C   UNL     1       5.783   5.607 -11.593  0.00  0.00    +0.136 A 
ATOM      9  C   UNL     1       6.962   5.679 -10.863  0.00  0.00    +0.078 A 
ATOM     10 CL   UNL     1       8.468   5.565 -11.758  0.00  0.00    -0.081 Cl
ATOM     11  C   UNL     1       6.911   5.868  -9.501  0.00  0.00    +0.029 A 
ATOM     12  C   UNL     1       3.442   4.867  -8.780  0.00  0.00    +0.255 C 
ATOM     13  O   UNL     1       2.364   4.550  -9.351  0.00  0.00    -0.269 OA
ENDROOT
BRANCH   1  16
ATOM     14  C   UNL     1       2.033   7.666  -7.605  0.00  0.00    +0.032 C 
ATOM     15  C   UNL     1       1.518   6.774  -7.041  0.00  0.00    -0.008 A 
ATOM     16  C   UNL     1       2.210   5.603  -6.741  0.00  0.00    +0.052 A 
ATOM     17  C   UNL     1       1.509   4.504  -6.253  0.00  0.00    +0.015 A 
ATOM     18  C   UNL     1       0.118   4.468  -6.245  0.00  0.00    +0.001 A 
ATOM     19  C   UNL     1      -0.577   5.622  -6.584  0.00  0.00    -0.000 A 
ATOM     20  C   UNL     1       0.140   6.781  -6.858  0.00  0.00    -0.003 A 
ENDBRANCH   1  16
BRANCH   8  21
ATOM     21  S   UNL     1       5.712   6.016 -13.281  0.00  0.00    +0.094 S 
ATOM     22  O   UNL     1       4.277   6.012 -13.714  0.00  0.00    -0.150 OA
ATOM     23  O   UNL     1       6.538   5.047 -14.075  0.00  0.00    -0.150 OA
ATOM     24  N   UNL     1       6.350   7.603 -13.581  0.00  0.00    +0.039 NA
ENDBRANCH   8  21
TORSDOF 2
ENDMDL
MODEL 9
REMARK VINA RESULT:      -7.4      3.846      6.902
REMARK  Name = 
REMARK  2 active torsions:
REMARK  status: ('A' for Active; 'I' for Inactive)
REMARK    1  A    between atoms: C_7  and  N_8
REMARK    2  A    between atoms: C_13  and  S_14
REMARK                            x       y       z     vdW  Elec       q    Type
REMARK                         _______ _______ _______ _____ _____    ______ ____
ROOT
ATOM      1  N   UNL     1       3.544   7.027  -1.663  0.00  0.00    -0.239 N 
ATOM      2  C   UNL     1       4.325   6.293  -2.825  0.00  0.00    +0.173 C 
ATOM      3  C   UNL     1       5.321   7.587  -3.085  0.00  0.00    +0.046 C 
ATOM      4  N   UNL     1       3.293   6.812  -3.909  0.00  0.00    -0.219 NA
ATOM      5  C   UNL     1       1.963   6.334  -3.733  0.00  0.00    +0.072 A 
ATOM      6  C   UNL     1       1.431   6.089  -2.476  0.00  0.00    +0.070 A 
ATOM      7  C   UNL     1       0.084   5.881  -2.260  0.00  0.00    +0.027 A 
ATOM      8  C   UNL     1      -0.763   5.920  -3.362  0.00  0.00    +0.136 A 
ATOM      9  C   UNL     1      -0.189   5.813  -4.622  0.00  0.00    +0.078 A 
ATOM     10 CL   UNL     1      -1.197   5.180  -5.913  0.00  0.00    -0.081 Cl
ATOM     11  C   UNL     1       1.108   6.229  -4.818  0.00  0.00    +0.029 A 
ATOM     12  C   UNL     1       2.370   6.263  -1.360  0.00  0.00    +0.255 C 
ATOM     13  O   UNL     1       1.987   6.137  -0.165  0.00  0.00    -0.269 OA
ENDROOT
BRANCH   1  16
ATOM     14  C   UNL     1       3.265   9.549  -0.972  0.00  0.00    +0.032 C 
ATOM     15  C   UNL     1       3.970   8.903  -0.291  0.00  0.00    -0.008 A 
ATOM     16  C   UNL     1       4.343   7.609  -0.644  0.00  0.00    +0.052 A 
ATOM     17  C   UNL     1       5.013   6.815   0.282  0.00  0.00    +0.015 A 
ATOM     18  C   UNL     1       5.143   7.197   1.613  0.00  0.00    +0.001 A 
ATOM     19  C   UNL     1       4.733   8.473   1.981  0.00  0.00    -0.000 A 
ATOM     20  C   UNL     1       4.267   9.337   0.996  0.00  0.00    -0.003 A 
ENDBRANCH   1  16
BRANCH   8  21
ATOM     21  S   UNL     1      -2.482   6.050  -3.135  0.00  0.00    +0.094 S 
ATOM     22  O   UNL     1      -3.061   4.670  -3.065  0.00  0.00    -0.150 OA
ATOM     23  O   UNL     1      -3.083   6.853  -4.252  0.00  0.00    -0.150 OA
ATOM     24  N   UNL     1      -2.870   6.863  -1.650  0.00  0.00    +0.039 NA
ENDBRANCH   8  21
TORSDOF 2
ENDMDL
