MODEL 1
REMARK VINA RESULT:      -8.8      0.000      0.000
REMARK  Name = 
REMARK  2 active torsions:
REMARK  status: ('A' for Active; 'I' for Inactive)
REMARK    1  A    between atoms: C_4  and  C_5
REMARK    2  A    between atoms: N_7  and  C_8
REMARK                            x       y       z     vdW  Elec       q    Type
REMARK                         _______ _______ _______ _____ _____    ______ ____
ROOT
ATOM      1  C   UNL     1       3.159   5.529  -9.464  0.00  0.00    +0.284 C 
ATOM      2  N   UNL     1       3.510   6.328  -8.344  0.00  0.00    -0.202 NA
ATOM      3  O   UNL     1       2.340   4.585  -9.246  0.00  0.00    -0.267 OA
ENDROOT
BRANCH   1  11
ATOM      4  C   UNL     1       4.849   5.977 -13.804  0.00  0.00    +0.154 C 
ATOM      5  N   UNL     1       4.856   5.721 -12.607  0.00  0.00    -0.249 N 
ATOM      6  C   UNL     1       5.908   5.773 -11.754  0.00  0.00    +0.080 A 
ATOM      7  C   UNL     1       5.422   5.691 -10.453  0.00  0.00    +0.041 A 
ATOM      8  C   UNL     1       6.283   5.593  -9.377  0.00  0.00    +0.003 A 
ATOM      9  C   UNL     1       7.629   5.809  -9.547  0.00  0.00    +0.000 A 
ATOM     10  C   UNL     1       8.065   6.101 -10.821  0.00  0.00    +0.002 A 
ATOM     11  C   UNL     1       4.100   5.305 -10.574  0.00  0.00    +0.157 A 
ATOM     12  C   UNL     1       7.250   5.982 -11.921  0.00  0.00    +0.019 A 
ATOM     13  N   UNL     1       3.843   5.258 -11.884  0.00  0.00    -0.165 NA
ENDBRANCH   1  11
BRANCH   2  14
ATOM     14  C   UNL     1       3.192   5.999  -6.991  0.00  0.00    +0.098 C 
ATOM     15  C   UNL     1       2.395   7.019  -6.353  0.00  0.00    +0.038 C 
ATOM     16  C   UNL     1       2.658   7.014  -4.723  0.00  0.00    +0.059 C 
ATOM     17  N   UNL     1       2.574   5.492  -4.607  0.00  0.00    -0.274 NA
ATOM     18  C   UNL     1       3.720   4.570  -5.026  0.00  0.00    +0.059 C 
ATOM     19  C   UNL     1       4.762   5.128  -3.880  0.00  0.00    +0.016 C 
ATOM     20  C   UNL     1       5.051   6.509  -4.035  0.00  0.00    +0.003 C 
ATOM     21  C   UNL     1       1.374   5.044  -5.260  0.00  0.00    +0.090 C 
ATOM     22  C   UNL     1       4.264   7.315  -4.883  0.00  0.00    +0.016 C 
ATOM     23  C   UNL     1       4.346   5.416  -6.297  0.00  0.00    +0.038 C 
ENDBRANCH   2  14
TORSDOF 2
ENDMDL
MODEL 2
REMARK VINA RESULT:      -8.3      1.792      7.094
REMARK  Name = 
REMARK  2 active torsions:
REMARK  status: ('A' for Active; 'I' for Inactive)
REMARK    1  A    between atoms: C_4  and  C_5
REMARK    2  A    between atoms: N_7  and  C_8
REMARK                            x       y       z     vdW  Elec       q    Type
REMARK                         _______ _______ _______ _____ _____    ______ ____
ROOT
ATOM      1  C   UNL     1       3.295   6.021  -9.040  0.00  0.00    +0.284 C 
ATOM      2  N   UNL     1       4.247   5.439  -9.917  0.00  0.00    -0.202 NA
ATOM      3  O   UNL     1       3.257   7.289  -9.013  0.00  0.00    -0.267 OA
ENDROOT
BRANCH   1  11
ATOM      4  C   UNL     1       3.421   5.024  -4.470  0.00  0.00    +0.154 C 
ATOM      5  N   UNL     1       2.962   5.086  -5.604  0.00  0.00    -0.249 N 
ATOM      6  C   UNL     1       1.659   5.157  -5.968  0.00  0.00    +0.080 A 
ATOM      7  C   UNL     1       1.598   5.501  -7.315  0.00  0.00    +0.041 A 
ATOM      8  C   UNL     1       0.394   5.522  -7.989  0.00  0.00    +0.003 A 
ATOM      9  C   UNL     1      -0.789   5.435  -7.295  0.00  0.00    +0.000 A 
ATOM     10  C   UNL     1      -0.709   5.306  -5.926  0.00  0.00    +0.002 A 
ATOM     11  C   UNL     1       2.886   5.350  -7.795  0.00  0.00    +0.157 A 
ATOM     12  C   UNL     1       0.480   5.064  -5.280  0.00  0.00    +0.019 A 
ATOM     13  N   UNL     1       3.640   5.019  -6.743  0.00  0.00    -0.165 NA
ENDBRANCH   1  11
BRANCH   2  14
ATOM     14  C   UNL     1       5.288   6.168 -10.571  0.00  0.00    +0.098 C 
ATOM     15  C   UNL     1       4.892   6.631 -11.879  0.00  0.00    +0.038 C 
ATOM     16  C   UNL     1       6.215   6.781 -12.856  0.00  0.00    +0.059 C 
ATOM     17  N   UNL     1       7.059   7.474 -11.787  0.00  0.00    -0.274 NA
ATOM     18  C   UNL     1       7.713   6.713 -10.632  0.00  0.00    +0.059 C 
ATOM     19  C   UNL     1       8.712   5.837 -11.604  0.00  0.00    +0.016 C 
ATOM     20  C   UNL     1       8.000   5.006 -12.508  0.00  0.00    +0.003 C 
ATOM     21  C   UNL     1       6.302   8.564 -11.235  0.00  0.00    +0.090 C 
ATOM     22  C   UNL     1       6.618   5.196 -12.718  0.00  0.00    +0.016 C 
ATOM     23  C   UNL     1       6.594   5.529 -10.373  0.00  0.00    +0.038 C 
ENDBRANCH   2  14
TORSDOF 2
ENDMDL
MODEL 3
REMARK VINA RESULT:      -8.1      1.128      2.225
REMARK  Name = 
REMARK  2 active torsions:
REMARK  status: ('A' for Active; 'I' for Inactive)
REMARK    1  A    between atoms: C_4  and  C_5
REMARK    2  A    between atoms: N_7  and  C_8
REMARK                            x       y       z     vdW  Elec       q    Type
REMARK                         _______ _______ _______ _____ _____    ______ ____
ROOT
ATOM      1  C   UNL     1       3.838   5.526  -9.250  0.00  0.00    +0.284 C 
ATOM      2  N   UNL     1       3.450   6.407  -8.206  0.00  0.00    -0.202 NA
ATOM      3  O   UNL     1       3.710   4.285  -9.016  0.00  0.00    -0.267 OA
ENDROOT
BRANCH   1  11
ATOM      4  C   UNL     1       8.115   5.375 -11.142  0.00  0.00    +0.154 C 
ATOM      5  N   UNL     1       6.914   5.602 -11.074  0.00  0.00    -0.249 N 
ATOM      6  C   UNL     1       6.021   5.653 -12.093  0.00  0.00    +0.080 A 
ATOM      7  C   UNL     1       4.739   5.649 -11.552  0.00  0.00    +0.041 A 
ATOM      8  C   UNL     1       3.629   5.821 -12.355  0.00  0.00    +0.003 A 
ATOM      9  C   UNL     1       3.749   5.765 -13.723  0.00  0.00    +0.000 A 
ATOM     10  C   UNL     1       5.009   5.554 -14.237  0.00  0.00    +0.002 A 
ATOM     11  C   UNL     1       4.906   5.882 -10.199  0.00  0.00    +0.157 A 
ATOM     12  C   UNL     1       6.139   5.603 -13.455  0.00  0.00    +0.019 A 
ATOM     13  N   UNL     1       6.224   5.929  -9.988  0.00  0.00    -0.165 NA
ENDBRANCH   1  11
BRANCH   2  14
ATOM     14  C   UNL     1       3.157   5.990  -6.872  0.00  0.00    +0.098 C 
ATOM     15  C   UNL     1       2.237   6.884  -6.210  0.00  0.00    +0.038 C 
ATOM     16  C   UNL     1       2.480   6.848  -4.577  0.00  0.00    +0.059 C 
ATOM     17  N   UNL     1       2.576   5.323  -4.518  0.00  0.00    -0.274 NA
ATOM     18  C   UNL     1       3.829   4.560  -4.952  0.00  0.00    +0.059 C 
ATOM     19  C   UNL     1       4.783   5.193  -3.770  0.00  0.00    +0.016 C 
ATOM     20  C   UNL     1       4.908   6.604  -3.869  0.00  0.00    +0.003 C 
ATOM     21  C   UNL     1       1.446   4.762  -5.206  0.00  0.00    +0.090 C 
ATOM     22  C   UNL     1       4.040   7.342  -4.699  0.00  0.00    +0.016 C 
ATOM     23  C   UNL     1       4.364   5.522  -6.180  0.00  0.00    +0.038 C 
ENDBRANCH   2  14
TORSDOF 2
ENDMDL
MODEL 4
REMARK VINA RESULT:      -8.0      2.862      8.083
REMARK  Name = 
REMARK  2 active torsions:
REMARK  status: ('A' for Active; 'I' for Inactive)
REMARK    1  A    between atoms: C_4  and  C_5
REMARK    2  A    between atoms: N_7  and  C_8
REMARK                            x       y       z     vdW  Elec       q    Type
REMARK                         _______ _______ _______ _____ _____    ______ ____
ROOT
ATOM      1  C   UNL     1       2.030   5.361  -5.086  0.00  0.00    +0.284 C 
ATOM      2  N   UNL     1       1.916   6.189  -6.234  0.00  0.00    -0.202 NA
ATOM      3  O   UNL     1       2.621   4.250  -5.250  0.00  0.00    -0.267 OA
ENDROOT
BRANCH   1  11
ATOM      4  C   UNL     1       0.264   6.415  -0.883  0.00  0.00    +0.154 C 
ATOM      5  N   UNL     1       0.263   6.077  -2.060  0.00  0.00    -0.249 N 
ATOM      6  C   UNL     1      -0.727   6.247  -2.971  0.00  0.00    +0.080 A 
ATOM      7  C   UNL     1      -0.209   5.986  -4.235  0.00  0.00    +0.041 A 
ATOM      8  C   UNL     1      -1.027   5.959  -5.347  0.00  0.00    +0.003 A 
ATOM      9  C   UNL     1      -2.320   6.419  -5.265  0.00  0.00    +0.000 A 
ATOM     10  C   UNL     1      -2.750   6.875  -4.039  0.00  0.00    +0.002 A 
ATOM     11  C   UNL     1       1.018   5.387  -4.017  0.00  0.00    +0.157 A 
ATOM     12  C   UNL     1      -2.016   6.698  -2.891  0.00  0.00    +0.019 A 
ATOM     13  N   UNL     1       1.207   5.393  -2.695  0.00  0.00    -0.165 NA
ENDBRANCH   1  11
BRANCH   2  14
ATOM     14  C   UNL     1       2.206   5.759  -7.566  0.00  0.00    +0.098 C 
ATOM     15  C   UNL     1       2.958   6.744  -8.306  0.00  0.00    +0.038 C 
ATOM     16  C   UNL     1       2.651   6.601  -9.922  0.00  0.00    +0.059 C 
ATOM     17  N   UNL     1       2.772   5.077  -9.918  0.00  0.00    -0.274 NA
ATOM     18  C   UNL     1       1.662   4.164  -9.394  0.00  0.00    +0.059 C 
ATOM     19  C   UNL     1       0.575   4.604 -10.550  0.00  0.00    +0.016 C 
ATOM     20  C   UNL     1       0.254   5.985 -10.497  0.00  0.00    +0.003 C 
ATOM     21  C   UNL     1       4.000   4.712  -9.268  0.00  0.00    +0.090 C 
ATOM     22  C   UNL     1       1.043   6.875  -9.740  0.00  0.00    +0.016 C 
ATOM     23  C   UNL     1       1.050   5.095  -8.177  0.00  0.00    +0.038 C 
ENDBRANCH   2  14
TORSDOF 2
ENDMDL
MODEL 5
REMARK VINA RESULT:      -7.9      4.372      9.136
REMARK  Name = 
REMARK  2 active torsions:
REMARK  status: ('A' for Active; 'I' for Inactive)
REMARK    1  A    between atoms: C_4  and  C_5
REMARK    2  A    between atoms: N_7  and  C_8
REMARK                            x       y       z     vdW  Elec       q    Type
REMARK                         _______ _______ _______ _____ _____    ______ ____
ROOT
ATOM      1  C   UNL     1       1.491   6.012  -1.499  0.00  0.00    +0.284 C 
ATOM      2  N   UNL     1       1.938   6.710  -2.652  0.00  0.00    -0.202 NA
ATOM      3  O   UNL     1       2.016   4.875  -1.292  0.00  0.00    -0.267 OA
ENDROOT
BRANCH   1  11
ATOM      4  C   UNL     1      -2.021   8.196   0.688  0.00  0.00    +0.154 C 
ATOM      5  N   UNL     1      -1.476   7.385  -0.050  0.00  0.00    -0.249 N 
ATOM      6  C   UNL     1      -1.992   6.789  -1.153  0.00  0.00    +0.080 A 
ATOM      7  C   UNL     1      -0.954   6.175  -1.845  0.00  0.00    +0.041 A 
ATOM      8  C   UNL     1      -1.206   5.382  -2.947  0.00  0.00    +0.003 A 
ATOM      9  C   UNL     1      -2.454   5.373  -3.522  0.00  0.00    +0.000 A 
ATOM     10  C   UNL     1      -3.422   6.162  -2.939  0.00  0.00    +0.002 A 
ATOM     11  C   UNL     1       0.125   6.181  -0.979  0.00  0.00    +0.157 A 
ATOM     12  C   UNL     1      -3.236   6.774  -1.723  0.00  0.00    +0.019 A 
ATOM     13  N   UNL     1      -0.275   6.843   0.109  0.00  0.00    -0.165 NA
ENDBRANCH   1  11
BRANCH   2  14
ATOM     14  C   UNL     1       2.738   6.129  -3.683  0.00  0.00    +0.098 C 
ATOM     15  C   UNL     1       3.864   6.960  -4.034  0.00  0.00    +0.038 C 
ATOM     16  C   UNL     1       4.303   6.694  -5.604  0.00  0.00    +0.059 C 
ATOM     17  N   UNL     1       4.209   5.173  -5.484  0.00  0.00    -0.274 NA
ATOM     18  C   UNL     1       2.874   4.427  -5.491  0.00  0.00    +0.059 C 
ATOM     19  C   UNL     1       2.493   4.858  -7.033  0.00  0.00    +0.016 C 
ATOM     20  C   UNL     1       2.366   6.262  -7.190  0.00  0.00    +0.003 C 
ATOM     21  C   UNL     1       4.953   4.754  -4.328  0.00  0.00    +0.090 C 
ATOM     22  C   UNL     1       2.837   7.140  -6.192  0.00  0.00    +0.016 C 
ATOM     23  C   UNL     1       1.906   5.525  -4.730  0.00  0.00    +0.038 C 
ENDBRANCH   2  14
TORSDOF 2
ENDMDL
MODEL 6
REMARK VINA RESULT:      -7.8      1.730      2.319
REMARK  Name = 
REMARK  2 active torsions:
REMARK  status: ('A' for Active; 'I' for Inactive)
REMARK    1  A    between atoms: C_4  and  C_5
REMARK    2  A    between atoms: N_7  and  C_8
REMARK                            x       y       z     vdW  Elec       q    Type
REMARK                         _______ _______ _______ _____ _____    ______ ____
ROOT
ATOM      1  C   UNL     1       1.968   4.566  -7.309  0.00  0.00    +0.284 C 
ATOM      2  N   UNL     1       1.971   5.739  -6.508  0.00  0.00    -0.202 NA
ATOM      3  O   UNL     1       2.193   3.473  -6.705  0.00  0.00    -0.267 OA
ENDROOT
BRANCH   1  11
ATOM      4  C   UNL     1       1.635   5.721 -11.831  0.00  0.00    +0.154 C 
ATOM      5  N   UNL     1       2.165   5.340 -10.795  0.00  0.00    -0.249 N 
ATOM      6  C   UNL     1       3.470   5.445 -10.444  0.00  0.00    +0.080 A 
ATOM      7  C   UNL     1       3.584   5.153  -9.088  0.00  0.00    +0.041 A 
ATOM      8  C   UNL     1       4.822   5.060  -8.483  0.00  0.00    +0.003 A 
ATOM      9  C   UNL     1       5.949   5.483  -9.146  0.00  0.00    +0.000 A 
ATOM     10  C   UNL     1       5.784   5.971 -10.423  0.00  0.00    +0.002 A 
ATOM     11  C   UNL     1       2.370   4.600  -8.724  0.00  0.00    +0.157 A 
ATOM     12  C   UNL     1       4.595   5.859 -11.104  0.00  0.00    +0.019 A 
ATOM     13  N   UNL     1       1.592   4.662  -9.808  0.00  0.00    -0.165 NA
ENDBRANCH   1  11
BRANCH   2  14
ATOM     14  C   UNL     1       2.430   5.787  -5.156  0.00  0.00    +0.098 C 
ATOM     15  C   UNL     1       1.930   6.942  -4.450  0.00  0.00    +0.038 C 
ATOM     16  C   UNL     1       2.978   7.377  -3.251  0.00  0.00    +0.059 C 
ATOM     17  N   UNL     1       3.180   5.943  -2.762  0.00  0.00    -0.274 NA
ATOM     18  C   UNL     1       4.074   4.941  -3.494  0.00  0.00    +0.059 C 
ATOM     19  C   UNL     1       5.461   5.787  -3.229  0.00  0.00    +0.016 C 
ATOM     20  C   UNL     1       5.435   7.075  -3.825  0.00  0.00    +0.003 C 
ATOM     21  C   UNL     1       1.892   5.337  -2.564  0.00  0.00    +0.090 C 
ATOM     22  C   UNL     1       4.222   7.622  -4.293  0.00  0.00    +0.016 C 
ATOM     23  C   UNL     1       3.845   5.412  -5.058  0.00  0.00    +0.038 C 
ENDBRANCH   2  14
TORSDOF 2
ENDMDL
MODEL 7
REMARK VINA RESULT:      -7.8      1.070      2.394
REMARK  Name = 
REMARK  2 active torsions:
REMARK  status: ('A' for Active; 'I' for Inactive)
REMARK    1  A    between atoms: C_4  and  C_5
REMARK    2  A    between atoms: N_7  and  C_8
REMARK                            x       y       z     vdW  Elec       q    Type
REMARK                         _______ _______ _______ _____ _____    ______ ____
ROOT
ATOM      1  C   UNL     1       2.910   5.694  -9.760  0.00  0.00    +0.284 C 
ATOM      2  N   UNL     1       3.220   6.363  -8.547  0.00  0.00    -0.202 NA
ATOM      3  O   UNL     1       1.959   4.855  -9.712  0.00  0.00    -0.267 OA
ENDROOT
BRANCH   1  11
ATOM      4  C   UNL     1       5.037   6.055 -13.912  0.00  0.00    +0.154 C 
ATOM      5  N   UNL     1       4.914   5.799 -12.721  0.00  0.00    -0.249 N 
ATOM      6  C   UNL     1       5.879   5.795 -11.769  0.00  0.00    +0.080 A 
ATOM      7  C   UNL     1       5.264   5.738 -10.522  0.00  0.00    +0.041 A 
ATOM      8  C   UNL     1       6.009   5.594  -9.369  0.00  0.00    +0.003 A 
ATOM      9  C   UNL     1       7.375   5.741  -9.405  0.00  0.00    +0.000 A 
ATOM     10  C   UNL     1       7.948   6.010 -10.628  0.00  0.00    +0.002 A 
ATOM     11  C   UNL     1       3.942   5.422 -10.774  0.00  0.00    +0.157 A 
ATOM     12  C   UNL     1       7.239   5.934 -11.803  0.00  0.00    +0.019 A 
ATOM     13  N   UNL     1       3.813   5.389 -12.104  0.00  0.00    -0.165 NA
ENDBRANCH   1  11
BRANCH   2  14
ATOM     14  C   UNL     1       2.703   5.988  -7.269  0.00  0.00    +0.098 C 
ATOM     15  C   UNL     1       2.470   4.568  -7.169  0.00  0.00    +0.038 C 
ATOM     16  C   UNL     1       1.262   4.262  -6.086  0.00  0.00    +0.059 C 
ATOM     17  N   UNL     1       1.805   5.240  -5.043  0.00  0.00    -0.274 NA
ATOM     18  C   UNL     1       1.625   6.755  -5.164  0.00  0.00    +0.059 C 
ATOM     19  C   UNL     1      -0.015   6.702  -5.032  0.00  0.00    +0.016 C 
ATOM     20  C   UNL     1      -0.621   5.967  -6.085  0.00  0.00    +0.003 C 
ATOM     21  C   UNL     1       3.200   4.967  -4.835  0.00  0.00    +0.090 C 
ATOM     22  C   UNL     1       0.157   5.140  -6.921  0.00  0.00    +0.016 C 
ATOM     23  C   UNL     1       1.690   6.942  -6.801  0.00  0.00    +0.038 C 
ENDBRANCH   2  14
TORSDOF 2
ENDMDL
MODEL 8
REMARK VINA RESULT:      -7.6      2.385      7.032
REMARK  Name = 
REMARK  2 active torsions:
REMARK  status: ('A' for Active; 'I' for Inactive)
REMARK    1  A    between atoms: C_4  and  C_5
REMARK    2  A    between atoms: N_7  and  C_8
REMARK                            x       y       z     vdW  Elec       q    Type
REMARK                         _______ _______ _______ _____ _____    ______ ____
ROOT
ATOM      1  C   UNL     1       1.063   5.966  -5.370  0.00  0.00    +0.284 C 
ATOM      2  N   UNL     1       1.927   5.090  -6.078  0.00  0.00    -0.202 NA
ATOM      3  O   UNL     1       0.326   6.721  -6.077  0.00  0.00    -0.267 OA
ENDROOT
BRANCH   1  11
ATOM      4  C   UNL     1       1.378   5.977  -0.702  0.00  0.00    +0.154 C 
ATOM      5  N   UNL     1       1.632   6.301  -1.855  0.00  0.00    -0.249 N 
ATOM      6  C   UNL     1       2.800   6.786  -2.342  0.00  0.00    +0.080 A 
ATOM      7  C   UNL     1       2.746   6.745  -3.732  0.00  0.00    +0.041 A 
ATOM      8  C   UNL     1       3.753   7.297  -4.499  0.00  0.00    +0.003 A 
ATOM      9  C   UNL     1       4.935   7.685  -3.913  0.00  0.00    +0.000 A 
ATOM     10  C   UNL     1       5.047   7.518  -2.551  0.00  0.00    +0.002 A 
ATOM     11  C   UNL     1       1.422   6.496  -4.045  0.00  0.00    +0.157 A 
ATOM     12  C   UNL     1       3.975   7.178  -1.761  0.00  0.00    +0.019 A 
ATOM     13  N   UNL     1       0.790   6.323  -2.881  0.00  0.00    -0.165 NA
ENDBRANCH   1  11
BRANCH   2  14
ATOM     14  C   UNL     1       2.179   5.171  -7.482  0.00  0.00    +0.098 C 
ATOM     15  C   UNL     1       2.527   3.890  -8.049  0.00  0.00    +0.038 C 
ATOM     16  C   UNL     1       3.486   4.096  -9.378  0.00  0.00    +0.059 C 
ATOM     17  N   UNL     1       2.625   5.220  -9.955  0.00  0.00    -0.274 NA
ATOM     18  C   UNL     1       2.671   6.651  -9.418  0.00  0.00    +0.059 C 
ATOM     19  C   UNL     1       4.236   6.906  -9.860  0.00  0.00    +0.016 C 
ATOM     20  C   UNL     1       5.136   6.020  -9.211  0.00  0.00    +0.003 C 
ATOM     21  C   UNL     1       1.255   4.790  -9.975  0.00  0.00    +0.090 C 
ATOM     22  C   UNL     1       4.655   4.880  -8.535  0.00  0.00    +0.016 C 
ATOM     23  C   UNL     1       2.957   6.368  -7.818  0.00  0.00    +0.038 C 
ENDBRANCH   2  14
TORSDOF 2
ENDMDL
MODEL 9
REMARK VINA RESULT:      -7.6      2.117      3.004
REMARK  Name = 
REMARK  2 active torsions:
REMARK  status: ('A' for Active; 'I' for Inactive)
REMARK    1  A    between atoms: C_4  and  C_5
REMARK    2  A    between atoms: N_7  and  C_8
REMARK                            x       y       z     vdW  Elec       q    Type
REMARK                         _______ _______ _______ _____ _____    ______ ____
ROOT
ATOM      1  C   UNL     1       3.740   6.035 -12.395  0.00  0.00    +0.284 C 
ATOM      2  N   UNL     1       3.696   6.452 -11.039  0.00  0.00    -0.202 NA
ATOM      3  O   UNL     1       2.764   5.330 -12.798  0.00  0.00    -0.267 OA
ENDROOT
BRANCH   1  11
ATOM      4  C   UNL     1       7.097   6.781 -15.568  0.00  0.00    +0.154 C 
ATOM      5  N   UNL     1       6.583   6.355 -14.541  0.00  0.00    -0.249 N 
ATOM      6  C   UNL     1       7.192   6.073 -13.364  0.00  0.00    +0.080 A 
ATOM      7  C   UNL     1       6.210   5.895 -12.394  0.00  0.00    +0.041 A 
ATOM      8  C   UNL     1       6.538   5.473 -11.121  0.00  0.00    +0.003 A 
ATOM      9  C   UNL     1       7.851   5.445 -10.717  0.00  0.00    +0.000 A 
ATOM     10  C   UNL     1       8.801   5.831 -11.637  0.00  0.00    +0.002 A 
ATOM     11  C   UNL     1       5.018   5.798 -13.086  0.00  0.00    +0.157 A 
ATOM     12  C   UNL     1       8.499   6.038 -12.962  0.00  0.00    +0.019 A 
ATOM     13  N   UNL     1       5.316   5.997 -14.373  0.00  0.00    -0.165 NA
ENDBRANCH   1  11
BRANCH   2  14
ATOM     14  C   UNL     1       2.774   5.946 -10.072  0.00  0.00    +0.098 C 
ATOM     15  C   UNL     1       1.932   6.984  -9.526  0.00  0.00    +0.038 C 
ATOM     16  C   UNL     1       1.450   6.583  -7.999  0.00  0.00    +0.059 C 
ATOM     17  N   UNL     1       1.108   5.140  -8.370  0.00  0.00    -0.274 NA
ATOM     18  C   UNL     1       2.178   4.064  -8.561  0.00  0.00    +0.059 C 
ATOM     19  C   UNL     1       2.679   4.099  -6.994  0.00  0.00    +0.016 C 
ATOM     20  C   UNL     1       3.200   5.365  -6.617  0.00  0.00    +0.003 C 
ATOM     21  C   UNL     1       0.266   5.149  -9.535  0.00  0.00    +0.090 C 
ATOM     22  C   UNL     1       2.987   6.497  -7.431  0.00  0.00    +0.016 C 
ATOM     23  C   UNL     1       3.410   4.965  -9.187  0.00  0.00    +0.038 C 
ENDBRANCH   2  14
TORSDOF 2
ENDMDL
