MODEL 1
REMARK VINA RESULT:      -8.8      0.000      0.000
REMARK  Name = 
REMARK  8 active torsions:
REMARK  status: ('A' for Active; 'I' for Inactive)
REMARK    1  A    between atoms: C_2  and  C_4
REMARK    2  A    between atoms: C_4  and  C_5
REMARK    3  A    between atoms: C_5  and  C_6
REMARK    4  A    between atoms: C_6  and  N_7
REMARK    5  A    between atoms: C_10  and  O_11
REMARK    6  A    between atoms: O_11  and  C_12
REMARK    7  A    between atoms: C_12  and  C_13
REMARK    8  A    between atoms: C_12  and  C_20
REMARK                            x       y       z     vdW  Elec       q    Type
REMARK                         _______ _______ _______ _____ _____    ______ ____
ROOT
ATOM      1  C   UNL     1       3.713   5.567 -10.124  0.00  0.00    +0.177 C 
ENDROOT
BRANCH   1   2
ATOM      2  C   UNL     1       5.087   6.421  -9.961  0.00  0.00    +0.010 A 
ATOM      3  C   UNL     1       6.093   5.656  -9.370  0.00  0.00    -0.001 A 
ATOM      4  C   UNL     1       7.378   5.657  -9.912  0.00  0.00    +0.011 A 
ATOM      5  C   UNL     1       7.688   6.508 -10.968  0.00  0.00    +0.058 A 
ATOM      6 CL   UNL     1       8.818   6.036 -12.234  0.00  0.00    -0.082 Cl
ATOM      7  C   UNL     1       6.810   7.577 -11.115  0.00  0.00    +0.011 A 
ATOM      8  C   UNL     1       5.471   7.341 -10.817  0.00  0.00    -0.001 A 
ENDBRANCH   1   2
BRANCH   1   9
ATOM      9  C   UNL     1       3.471   5.905 -11.696  0.00  0.00    +0.090 A 
ATOM     10  N   UNL     1       4.134   5.290 -12.612  0.00  0.00    -0.245 NA
ATOM     11  C   UNL     1       3.809   5.467 -13.893  0.00  0.00    +0.099 A 
ATOM     12  C   UNL     1       2.543   5.933 -14.227  0.00  0.00    +0.021 A 
ATOM     13  C   UNL     1       1.632   6.056 -13.186  0.00  0.00    +0.003 A 
ATOM     14  C   UNL     1       2.145   6.246 -11.913  0.00  0.00    +0.018 A 
ENDBRANCH   1   9
BRANCH   1  15
ATOM     15  O   UNL     1       2.871   6.724  -9.607  0.00  0.00    -0.348 OA
BRANCH  15  19
ATOM     16  N   UNL     1       0.403   6.153  -6.683  0.00  0.00    -0.273 NA
ATOM     17  C   UNL     1       1.603   6.775  -6.196  0.00  0.00    +0.075 C 
ATOM     18  C   UNL     1       2.198   7.554  -7.372  0.00  0.00    +0.047 C 
ATOM     19  C   UNL     1       2.573   6.581  -8.358  0.00  0.00    +0.119 C 
ATOM     20  C   UNL     1       2.117   5.215  -8.032  0.00  0.00    +0.047 C 
ATOM     21  C   UNL     1       0.606   5.319  -7.846  0.00  0.00    +0.075 C 
BRANCH  16  22
ATOM     22  C   UNL     1      -0.286   5.352  -5.704  0.00  0.00    +0.073 C 
BRANCH  22  23
ATOM     23  C   UNL     1      -1.733   5.834  -5.711  0.00  0.00    +0.029 C 
BRANCH  23  24
ATOM     24  C   UNL     1      -2.062   6.320  -4.305  0.00  0.00    +0.115 C 
BRANCH  24  26
ATOM     25  O   UNL     1      -3.267   5.080  -3.880  0.00  0.00    -0.246 OA
ATOM     26  C   UNL     1      -2.877   5.208  -3.708  0.00  0.00    +0.365 C 
ATOM     27  O   UNL     1      -2.520   4.842  -2.403  0.00  0.00    -0.246 OA
ENDBRANCH  24  26
ENDBRANCH  23  24
ENDBRANCH  22  23
ENDBRANCH  16  22
ENDBRANCH  15  19
ENDBRANCH   1  15
TORSDOF 8
ENDMDL
MODEL 2
REMARK VINA RESULT:      -8.5      3.361      8.358
REMARK  Name = 
REMARK  8 active torsions:
REMARK  status: ('A' for Active; 'I' for Inactive)
REMARK    1  A    between atoms: C_2  and  C_4
REMARK    2  A    between atoms: C_4  and  C_5
REMARK    3  A    between atoms: C_5  and  C_6
REMARK    4  A    between atoms: C_6  and  N_7
REMARK    5  A    between atoms: C_10  and  O_11
REMARK    6  A    between atoms: O_11  and  C_12
REMARK    7  A    between atoms: C_12  and  C_13
REMARK    8  A    between atoms: C_12  and  C_20
REMARK                            x       y       z     vdW  Elec       q    Type
REMARK                         _______ _______ _______ _____ _____    ______ ____
ROOT
ATOM      1  C   UNL     1       1.588   6.526  -6.974  0.00  0.00    +0.177 C 
ENDROOT
BRANCH   1   2
ATOM      2  C   UNL     1       2.659   6.020  -5.860  0.00  0.00    +0.010 A 
ATOM      3  C   UNL     1       3.714   6.923  -5.723  0.00  0.00    -0.001 A 
ATOM      4  C   UNL     1       4.140   7.307  -4.453  0.00  0.00    +0.011 A 
ATOM      5  C   UNL     1       3.596   6.705  -3.323  0.00  0.00    +0.058 A 
ATOM      6 CL   UNL     1       3.345   7.601  -1.827  0.00  0.00    -0.082 Cl
ATOM      7  C   UNL     1       2.980   5.483  -3.570  0.00  0.00    +0.011 A 
ATOM      8  C   UNL     1       2.318   5.342  -4.787  0.00  0.00    -0.001 A 
ENDBRANCH   1   2
BRANCH   1   9
ATOM      9  C   UNL     1       0.261   6.326  -6.057  0.00  0.00    +0.090 A 
ATOM     10  N   UNL     1      -0.148   7.264  -5.276  0.00  0.00    -0.245 NA
ATOM     11  C   UNL     1      -1.321   7.142  -4.656  0.00  0.00    +0.099 A 
ATOM     12  C   UNL     1      -2.278   6.267  -5.154  0.00  0.00    +0.021 A 
ATOM     13  C   UNL     1      -1.995   5.665  -6.373  0.00  0.00    +0.003 A 
ATOM     14  C   UNL     1      -0.661   5.527  -6.717  0.00  0.00    +0.018 A 
ENDBRANCH   1   9
BRANCH   1  15
ATOM     15  O   UNL     1       1.519   5.144  -7.611  0.00  0.00    -0.348 OA
BRANCH  15  19
ATOM     16  N   UNL     1       4.169   5.927 -10.318  0.00  0.00    -0.273 NA
ATOM     17  C   UNL     1       2.876   5.784 -10.926  0.00  0.00    +0.075 C 
ATOM     18  C   UNL     1       1.847   6.146  -9.853  0.00  0.00    +0.047 C 
ATOM     19  C   UNL     1       1.965   5.152  -8.824  0.00  0.00    +0.119 C 
ATOM     20  C   UNL     1       3.114   4.245  -9.018  0.00  0.00    +0.047 C 
ATOM     21  C   UNL     1       4.339   5.148  -9.112  0.00  0.00    +0.075 C 
BRANCH  16  22
ATOM     22  C   UNL     1       5.271   5.603 -11.188  0.00  0.00    +0.073 C 
BRANCH  22  23
ATOM     23  C   UNL     1       6.519   6.154 -10.507  0.00  0.00    +0.029 C 
BRANCH  23  24
ATOM     24  C   UNL     1       7.436   6.695 -11.598  0.00  0.00    +0.115 C 
BRANCH  24  26
ATOM     25  O   UNL     1       8.777   5.535 -11.756  0.00  0.00    -0.246 OA
ATOM     26  C   UNL     1       8.360   5.551 -11.909  0.00  0.00    +0.365 C 
ATOM     27  O   UNL     1       7.959   4.735 -12.974  0.00  0.00    -0.246 OA
ENDBRANCH  24  26
ENDBRANCH  23  24
ENDBRANCH  22  23
ENDBRANCH  16  22
ENDBRANCH  15  19
ENDBRANCH   1  15
TORSDOF 8
ENDMDL
MODEL 3
REMARK VINA RESULT:      -8.3      3.774      8.934
REMARK  Name = 
REMARK  8 active torsions:
REMARK  status: ('A' for Active; 'I' for Inactive)
REMARK    1  A    between atoms: C_2  and  C_4
REMARK    2  A    between atoms: C_4  and  C_5
REMARK    3  A    between atoms: C_5  and  C_6
REMARK    4  A    between atoms: C_6  and  N_7
REMARK    5  A    between atoms: C_10  and  O_11
REMARK    6  A    between atoms: O_11  and  C_12
REMARK    7  A    between atoms: C_12  and  C_13
REMARK    8  A    between atoms: C_12  and  C_20
REMARK                            x       y       z     vdW  Elec       q    Type
REMARK                         _______ _______ _______ _____ _____    ______ ____
ROOT
ATOM      1  C   UNL     1       1.653   5.392  -6.740  0.00  0.00    +0.177 C 
ENDROOT
BRANCH   1   2
ATOM      2  C   UNL     1       0.249   6.187  -6.537  0.00  0.00    +0.010 A 
ATOM      3  C   UNL     1      -0.818   5.484  -7.096  0.00  0.00    -0.001 A 
ATOM      4  C   UNL     1      -2.000   5.322  -6.375  0.00  0.00    +0.011 A 
ATOM      5  C   UNL     1      -2.161   5.959  -5.149  0.00  0.00    +0.058 A 
ATOM      6 CL   UNL     1      -3.064   5.214  -3.831  0.00  0.00    -0.082 Cl
ATOM      7  C   UNL     1      -1.299   7.031  -4.946  0.00  0.00    +0.011 A 
ATOM      8  C   UNL     1      -0.017   6.922  -5.481  0.00  0.00    -0.001 A 
ENDBRANCH   1   2
BRANCH   1   9
ATOM      9  C   UNL     1       2.384   5.967  -5.407  0.00  0.00    +0.090 A 
ATOM     10  N   UNL     1       2.605   5.203  -4.394  0.00  0.00    -0.245 NA
ATOM     11  C   UNL     1       3.344   5.649  -3.379  0.00  0.00    +0.099 A 
ATOM     12  C   UNL     1       4.215   6.714  -3.575  0.00  0.00    +0.021 A 
ATOM     13  C   UNL     1       4.363   7.163  -4.880  0.00  0.00    +0.003 A 
ATOM     14  C   UNL     1       3.309   6.941  -5.750  0.00  0.00    +0.018 A 
ENDBRANCH   1   9
BRANCH   1  15
ATOM     15  O   UNL     1       2.192   6.474  -7.665  0.00  0.00    -0.348 OA
BRANCH  15  19
ATOM     16  N   UNL     1       3.745   6.491 -11.208  0.00  0.00    -0.273 NA
ATOM     17  C   UNL     1       2.432   5.911 -11.252  0.00  0.00    +0.075 C 
ATOM     18  C   UNL     1       1.649   6.513 -10.081  0.00  0.00    +0.047 C 
ATOM     19  C   UNL     1       2.294   6.057  -8.884  0.00  0.00    +0.119 C 
ATOM     20  C   UNL     1       3.561   5.343  -9.138  0.00  0.00    +0.047 C 
ATOM     21  C   UNL     1       4.423   6.309  -9.945  0.00  0.00    +0.075 C 
BRANCH  16  22
ATOM     22  C   UNL     1       4.635   6.019 -12.237  0.00  0.00    +0.073 C 
BRANCH  22  23
ATOM     23  C   UNL     1       5.981   6.682 -11.965  0.00  0.00    +0.029 C 
BRANCH  23  24
ATOM     24  C   UNL     1       6.961   6.181 -13.020  0.00  0.00    +0.115 C 
BRANCH  24  26
ATOM     25  O   UNL     1       7.729   4.664 -12.493  0.00  0.00    -0.246 OA
ATOM     26  C   UNL     1       7.716   5.079 -12.333  0.00  0.00    +0.365 C 
ATOM     27  O   UNL     1       8.076   5.342 -11.005  0.00  0.00    -0.246 OA
ENDBRANCH  24  26
ENDBRANCH  23  24
ENDBRANCH  22  23
ENDBRANCH  16  22
ENDBRANCH  15  19
ENDBRANCH   1  15
TORSDOF 8
ENDMDL
MODEL 4
REMARK VINA RESULT:      -8.2      3.700      8.618
REMARK  Name = 
REMARK  8 active torsions:
REMARK  status: ('A' for Active; 'I' for Inactive)
REMARK    1  A    between atoms: C_2  and  C_4
REMARK    2  A    between atoms: C_4  and  C_5
REMARK    3  A    between atoms: C_5  and  C_6
REMARK    4  A    between atoms: C_6  and  N_7
REMARK    5  A    between atoms: C_10  and  O_11
REMARK    6  A    between atoms: O_11  and  C_12
REMARK    7  A    between atoms: C_12  and  C_13
REMARK    8  A    between atoms: C_12  and  C_20
REMARK                            x       y       z     vdW  Elec       q    Type
REMARK                         _______ _______ _______ _____ _____    ______ ____
ROOT
ATOM      1  C   UNL     1       1.732   6.538  -5.411  0.00  0.00    +0.177 C 
ENDROOT
BRANCH   1   2
ATOM      2  C   UNL     1       2.114   5.551  -4.178  0.00  0.00    +0.010 A 
ATOM      3  C   UNL     1       3.449   5.151  -4.242  0.00  0.00    -0.001 A 
ATOM      4  C   UNL     1       4.244   5.190  -3.098  0.00  0.00    +0.011 A 
ATOM      5  C   UNL     1       3.680   5.515  -1.869  0.00  0.00    +0.058 A 
ATOM      6 CL   UNL     1       4.573   6.425  -0.652  0.00  0.00    -0.082 Cl
ATOM      7  C   UNL     1       2.299   5.364  -1.818  0.00  0.00    +0.011 A 
ATOM      8  C   UNL     1       1.587   5.657  -2.979  0.00  0.00    -0.001 A 
ENDBRANCH   1   2
BRANCH   1   9
ATOM      9  C   UNL     1       0.119   6.383  -5.278  0.00  0.00    +0.090 A 
ATOM     10  N   UNL     1      -0.633   7.418  -5.136  0.00  0.00    -0.245 NA
ATOM     11  C   UNL     1      -1.958   7.284  -5.188  0.00  0.00    +0.099 A 
ATOM     12  C   UNL     1      -2.516   6.172  -5.807  0.00  0.00    +0.021 A 
ATOM     13  C   UNL     1      -1.637   5.324  -6.469  0.00  0.00    +0.003 A 
ATOM     14  C   UNL     1      -0.323   5.308  -6.033  0.00  0.00    +0.018 A 
ENDBRANCH   1   9
BRANCH   1  15
ATOM     15  O   UNL     1       1.890   5.415  -6.427  0.00  0.00    -0.348 OA
BRANCH  15  19
ATOM     16  N   UNL     1       4.590   5.955  -9.145  0.00  0.00    -0.273 NA
ATOM     17  C   UNL     1       3.539   6.921  -9.301  0.00  0.00    +0.075 C 
ATOM     18  C   UNL     1       2.912   7.111  -7.917  0.00  0.00    +0.047 C 
ATOM     19  C   UNL     1       2.310   5.855  -7.568  0.00  0.00    +0.119 C 
ATOM     20  C   UNL     1       2.631   4.770  -8.516  0.00  0.00    +0.047 C 
ATOM     21  C   UNL     1       4.154   4.704  -8.566  0.00  0.00    +0.075 C 
BRANCH  16  22
ATOM     22  C   UNL     1       5.285   5.635 -10.366  0.00  0.00    +0.073 C 
BRANCH  22  23
ATOM     23  C   UNL     1       6.771   5.766 -10.049  0.00  0.00    +0.029 C 
BRANCH  23  24
ATOM     24  C   UNL     1       7.403   6.606 -11.152  0.00  0.00    +0.115 C 
BRANCH  24  26
ATOM     25  O   UNL     1       8.810   5.780 -11.863  0.00  0.00    -0.246 OA
ATOM     26  C   UNL     1       8.380   5.677 -11.815  0.00  0.00    +0.365 C 
ATOM     27  O   UNL     1       7.804   4.650 -12.572  0.00  0.00    -0.246 OA
ENDBRANCH  24  26
ENDBRANCH  23  24
ENDBRANCH  22  23
ENDBRANCH  16  22
ENDBRANCH  15  19
ENDBRANCH   1  15
TORSDOF 8
ENDMDL
MODEL 5
REMARK VINA RESULT:      -8.0      4.054      9.393
REMARK  Name = 
REMARK  8 active torsions:
REMARK  status: ('A' for Active; 'I' for Inactive)
REMARK    1  A    between atoms: C_2  and  C_4
REMARK    2  A    between atoms: C_4  and  C_5
REMARK    3  A    between atoms: C_5  and  C_6
REMARK    4  A    between atoms: C_6  and  N_7
REMARK    5  A    between atoms: C_10  and  O_11
REMARK    6  A    between atoms: O_11  and  C_12
REMARK    7  A    between atoms: C_12  and  C_13
REMARK    8  A    between atoms: C_12  and  C_20
REMARK                            x       y       z     vdW  Elec       q    Type
REMARK                         _______ _______ _______ _____ _____    ______ ____
ROOT
ATOM      1  C   UNL     1       1.096   4.982  -5.477  0.00  0.00    +0.177 C 
ENDROOT
BRANCH   1   2
ATOM      2  C   UNL     1      -0.146   6.007  -5.701  0.00  0.00    +0.010 A 
ATOM      3  C   UNL     1      -1.321   5.322  -6.009  0.00  0.00    -0.001 A 
ATOM      4  C   UNL     1      -2.512   5.656  -5.366  0.00  0.00    +0.011 A 
ATOM      5  C   UNL     1      -2.556   6.749  -4.506  0.00  0.00    +0.058 A 
ATOM      6 CL   UNL     1      -3.573   6.752  -3.067  0.00  0.00    -0.082 Cl
ATOM      7  C   UNL     1      -1.518   7.657  -4.685  0.00  0.00    +0.011 A 
ATOM      8  C   UNL     1      -0.277   7.137  -5.044  0.00  0.00    -0.001 A 
ENDBRANCH   1   2
BRANCH   1   9
ATOM      9  C   UNL     1       1.378   5.372  -3.924  0.00  0.00    +0.090 A 
ATOM     10  N   UNL     1       0.589   4.971  -2.989  0.00  0.00    -0.245 NA
ATOM     11  C   UNL     1       0.923   5.166  -1.714  0.00  0.00    +0.099 A 
ATOM     12  C   UNL     1       2.253   5.385  -1.374  0.00  0.00    +0.021 A 
ATOM     13  C   UNL     1       3.185   5.245  -2.393  0.00  0.00    +0.003 A 
ATOM     14  C   UNL     1       2.742   5.447  -3.690  0.00  0.00    +0.018 A 
ENDBRANCH   1   9
BRANCH   1  15
ATOM     15  O   UNL     1       2.092   5.981  -6.049  0.00  0.00    -0.348 OA
BRANCH  15  19
ATOM     16  N   UNL     1       3.310   5.563  -9.696  0.00  0.00    -0.273 NA
ATOM     17  C   UNL     1       3.625   4.385  -8.938  0.00  0.00    +0.075 C 
ATOM     18  C   UNL     1       2.598   4.309  -7.805  0.00  0.00    +0.047 C 
ATOM     19  C   UNL     1       2.831   5.450  -6.967  0.00  0.00    +0.119 C 
ATOM     20  C   UNL     1       3.811   6.399  -7.532  0.00  0.00    +0.047 C 
ATOM     21  C   UNL     1       3.273   6.775  -8.909  0.00  0.00    +0.075 C 
BRANCH  16  22
ATOM     22  C   UNL     1       4.198   5.808 -10.804  0.00  0.00    +0.073 C 
BRANCH  22  23
ATOM     23  C   UNL     1       5.599   5.481 -10.299  0.00  0.00    +0.029 C 
BRANCH  23  24
ATOM     24  C   UNL     1       6.585   6.316 -11.108  0.00  0.00    +0.115 C 
BRANCH  24  26
ATOM     25  O   UNL     1       8.132   5.437 -11.150  0.00  0.00    -0.246 OA
ATOM     26  C   UNL     1       7.741   5.390 -11.357  0.00  0.00    +0.365 C 
ATOM     27  O   UNL     1       7.638   4.607 -12.514  0.00  0.00    -0.246 OA
ENDBRANCH  24  26
ENDBRANCH  23  24
ENDBRANCH  22  23
ENDBRANCH  16  22
ENDBRANCH  15  19
ENDBRANCH   1  15
TORSDOF 8
ENDMDL
MODEL 6
REMARK VINA RESULT:      -8.0      2.477      3.192
REMARK  Name = 
REMARK  8 active torsions:
REMARK  status: ('A' for Active; 'I' for Inactive)
REMARK    1  A    between atoms: C_2  and  C_4
REMARK    2  A    between atoms: C_4  and  C_5
REMARK    3  A    between atoms: C_5  and  C_6
REMARK    4  A    between atoms: C_6  and  N_7
REMARK    5  A    between atoms: C_10  and  O_11
REMARK    6  A    between atoms: O_11  and  C_12
REMARK    7  A    between atoms: C_12  and  C_13
REMARK    8  A    between atoms: C_12  and  C_20
REMARK                            x       y       z     vdW  Elec       q    Type
REMARK                         _______ _______ _______ _____ _____    ______ ____
ROOT
ATOM      1  C   UNL     1       3.879   5.367 -10.098  0.00  0.00    +0.177 C 
ENDROOT
BRANCH   1   2
ATOM      2  C   UNL     1       5.203   6.296  -9.934  0.00  0.00    +0.010 A 
ATOM      3  C   UNL     1       6.223   5.615  -9.271  0.00  0.00    -0.001 A 
ATOM      4  C   UNL     1       7.525   5.653  -9.768  0.00  0.00    +0.011 A 
ATOM      5  C   UNL     1       7.831   6.464 -10.857  0.00  0.00    +0.058 A 
ATOM      6 CL   UNL     1       9.028   5.987 -12.058  0.00  0.00    -0.082 Cl
ATOM      7  C   UNL     1       6.908   7.478 -11.089  0.00  0.00    +0.011 A 
ATOM      8  C   UNL     1       5.572   7.190 -10.824  0.00  0.00    -0.001 A 
ENDBRANCH   1   2
BRANCH   1   9
ATOM      9  C   UNL     1       3.535   5.805 -11.625  0.00  0.00    +0.090 A 
ATOM     10  N   UNL     1       4.096   5.216 -12.623  0.00  0.00    -0.245 NA
ATOM     11  C   UNL     1       3.683   5.480 -13.862  0.00  0.00    +0.099 A 
ATOM     12  C   UNL     1       2.419   6.017 -14.070  0.00  0.00    +0.021 A 
ATOM     13  C   UNL     1       1.596   6.118 -12.956  0.00  0.00    +0.003 A 
ATOM     14  C   UNL     1       2.213   6.213 -11.719  0.00  0.00    +0.018 A 
ENDBRANCH   1   9
BRANCH   1  15
ATOM     15  O   UNL     1       2.993   6.423  -9.453  0.00  0.00    -0.348 OA
BRANCH  15  19
ATOM     16  N   UNL     1       3.001   5.839  -5.629  0.00  0.00    -0.273 NA
ATOM     17  C   UNL     1       2.079   4.937  -6.259  0.00  0.00    +0.075 C 
ATOM     18  C   UNL     1       2.580   4.731  -7.692  0.00  0.00    +0.047 C 
ATOM     19  C   UNL     1       2.473   6.003  -8.347  0.00  0.00    +0.119 C 
ATOM     20  C   UNL     1       2.112   7.104  -7.431  0.00  0.00    +0.047 C 
ATOM     21  C   UNL     1       3.172   7.090  -6.333  0.00  0.00    +0.075 C 
BRANCH  16  22
ATOM     22  C   UNL     1       2.670   6.165  -4.265  0.00  0.00    +0.073 C 
BRANCH  22  23
ATOM     23  C   UNL     1       3.989   6.160  -3.500  0.00  0.00    +0.029 C 
BRANCH  23  24
ATOM     24  C   UNL     1       4.081   4.835  -2.753  0.00  0.00    +0.115 C 
BRANCH  24  26
ATOM     25  O   UNL     1       4.286   5.279  -1.042  0.00  0.00    -0.246 OA
ATOM     26  C   UNL     1       3.935   5.212  -1.306  0.00  0.00    +0.365 C 
ATOM     27  O   UNL     1       2.663   4.997  -0.760  0.00  0.00    -0.246 OA
ENDBRANCH  24  26
ENDBRANCH  23  24
ENDBRANCH  22  23
ENDBRANCH  16  22
ENDBRANCH  15  19
ENDBRANCH   1  15
TORSDOF 8
ENDMDL
MODEL 7
REMARK VINA RESULT:      -7.9      4.108      8.691
REMARK  Name = 
REMARK  8 active torsions:
REMARK  status: ('A' for Active; 'I' for Inactive)
REMARK    1  A    between atoms: C_2  and  C_4
REMARK    2  A    between atoms: C_4  and  C_5
REMARK    3  A    between atoms: C_5  and  C_6
REMARK    4  A    between atoms: C_6  and  N_7
REMARK    5  A    between atoms: C_10  and  O_11
REMARK    6  A    between atoms: O_11  and  C_12
REMARK    7  A    between atoms: C_12  and  C_13
REMARK    8  A    between atoms: C_12  and  C_20
REMARK                            x       y       z     vdW  Elec       q    Type
REMARK                         _______ _______ _______ _____ _____    ______ ____
ROOT
ATOM      1  C   UNL     1       1.170   5.654  -5.397  0.00  0.00    +0.177 C 
ENDROOT
BRANCH   1   2
ATOM      2  C   UNL     1      -0.242   6.442  -5.569  0.00  0.00    +0.010 A 
ATOM      3  C   UNL     1      -1.280   5.562  -5.876  0.00  0.00    -0.001 A 
ATOM      4  C   UNL     1      -2.496   5.657  -5.203  0.00  0.00    +0.011 A 
ATOM      5  C   UNL     1      -2.718   6.700  -4.309  0.00  0.00    +0.058 A 
ATOM      6 CL   UNL     1      -3.686   6.481  -2.853  0.00  0.00    -0.082 Cl
ATOM      7  C   UNL     1      -1.867   7.787  -4.479  0.00  0.00    +0.011 A 
ATOM      8  C   UNL     1      -0.560   7.511  -4.875  0.00  0.00    -0.001 A 
ENDBRANCH   1   2
BRANCH   1   9
ATOM      9  C   UNL     1       1.250   5.769  -3.777  0.00  0.00    +0.090 A 
ATOM     10  N   UNL     1       0.486   5.054  -3.027  0.00  0.00    -0.245 NA
ATOM     11  C   UNL     1       0.676   5.047  -1.708  0.00  0.00    +0.099 A 
ATOM     12  C   UNL     1       1.906   5.427  -1.185  0.00  0.00    +0.021 A 
ATOM     13  C   UNL     1       2.923   5.663  -2.100  0.00  0.00    +0.003 A 
ATOM     14  C   UNL     1       2.550   6.039  -3.380  0.00  0.00    +0.018 A 
ENDBRANCH   1   9
BRANCH   1  15
ATOM     15  O   UNL     1       1.970   6.923  -5.661  0.00  0.00    -0.348 OA
BRANCH  15  19
ATOM     16  N   UNL     1       2.677   5.916  -9.328  0.00  0.00    -0.273 NA
ATOM     17  C   UNL     1       3.910   5.989  -8.594  0.00  0.00    +0.075 C 
ATOM     18  C   UNL     1       3.561   5.719  -7.128  0.00  0.00    +0.047 C 
ATOM     19  C   UNL     1       2.727   6.806  -6.701  0.00  0.00    +0.119 C 
ATOM     20  C   UNL     1       2.326   7.702  -7.804  0.00  0.00    +0.047 C 
ATOM     21  C   UNL     1       1.650   6.806  -8.837  0.00  0.00    +0.075 C 
BRANCH  16  22
ATOM     22  C   UNL     1       2.814   6.168 -10.740  0.00  0.00    +0.073 C 
BRANCH  22  23
ATOM     23  C   UNL     1       1.421   6.540 -11.237  0.00  0.00    +0.029 C 
BRANCH  23  24
ATOM     24  C   UNL     1       1.294   6.033 -12.668  0.00  0.00    +0.115 C 
BRANCH  24  26
ATOM     25  O   UNL     1       0.489   4.459 -12.882  0.00  0.00    -0.246 OA
ATOM     26  C   UNL     1       0.542   4.739 -12.540  0.00  0.00    +0.365 C 
ATOM     27  O   UNL     1      -0.270   4.632 -11.403  0.00  0.00    -0.246 OA
ENDBRANCH  24  26
ENDBRANCH  23  24
ENDBRANCH  22  23
ENDBRANCH  16  22
ENDBRANCH  15  19
ENDBRANCH   1  15
TORSDOF 8
ENDMDL
MODEL 8
REMARK VINA RESULT:      -7.9      3.609      8.676
REMARK  Name = 
REMARK  8 active torsions:
REMARK  status: ('A' for Active; 'I' for Inactive)
REMARK    1  A    between atoms: C_2  and  C_4
REMARK    2  A    between atoms: C_4  and  C_5
REMARK    3  A    between atoms: C_5  and  C_6
REMARK    4  A    between atoms: C_6  and  N_7
REMARK    5  A    between atoms: C_10  and  O_11
REMARK    6  A    between atoms: O_11  and  C_12
REMARK    7  A    between atoms: C_12  and  C_13
REMARK    8  A    between atoms: C_12  and  C_20
REMARK                            x       y       z     vdW  Elec       q    Type
REMARK                         _______ _______ _______ _____ _____    ______ ____
ROOT
ATOM      1  C   UNL     1       2.126   4.636  -6.598  0.00  0.00    +0.177 C 
ENDROOT
BRANCH   1   2
ATOM      2  C   UNL     1       0.654   4.707  -5.911  0.00  0.00    +0.010 A 
ATOM      3  C   UNL     1       0.739   5.063  -4.565  0.00  0.00    -0.001 A 
ATOM      4  C   UNL     1      -0.112   6.039  -4.048  0.00  0.00    +0.011 A 
ATOM      5  C   UNL     1      -1.123   6.572  -4.841  0.00  0.00    +0.058 A 
ATOM      6 CL   UNL     1      -1.617   8.258  -4.700  0.00  0.00    -0.082 Cl
ATOM      7  C   UNL     1      -1.459   5.789  -5.940  0.00  0.00    +0.011 A 
ATOM      8  C   UNL     1      -0.426   5.087  -6.556  0.00  0.00    -0.001 A 
ENDBRANCH   1   2
BRANCH   1   9
ATOM      9  C   UNL     1       2.941   5.294  -5.355  0.00  0.00    +0.090 A 
ATOM     10  N   UNL     1       3.757   4.587  -4.653  0.00  0.00    -0.245 NA
ATOM     11  C   UNL     1       4.530   5.180  -3.745  0.00  0.00    +0.099 A 
ATOM     12  C   UNL     1       4.789   6.542  -3.840  0.00  0.00    +0.021 A 
ATOM     13  C   UNL     1       4.326   7.184  -4.981  0.00  0.00    +0.003 A 
ATOM     14  C   UNL     1       3.236   6.622  -5.626  0.00  0.00    +0.018 A 
ENDBRANCH   1   9
BRANCH   1  15
ATOM     15  O   UNL     1       1.906   5.954  -7.327  0.00  0.00    -0.348 OA
BRANCH  15  19
ATOM     16  N   UNL     1       3.357   6.345 -10.892  0.00  0.00    -0.273 NA
ATOM     17  C   UNL     1       1.938   6.130 -10.962  0.00  0.00    +0.075 C 
ATOM     18  C   UNL     1       1.354   6.641  -9.642  0.00  0.00    +0.047 C 
ATOM     19  C   UNL     1       1.880   5.794  -8.610  0.00  0.00    +0.119 C 
ATOM     20  C   UNL     1       2.918   4.861  -9.091  0.00  0.00    +0.047 C 
ATOM     21  C   UNL     1       3.986   5.734  -9.743  0.00  0.00    +0.075 C 
BRANCH  16  22
ATOM     22  C   UNL     1       4.080   5.899 -12.055  0.00  0.00    +0.073 C 
BRANCH  22  23
ATOM     23  C   UNL     1       5.547   5.844 -11.642  0.00  0.00    +0.029 C 
BRANCH  23  24
ATOM     24  C   UNL     1       6.362   5.513 -12.886  0.00  0.00    +0.115 C 
BRANCH  24  26
ATOM     25  O   UNL     1       7.827   4.618 -12.414  0.00  0.00    -0.246 OA
ATOM     26  C   UNL     1       7.681   5.034 -12.351  0.00  0.00    +0.365 C 
ATOM     27  O   UNL     1       8.252   5.844 -11.360  0.00  0.00    -0.246 OA
ENDBRANCH  24  26
ENDBRANCH  23  24
ENDBRANCH  22  23
ENDBRANCH  16  22
ENDBRANCH  15  19
ENDBRANCH   1  15
TORSDOF 8
ENDMDL
MODEL 9
REMARK VINA RESULT:      -7.9      2.457      4.180
REMARK  Name = 
REMARK  8 active torsions:
REMARK  status: ('A' for Active; 'I' for Inactive)
REMARK    1  A    between atoms: C_2  and  C_4
REMARK    2  A    between atoms: C_4  and  C_5
REMARK    3  A    between atoms: C_5  and  C_6
REMARK    4  A    between atoms: C_6  and  N_7
REMARK    5  A    between atoms: C_10  and  O_11
REMARK    6  A    between atoms: O_11  and  C_12
REMARK    7  A    between atoms: C_12  and  C_13
REMARK    8  A    between atoms: C_12  and  C_20
REMARK                            x       y       z     vdW  Elec       q    Type
REMARK                         _______ _______ _______ _____ _____    ______ ____
ROOT
ATOM      1  C   UNL     1       2.746   6.669  -8.269  0.00  0.00    +0.177 C 
ENDROOT
BRANCH   1   2
ATOM      2  C   UNL     1       1.470   5.972  -8.997  0.00  0.00    +0.010 A 
ATOM      3  C   UNL     1       0.727   6.904  -9.722  0.00  0.00    -0.001 A 
ATOM      4  C   UNL     1       0.315   6.608 -11.020  0.00  0.00    +0.011 A 
ATOM      5  C   UNL     1       0.541   5.342 -11.551  0.00  0.00    +0.058 A 
ATOM      6 CL   UNL     1       0.904   5.106 -13.259  0.00  0.00    -0.082 Cl
ATOM      7  C   UNL     1       0.782   4.359 -10.597  0.00  0.00    +0.011 A 
ATOM      8  C   UNL     1       1.486   4.742  -9.458  0.00  0.00    -0.001 A 
ENDBRANCH   1   2
BRANCH   1   9
ATOM      9  C   UNL     1       3.844   6.269  -9.399  0.00  0.00    +0.090 A 
ATOM     10  N   UNL     1       4.057   7.034 -10.412  0.00  0.00    -0.245 NA
ATOM     11  C   UNL     1       5.068   6.769 -11.239  0.00  0.00    +0.099 A 
ATOM     12  C   UNL     1       6.124   5.976 -10.807  0.00  0.00    +0.021 A 
ATOM     13  C   UNL     1       6.124   5.619  -9.465  0.00  0.00    +0.003 A 
ATOM     14  C   UNL     1       4.899   5.582  -8.819  0.00  0.00    +0.018 A 
ENDBRANCH   1   9
BRANCH   1  15
ATOM     15  O   UNL     1       2.990   5.441  -7.404  0.00  0.00    -0.348 OA
BRANCH  15  19
ATOM     16  N   UNL     1       1.351   6.458  -4.052  0.00  0.00    -0.273 NA
ATOM     17  C   UNL     1       2.747   6.791  -4.034  0.00  0.00    +0.075 C 
ATOM     18  C   UNL     1       3.163   7.005  -5.492  0.00  0.00    +0.047 C 
ATOM     19  C   UNL     1       3.019   5.737  -6.147  0.00  0.00    +0.119 C 
ATOM     20  C   UNL     1       2.366   4.715  -5.304  0.00  0.00    +0.047 C 
ATOM     21  C   UNL     1       1.030   5.321  -4.884  0.00  0.00    +0.075 C 
BRANCH  16  22
ATOM     22  C   UNL     1       0.788   6.200  -2.751  0.00  0.00    +0.073 C 
BRANCH  22  23
ATOM     23  C   UNL     1      -0.455   5.351  -2.992  0.00  0.00    +0.029 C 
BRANCH  23  24
ATOM     24  C   UNL     1      -1.484   5.732  -1.934  0.00  0.00    +0.115 C 
BRANCH  24  26
ATOM     25  O   UNL     1      -2.851   4.867  -2.676  0.00  0.00    -0.246 OA
ATOM     26  C   UNL     1      -2.795   5.275  -2.508  0.00  0.00    +0.365 C 
ATOM     27  O   UNL     1      -3.706   6.298  -2.800  0.00  0.00    -0.246 OA
ENDBRANCH  24  26
ENDBRANCH  23  24
ENDBRANCH  22  23
ENDBRANCH  16  22
ENDBRANCH  15  19
ENDBRANCH   1  15
TORSDOF 8
ENDMDL
