MODEL 1
REMARK VINA RESULT:      -6.2      0.000      0.000
REMARK  Name = 
REMARK  12 active torsions:
REMARK  status: ('A' for Active; 'I' for Inactive)
REMARK    1  A    between atoms: N_4  and  C_5
REMARK    2  A    between atoms: N_4  and  C_10
REMARK    3  A    between atoms: C_5  and  C_6
REMARK    4  A    between atoms: C_6  and  C_8
REMARK    5  A    between atoms: C_13  and  C_14
REMARK    6  A    between atoms: N_16  and  C_17
REMARK    7  A    between atoms: C_17  and  C_18
REMARK    8  A    between atoms: C_18  and  C_20
REMARK    9  A    between atoms: C_24  and  C_25
REMARK   10  A    between atoms: N_27  and  C_28
REMARK   11  A    between atoms: C_28  and  C_29
REMARK   12  A    between atoms: C_29  and  C_31
REMARK                            x       y       z     vdW  Elec       q    Type
REMARK                         _______ _______ _______ _____ _____    ______ ____
ROOT
ATOM      1  C   UNL     1       1.446   5.216  -5.457  0.00  0.00    +0.065 A 
ATOM      2  C   UNL     1       0.166   5.333  -4.948  0.00  0.00    +0.049 A 
ATOM      3  I   UNL     1      -1.451   6.040  -6.115  0.00  0.00    -0.041 I 
ATOM      4  C   UNL     1       0.045   5.329  -3.566  0.00  0.00    +0.067 A 
ATOM      5  C   UNL     1       1.183   5.520  -2.799  0.00  0.00    +0.040 A 
ATOM      6  I   UNL     1       1.074   5.466  -0.714  0.00  0.00    -0.042 I 
ATOM      7  C   UNL     1       2.415   5.859  -3.343  0.00  0.00    +0.067 A 
ATOM      8  C   UNL     1       2.558   5.518  -4.686  0.00  0.00    +0.049 A 
ATOM      9  I   UNL     1       4.405   6.002  -5.609  0.00  0.00    -0.041 I 
ENDROOT
BRANCH   1  12
ATOM     10  C   UNL     1       2.974   4.044  -8.556  0.00  0.00    +0.095 C 
ATOM     11  C   UNL     1       2.258   4.009  -7.360  0.00  0.00    +0.230 C 
ATOM     12  N   UNL     1       1.528   5.144  -6.887  0.00  0.00    -0.255 N 
ATOM     13  O   UNL     1       2.116   2.900  -6.796  0.00  0.00    -0.275 OA
BRANCH  12  14
ATOM     14  C   UNL     1       1.728   6.439  -7.543  0.00  0.00    +0.134 C 
BRANCH  14  15
ATOM     15  C   UNL     1       2.140   5.996  -9.112  0.00  0.00    +0.205 C 
ATOM     16  O   UNL     1       3.057   7.232  -9.266  0.00  0.00    -0.218 OA
BRANCH  15  17
ATOM     17  C   UNL     1       0.834   6.843  -9.747  0.00  0.00    +0.217 C 
ATOM     18  O   UNL     1      -0.096   5.789  -9.739  0.00  0.00    -0.218 OA
ENDBRANCH  15  17
ENDBRANCH  14  15
ENDBRANCH  12  14
ENDBRANCH   1  12
BRANCH   4  19
ATOM     19  C   UNL     1      -1.263   5.706  -3.003  0.00  0.00    +0.266 C 
ATOM     20  N   UNL     1      -1.393   6.912  -2.238  0.00  0.00    -0.199 NA
ATOM     21  O   UNL     1      -1.889   4.710  -2.523  0.00  0.00    -0.268 OA
BRANCH  20  22
ATOM     22  C   UNL     1      -2.342   7.039  -1.135  0.00  0.00    +0.151 C 
BRANCH  22  23
ATOM     23  C   UNL     1      -1.259   7.303   0.127  0.00  0.00    +0.206 C 
ATOM     24  O   UNL     1      -1.295   8.833  -0.106  0.00  0.00    -0.218 OA
BRANCH  23  25
ATOM     25  C   UNL     1      -2.488   7.389   1.272  0.00  0.00    +0.217 C 
ATOM     26  O   UNL     1      -2.185   6.418   2.190  0.00  0.00    -0.218 OA
ENDBRANCH  23  25
ENDBRANCH  22  23
ENDBRANCH  20  22
ENDBRANCH   4  19
BRANCH   7  27
ATOM     27  C   UNL     1       3.291   6.849  -2.701  0.00  0.00    +0.266 C 
ATOM     28  N   UNL     1       4.364   6.559  -1.848  0.00  0.00    -0.199 NA
ATOM     29  O   UNL     1       2.872   8.042  -2.829  0.00  0.00    -0.268 OA
BRANCH  28  30
ATOM     30  C   UNL     1       4.692   7.549  -0.901  0.00  0.00    +0.151 C 
BRANCH  30  31
ATOM     31  C   UNL     1       4.630   6.860   0.628  0.00  0.00    +0.206 C 
ATOM     32  O   UNL     1       5.767   7.732   1.219  0.00  0.00    -0.218 OA
BRANCH  31  33
ATOM     33  C   UNL     1       3.459   7.962   1.123  0.00  0.00    +0.217 C 
ATOM     34  O   UNL     1       3.332   7.582   2.471  0.00  0.00    -0.218 OA
ENDBRANCH  31  33
ENDBRANCH  30  31
ENDBRANCH  28  30
ENDBRANCH   7  27
TORSDOF 12
ENDMDL
MODEL 2
REMARK VINA RESULT:      -5.9      2.331      7.978
REMARK  Name = 
REMARK  12 active torsions:
REMARK  status: ('A' for Active; 'I' for Inactive)
REMARK    1  A    between atoms: N_4  and  C_5
REMARK    2  A    between atoms: N_4  and  C_10
REMARK    3  A    between atoms: C_5  and  C_6
REMARK    4  A    between atoms: C_6  and  C_8
REMARK    5  A    between atoms: C_13  and  C_14
REMARK    6  A    between atoms: N_16  and  C_17
REMARK    7  A    between atoms: C_17  and  C_18
REMARK    8  A    between atoms: C_18  and  C_20
REMARK    9  A    between atoms: C_24  and  C_25
REMARK   10  A    between atoms: N_27  and  C_28
REMARK   11  A    between atoms: C_28  and  C_29
REMARK   12  A    between atoms: C_29  and  C_31
REMARK                            x       y       z     vdW  Elec       q    Type
REMARK                         _______ _______ _______ _____ _____    ______ ____
ROOT
ATOM      1  C   UNL     1       3.265   6.549  -2.242  0.00  0.00    +0.065 A 
ATOM      2  C   UNL     1       4.020   6.581  -3.399  0.00  0.00    +0.049 A 
ATOM      3  I   UNL     1       5.470   8.079  -3.758  0.00  0.00    -0.041 I 
ATOM      4  C   UNL     1       3.549   5.832  -4.468  0.00  0.00    +0.067 A 
ATOM      5  C   UNL     1       2.245   5.369  -4.431  0.00  0.00    +0.040 A 
ATOM      6  I   UNL     1       1.497   4.188  -5.983  0.00  0.00    -0.042 I 
ATOM      7  C   UNL     1       1.337   5.736  -3.444  0.00  0.00    +0.067 A 
ATOM      8  C   UNL     1       1.929   6.178  -2.264  0.00  0.00    +0.049 A 
ATOM      9  I   UNL     1       0.625   6.769  -0.699  0.00  0.00    -0.041 I 
ENDROOT
BRANCH   1  12
ATOM     10  C   UNL     1       4.392   6.793   1.220  0.00  0.00    +0.095 C 
ATOM     11  C   UNL     1       4.376   6.422  -0.124  0.00  0.00    +0.230 C 
ATOM     12  N   UNL     1       3.820   7.269  -1.132  0.00  0.00    -0.255 N 
ATOM     13  O   UNL     1       5.028   5.406  -0.456  0.00  0.00    -0.275 OA
BRANCH  12  14
ATOM     14  C   UNL     1       3.038   8.438  -0.723  0.00  0.00    +0.134 C 
BRANCH  14  15
ATOM     15  C   UNL     1       4.204   9.438  -0.039  0.00  0.00    +0.205 C 
ATOM     16  O   UNL     1       3.297   9.734   1.179  0.00  0.00    -0.218 OA
BRANCH  15  17
ATOM     17  C   UNL     1       3.604  10.780  -0.855  0.00  0.00    +0.217 C 
ATOM     18  O   UNL     1       3.903  11.744   0.123  0.00  0.00    -0.218 OA
ENDBRANCH  15  17
ENDBRANCH  14  15
ENDBRANCH  12  14
ENDBRANCH   1  12
BRANCH   4  19
ATOM     19  C   UNL     1       4.189   6.050  -5.777  0.00  0.00    +0.266 C 
ATOM     20  N   UNL     1       3.443   6.645  -6.848  0.00  0.00    -0.199 NA
ATOM     21  O   UNL     1       4.922   5.073  -6.126  0.00  0.00    -0.268 OA
BRANCH  20  22
ATOM     22  C   UNL     1       3.681   6.305  -8.248  0.00  0.00    +0.151 C 
BRANCH  22  23
ATOM     23  C   UNL     1       2.092   6.316  -8.804  0.00  0.00    +0.206 C 
ATOM     24  O   UNL     1       1.993   7.849  -8.621  0.00  0.00    -0.218 OA
BRANCH  23  25
ATOM     25  C   UNL     1       2.568   6.480 -10.409  0.00  0.00    +0.217 C 
ATOM     26  O   UNL     1       3.885   6.849 -10.352  0.00  0.00    -0.218 OA
ENDBRANCH  23  25
ENDBRANCH  22  23
ENDBRANCH  20  22
ENDBRANCH   4  19
BRANCH   7  27
ATOM     27  C   UNL     1      -0.065   6.038  -3.765  0.00  0.00    +0.266 C 
ATOM     28  N   UNL     1      -1.158   5.198  -3.517  0.00  0.00    -0.199 NA
ATOM     29  O   UNL     1      -0.198   7.077  -4.485  0.00  0.00    -0.268 OA
BRANCH  28  30
ATOM     30  C   UNL     1      -2.267   5.350  -4.373  0.00  0.00    +0.151 C 
BRANCH  30  31
ATOM     31  C   UNL     1      -3.654   5.435  -3.432  0.00  0.00    +0.206 C 
ATOM     32  O   UNL     1      -2.966   4.957  -2.127  0.00  0.00    -0.218 OA
BRANCH  31  33
ATOM     33  C   UNL     1      -3.353   7.048  -3.061  0.00  0.00    +0.217 C 
ATOM     34  O   UNL     1      -3.170   6.940  -1.670  0.00  0.00    -0.218 OA
ENDBRANCH  31  33
ENDBRANCH  30  31
ENDBRANCH  28  30
ENDBRANCH   7  27
TORSDOF 12
ENDMDL
MODEL 3
REMARK VINA RESULT:      -5.9      4.873      8.438
REMARK  Name = 
REMARK  12 active torsions:
REMARK  status: ('A' for Active; 'I' for Inactive)
REMARK    1  A    between atoms: N_4  and  C_5
REMARK    2  A    between atoms: N_4  and  C_10
REMARK    3  A    between atoms: C_5  and  C_6
REMARK    4  A    between atoms: C_6  and  C_8
REMARK    5  A    between atoms: C_13  and  C_14
REMARK    6  A    between atoms: N_16  and  C_17
REMARK    7  A    between atoms: C_17  and  C_18
REMARK    8  A    between atoms: C_18  and  C_20
REMARK    9  A    between atoms: C_24  and  C_25
REMARK   10  A    between atoms: N_27  and  C_28
REMARK   11  A    between atoms: C_28  and  C_29
REMARK   12  A    between atoms: C_29  and  C_31
REMARK                            x       y       z     vdW  Elec       q    Type
REMARK                         _______ _______ _______ _____ _____    ______ ____
ROOT
ATOM      1  C   UNL     1       1.884   5.544 -12.117  0.00  0.00    +0.065 A 
ATOM      2  C   UNL     1       1.260   5.846 -10.921  0.00  0.00    +0.049 A 
ATOM      3  I   UNL     1      -0.545   6.948 -10.838  0.00  0.00    -0.041 I 
ATOM      4  C   UNL     1       2.031   5.733  -9.774  0.00  0.00    +0.067 A 
ATOM      5  C   UNL     1       3.406   5.636  -9.904  0.00  0.00    +0.040 A 
ATOM      6  I   UNL     1       4.615   5.404  -8.216  0.00  0.00    -0.042 I 
ATOM      7  C   UNL     1       4.065   5.792 -11.117  0.00  0.00    +0.067 A 
ATOM      8  C   UNL     1       3.265   5.560 -12.233  0.00  0.00    +0.049 A 
ATOM      9  I   UNL     1       4.180   5.780 -14.133  0.00  0.00    -0.041 I 
ENDROOT
BRANCH   1  12
ATOM     10  C   UNL     1       0.065   3.982 -14.869  0.00  0.00    +0.095 C 
ATOM     11  C   UNL     1       0.392   4.352 -13.565  0.00  0.00    +0.230 C 
ATOM     12  N   UNL     1       1.038   5.595 -13.275  0.00  0.00    -0.255 N 
ATOM     13  O   UNL     1      -0.058   3.653 -12.629  0.00  0.00    -0.275 OA
BRANCH  12  14
ATOM     14  C   UNL     1       1.582   6.386 -14.382  0.00  0.00    +0.134 C 
BRANCH  14  15
ATOM     15  C   UNL     1       0.689   7.808 -14.290  0.00  0.00    +0.205 C 
ATOM     16  O   UNL     1      -0.402   7.234 -15.224  0.00  0.00    -0.218 OA
BRANCH  15  17
ATOM     17  C   UNL     1       1.512   8.467 -15.600  0.00  0.00    +0.217 C 
ATOM     18  O   UNL     1       1.484   7.333 -16.429  0.00  0.00    -0.218 OA
ENDBRANCH  15  17
ENDBRANCH  14  15
ENDBRANCH  12  14
ENDBRANCH   1  12
BRANCH   4  19
ATOM     19  C   UNL     1       1.472   6.289  -8.529  0.00  0.00    +0.266 C 
ATOM     20  N   UNL     1       0.498   5.544  -7.786  0.00  0.00    -0.199 NA
ATOM     21  O   UNL     1       1.224   7.532  -8.623  0.00  0.00    -0.268 OA
BRANCH  20  22
ATOM     22  C   UNL     1      -0.560   6.193  -7.015  0.00  0.00    +0.151 C 
BRANCH  22  23
ATOM     23  C   UNL     1      -0.177   5.611  -5.483  0.00  0.00    +0.206 C 
ATOM     24  O   UNL     1       0.222   7.025  -4.998  0.00  0.00    -0.218 OA
BRANCH  23  25
ATOM     25  C   UNL     1      -1.753   5.800  -4.927  0.00  0.00    +0.217 C 
ATOM     26  O   UNL     1      -2.546   5.540  -6.014  0.00  0.00    -0.218 OA
ENDBRANCH  23  25
ENDBRANCH  22  23
ENDBRANCH  20  22
ENDBRANCH   4  19
BRANCH   7  27
ATOM     27  C   UNL     1       5.328   6.537 -11.215  0.00  0.00    +0.266 C 
ATOM     28  N   UNL     1       6.583   5.983 -11.497  0.00  0.00    -0.199 NA
ATOM     29  O   UNL     1       5.227   7.742 -10.821  0.00  0.00    -0.268 OA
BRANCH  28  30
ATOM     30  C   UNL     1       7.699   6.676 -10.986  0.00  0.00    +0.151 C 
BRANCH  30  31
ATOM     31  C   UNL     1       9.068   6.147 -11.798  0.00  0.00    +0.206 C 
ATOM     32  O   UNL     1       8.769   4.638 -11.607  0.00  0.00    -0.218 OA
BRANCH  31  33
ATOM     33  C   UNL     1       8.257   6.175 -13.271  0.00  0.00    +0.217 C 
ATOM     34  O   UNL     1       7.934   4.811 -13.388  0.00  0.00    -0.218 OA
ENDBRANCH  31  33
ENDBRANCH  30  31
ENDBRANCH  28  30
ENDBRANCH   7  27
TORSDOF 12
ENDMDL
MODEL 4
REMARK VINA RESULT:      -5.7      2.436      7.871
REMARK  Name = 
REMARK  12 active torsions:
REMARK  status: ('A' for Active; 'I' for Inactive)
REMARK    1  A    between atoms: N_4  and  C_5
REMARK    2  A    between atoms: N_4  and  C_10
REMARK    3  A    between atoms: C_5  and  C_6
REMARK    4  A    between atoms: C_6  and  C_8
REMARK    5  A    between atoms: C_13  and  C_14
REMARK    6  A    between atoms: N_16  and  C_17
REMARK    7  A    between atoms: C_17  and  C_18
REMARK    8  A    between atoms: C_18  and  C_20
REMARK    9  A    between atoms: C_24  and  C_25
REMARK   10  A    between atoms: N_27  and  C_28
REMARK   11  A    between atoms: C_28  and  C_29
REMARK   12  A    between atoms: C_29  and  C_31
REMARK                            x       y       z     vdW  Elec       q    Type
REMARK                         _______ _______ _______ _____ _____    ______ ____
ROOT
ATOM      1  C   UNL     1       2.627   7.407   0.086  0.00  0.00    +0.065 A 
ATOM      2  C   UNL     1       2.652   7.074  -1.256  0.00  0.00    +0.049 A 
ATOM      3  I   UNL     1       3.991   7.984  -2.618  0.00  0.00    -0.041 I 
ATOM      4  C   UNL     1       1.540   6.407  -1.750  0.00  0.00    +0.067 A 
ATOM      5  C   UNL     1       0.383   6.392  -0.991  0.00  0.00    +0.040 A 
ATOM      6  I   UNL     1      -1.305   5.357  -1.656  0.00  0.00    -0.042 I 
ATOM      7  C   UNL     1       0.232   7.132   0.176  0.00  0.00    +0.067 A 
ATOM      8  C   UNL     1       1.433   7.483   0.787  0.00  0.00    +0.049 A 
ATOM      9  I   UNL     1       1.306   8.619   2.572  0.00  0.00    -0.041 I 
ENDROOT
BRANCH   1  12
ATOM     10  C   UNL     1       5.636   7.436   2.150  0.00  0.00    +0.095 C 
ATOM     11  C   UNL     1       4.766   7.090   1.116  0.00  0.00    +0.230 C 
ATOM     12  N   UNL     1       3.823   8.023   0.583  0.00  0.00    -0.255 N 
ATOM     13  O   UNL     1       4.954   5.997   0.536  0.00  0.00    -0.275 OA
BRANCH  12  14
ATOM     14  C   UNL     1       3.598   9.286   1.290  0.00  0.00    +0.134 C 
BRANCH  14  15
ATOM     15  C   UNL     1       4.426  10.395   0.334  0.00  0.00    +0.205 C 
ATOM     16  O   UNL     1       4.712  11.299   1.555  0.00  0.00    -0.218 OA
BRANCH  15  17
ATOM     17  C   UNL     1       3.009  11.238  -0.000  0.00  0.00    +0.217 C 
ATOM     18  O   UNL     1       3.474  11.948  -1.121  0.00  0.00    -0.218 OA
ENDBRANCH  15  17
ENDBRANCH  14  15
ENDBRANCH  12  14
ENDBRANCH   1  12
BRANCH   4  19
ATOM     19  C   UNL     1       1.433   6.271  -3.214  0.00  0.00    +0.266 C 
ATOM     20  N   UNL     1       2.269   5.337  -3.909  0.00  0.00    -0.199 NA
ATOM     21  O   UNL     1       1.301   7.393  -3.795  0.00  0.00    -0.268 OA
BRANCH  20  22
ATOM     22  C   UNL     1       2.739   5.573  -5.272  0.00  0.00    +0.151 C 
BRANCH  22  23
ATOM     23  C   UNL     1       2.362   4.081  -5.953  0.00  0.00    +0.206 C 
ATOM     24  O   UNL     1       0.848   4.398  -5.914  0.00  0.00    -0.218 OA
BRANCH  23  25
ATOM     25  C   UNL     1       2.506   4.668  -7.522  0.00  0.00    +0.217 C 
ATOM     26  O   UNL     1       2.564   3.551  -8.314  0.00  0.00    -0.218 OA
ENDBRANCH  23  25
ENDBRANCH  22  23
ENDBRANCH  20  22
ENDBRANCH   4  19
BRANCH   7  27
ATOM     27  C   UNL     1      -1.024   7.830   0.485  0.00  0.00    +0.266 C 
ATOM     28  N   UNL     1      -1.809   7.631   1.627  0.00  0.00    -0.199 NA
ATOM     29  O   UNL     1      -1.463   8.519  -0.490  0.00  0.00    -0.268 OA
BRANCH  28  30
ATOM     30  C   UNL     1      -3.185   7.903   1.492  0.00  0.00    +0.151 C 
BRANCH  30  31
ATOM     31  C   UNL     1      -3.936   7.579   2.957  0.00  0.00    +0.206 C 
ATOM     32  O   UNL     1      -2.978   6.425   3.352  0.00  0.00    -0.218 OA
BRANCH  31  33
ATOM     33  C   UNL     1      -2.977   8.713   3.747  0.00  0.00    +0.217 C 
ATOM     34  O   UNL     1      -3.752   9.867   3.532  0.00  0.00    -0.218 OA
ENDBRANCH  31  33
ENDBRANCH  30  31
ENDBRANCH  28  30
ENDBRANCH   7  27
TORSDOF 12
ENDMDL
MODEL 5
REMARK VINA RESULT:      -5.7      2.552      6.919
REMARK  Name = 
REMARK  12 active torsions:
REMARK  status: ('A' for Active; 'I' for Inactive)
REMARK    1  A    between atoms: N_4  and  C_5
REMARK    2  A    between atoms: N_4  and  C_10
REMARK    3  A    between atoms: C_5  and  C_6
REMARK    4  A    between atoms: C_6  and  C_8
REMARK    5  A    between atoms: C_13  and  C_14
REMARK    6  A    between atoms: N_16  and  C_17
REMARK    7  A    between atoms: C_17  and  C_18
REMARK    8  A    between atoms: C_18  and  C_20
REMARK    9  A    between atoms: C_24  and  C_25
REMARK   10  A    between atoms: N_27  and  C_28
REMARK   11  A    between atoms: C_28  and  C_29
REMARK   12  A    between atoms: C_29  and  C_31
REMARK                            x       y       z     vdW  Elec       q    Type
REMARK                         _______ _______ _______ _____ _____    ______ ____
ROOT
ATOM      1  C   UNL     1       2.909   6.897  -3.776  0.00  0.00    +0.065 A 
ATOM      2  C   UNL     1       1.596   6.477  -3.886  0.00  0.00    +0.049 A 
ATOM      3  I   UNL     1       0.658   5.307  -2.393  0.00  0.00    -0.041 I 
ATOM      4  C   UNL     1       1.033   6.527  -5.152  0.00  0.00    +0.067 A 
ATOM      5  C   UNL     1       1.868   6.684  -6.245  0.00  0.00    +0.040 A 
ATOM      6  I   UNL     1       1.074   6.824  -8.173  0.00  0.00    -0.042 I 
ATOM      7  C   UNL     1       3.254   6.650  -6.151  0.00  0.00    +0.067 A 
ATOM      8  C   UNL     1       3.745   6.940  -4.881  0.00  0.00    +0.049 A 
ATOM      9  I   UNL     1       5.851   6.906  -4.635  0.00  0.00    -0.041 I 
ENDROOT
BRANCH   1  12
ATOM     10  C   UNL     1       3.698   5.292  -0.596  0.00  0.00    +0.095 C 
ATOM     11  C   UNL     1       3.773   5.607  -1.952  0.00  0.00    +0.230 C 
ATOM     12  N   UNL     1       3.436   6.907  -2.442  0.00  0.00    -0.255 N 
ATOM     13  O   UNL     1       4.319   4.778  -2.715  0.00  0.00    -0.275 OA
BRANCH  12  14
ATOM     14  C   UNL     1       2.773   7.854  -1.542  0.00  0.00    +0.134 C 
BRANCH  14  15
ATOM     15  C   UNL     1       4.059   8.483  -0.660  0.00  0.00    +0.205 C 
ATOM     16  O   UNL     1       3.265   8.365   0.663  0.00  0.00    -0.218 OA
BRANCH  15  17
ATOM     17  C   UNL     1       3.510  10.056  -0.888  0.00  0.00    +0.217 C 
ATOM     18  O   UNL     1       2.611  10.100   0.192  0.00  0.00    -0.218 OA
ENDBRANCH  15  17
ENDBRANCH  14  15
ENDBRANCH  12  14
ENDBRANCH   1  12
BRANCH   4  19
ATOM     19  C   UNL     1      -0.264   5.852  -5.340  0.00  0.00    +0.266 C 
ATOM     20  N   UNL     1      -1.406   6.273  -4.581  0.00  0.00    -0.199 NA
ATOM     21  O   UNL     1      -0.143   4.593  -5.452  0.00  0.00    -0.268 OA
BRANCH  20  22
ATOM     22  C   UNL     1      -2.456   5.345  -4.170  0.00  0.00    +0.151 C 
BRANCH  22  23
ATOM     23  C   UNL     1      -3.389   6.386  -3.233  0.00  0.00    +0.206 C 
ATOM     24  O   UNL     1      -3.016   5.625  -1.939  0.00  0.00    -0.218 OA
BRANCH  23  25
ATOM     25  C   UNL     1      -2.122   7.473  -3.030  0.00  0.00    +0.217 C 
ATOM     26  O   UNL     1      -2.113   7.761  -1.691  0.00  0.00    -0.218 OA
ENDBRANCH  23  25
ENDBRANCH  22  23
ENDBRANCH  20  22
ENDBRANCH   4  19
BRANCH   7  27
ATOM     27  C   UNL     1       4.075   5.961  -7.157  0.00  0.00    +0.266 C 
ATOM     28  N   UNL     1       4.610   6.545  -8.312  0.00  0.00    -0.199 NA
ATOM     29  O   UNL     1       4.106   4.700  -6.996  0.00  0.00    -0.268 OA
BRANCH  28  30
ATOM     30  C   UNL     1       4.835   5.679  -9.401  0.00  0.00    +0.151 C 
BRANCH  30  31
ATOM     31  C   UNL     1       6.190   6.214 -10.233  0.00  0.00    +0.206 C 
ATOM     32  O   UNL     1       5.950   5.324 -11.479  0.00  0.00    -0.218 OA
BRANCH  31  33
ATOM     33  C   UNL     1       5.322   7.487 -10.912  0.00  0.00    +0.217 C 
ATOM     34  O   UNL     1       6.388   8.278 -11.375  0.00  0.00    -0.218 OA
ENDBRANCH  31  33
ENDBRANCH  30  31
ENDBRANCH  28  30
ENDBRANCH   7  27
TORSDOF 12
ENDMDL
MODEL 6
REMARK VINA RESULT:      -5.6      1.726      6.563
REMARK  Name = 
REMARK  12 active torsions:
REMARK  status: ('A' for Active; 'I' for Inactive)
REMARK    1  A    between atoms: N_4  and  C_5
REMARK    2  A    between atoms: N_4  and  C_10
REMARK    3  A    between atoms: C_5  and  C_6
REMARK    4  A    between atoms: C_6  and  C_8
REMARK    5  A    between atoms: C_13  and  C_14
REMARK    6  A    between atoms: N_16  and  C_17
REMARK    7  A    between atoms: C_17  and  C_18
REMARK    8  A    between atoms: C_18  and  C_20
REMARK    9  A    between atoms: C_24  and  C_25
REMARK   10  A    between atoms: N_27  and  C_28
REMARK   11  A    between atoms: C_28  and  C_29
REMARK   12  A    between atoms: C_29  and  C_31
REMARK                            x       y       z     vdW  Elec       q    Type
REMARK                         _______ _______ _______ _____ _____    ______ ____
ROOT
ATOM      1  C   UNL     1       2.245   6.422  -3.342  0.00  0.00    +0.065 A 
ATOM      2  C   UNL     1       1.142   6.254  -2.526  0.00  0.00    +0.049 A 
ATOM      3  I   UNL     1       1.233   5.153  -0.721  0.00  0.00    -0.041 I 
ATOM      4  C   UNL     1      -0.096   6.506  -3.097  0.00  0.00    +0.067 A 
ATOM      5  C   UNL     1      -0.186   6.598  -4.476  0.00  0.00    +0.040 A 
ATOM      6  I   UNL     1      -2.012   7.034  -5.391  0.00  0.00    -0.042 I 
ATOM      7  C   UNL     1       0.875   6.310  -5.325  0.00  0.00    +0.067 A 
ATOM      8  C   UNL     1       2.128   6.404  -4.724  0.00  0.00    +0.049 A 
ATOM      9  I   UNL     1       3.811   5.974  -5.939  0.00  0.00    -0.041 I 
ENDROOT
BRANCH   1  12
ATOM     10  C   UNL     1       4.695   4.389  -1.558  0.00  0.00    +0.095 C 
ATOM     11  C   UNL     1       3.903   4.857  -2.607  0.00  0.00    +0.230 C 
ATOM     12  N   UNL     1       3.513   6.230  -2.700  0.00  0.00    -0.255 N 
ATOM     13  O   UNL     1       3.691   4.085  -3.569  0.00  0.00    -0.275 OA
BRANCH  12  14
ATOM     14  C   UNL     1       3.746   7.112  -1.554  0.00  0.00    +0.134 C 
BRANCH  14  15
ATOM     15  C   UNL     1       3.359   8.627  -2.172  0.00  0.00    +0.205 C 
ATOM     16  O   UNL     1       4.765   8.778  -2.799  0.00  0.00    -0.218 OA
BRANCH  15  17
ATOM     17  C   UNL     1       3.869   9.387  -0.761  0.00  0.00    +0.217 C 
ATOM     18  O   UNL     1       2.739   9.106   0.024  0.00  0.00    -0.218 OA
ENDBRANCH  15  17
ENDBRANCH  14  15
ENDBRANCH  12  14
ENDBRANCH   1  12
BRANCH   4  19
ATOM     19  C   UNL     1      -1.287   6.091  -2.334  0.00  0.00    +0.266 C 
ATOM     20  N   UNL     1      -1.716   6.861  -1.203  0.00  0.00    -0.199 NA
ATOM     21  O   UNL     1      -1.339   4.833  -2.164  0.00  0.00    -0.268 OA
BRANCH  20  22
ATOM     22  C   UNL     1      -2.368   6.253  -0.046  0.00  0.00    +0.151 C 
BRANCH  22  23
ATOM     23  C   UNL     1      -2.399   7.586   0.981  0.00  0.00    +0.206 C 
ATOM     24  O   UNL     1      -1.576   6.833   2.053  0.00  0.00    -0.218 OA
BRANCH  23  25
ATOM     25  C   UNL     1      -1.013   8.249   0.298  0.00  0.00    +0.217 C 
ATOM     26  O   UNL     1      -0.830   9.439   0.952  0.00  0.00    -0.218 OA
ENDBRANCH  23  25
ENDBRANCH  22  23
ENDBRANCH  20  22
ENDBRANCH   4  19
BRANCH   7  27
ATOM     27  C   UNL     1       0.676   5.569  -6.579  0.00  0.00    +0.266 C 
ATOM     28  N   UNL     1       0.599   6.135  -7.858  0.00  0.00    -0.199 NA
ATOM     29  O   UNL     1       0.375   4.348  -6.393  0.00  0.00    -0.268 OA
BRANCH  28  30
ATOM     30  C   UNL     1      -0.152   5.419  -8.812  0.00  0.00    +0.151 C 
BRANCH  30  31
ATOM     31  C   UNL     1       0.878   4.939 -10.045  0.00  0.00    +0.206 C 
ATOM     32  O   UNL     1      -0.234   4.824 -11.119  0.00  0.00    -0.218 OA
BRANCH  31  33
ATOM     33  C   UNL     1       1.189   6.538 -10.465  0.00  0.00    +0.217 C 
ATOM     34  O   UNL     1      -0.027   6.857 -11.096  0.00  0.00    -0.218 OA
ENDBRANCH  31  33
ENDBRANCH  30  31
ENDBRANCH  28  30
ENDBRANCH   7  27
TORSDOF 12
ENDMDL
MODEL 7
REMARK VINA RESULT:      -5.5      1.741      6.995
REMARK  Name = 
REMARK  12 active torsions:
REMARK  status: ('A' for Active; 'I' for Inactive)
REMARK    1  A    between atoms: N_4  and  C_5
REMARK    2  A    between atoms: N_4  and  C_10
REMARK    3  A    between atoms: C_5  and  C_6
REMARK    4  A    between atoms: C_6  and  C_8
REMARK    5  A    between atoms: C_13  and  C_14
REMARK    6  A    between atoms: N_16  and  C_17
REMARK    7  A    between atoms: C_17  and  C_18
REMARK    8  A    between atoms: C_18  and  C_20
REMARK    9  A    between atoms: C_24  and  C_25
REMARK   10  A    between atoms: N_27  and  C_28
REMARK   11  A    between atoms: C_28  and  C_29
REMARK   12  A    between atoms: C_29  and  C_31
REMARK                            x       y       z     vdW  Elec       q    Type
REMARK                         _______ _______ _______ _____ _____    ______ ____
ROOT
ATOM      1  C   UNL     1       2.054   5.432  -4.115  0.00  0.00    +0.065 A 
ATOM      2  C   UNL     1       1.891   5.844  -5.424  0.00  0.00    +0.049 A 
ATOM      3  I   UNL     1       3.244   7.172  -6.365  0.00  0.00    -0.041 I 
ATOM      4  C   UNL     1       0.633   5.662  -5.980  0.00  0.00    +0.067 A 
ATOM      5  C   UNL     1      -0.431   5.385  -5.138  0.00  0.00    +0.040 A 
ATOM      6  I   UNL     1      -2.338   5.044  -5.921  0.00  0.00    -0.042 I 
ATOM      7  C   UNL     1      -0.332   5.422  -3.753  0.00  0.00    +0.067 A 
ATOM      8  C   UNL     1       0.966   5.267  -3.271  0.00  0.00    +0.049 A 
ATOM      9  I   UNL     1       1.221   5.316  -1.167  0.00  0.00    -0.041 I 
ENDROOT
BRANCH   1  12
ATOM     10  C   UNL     1       5.181   4.046  -2.843  0.00  0.00    +0.095 C 
ATOM     11  C   UNL     1       4.173   4.378  -3.749  0.00  0.00    +0.230 C 
ATOM     12  N   UNL     1       3.385   5.562  -3.596  0.00  0.00    -0.255 N 
ATOM     13  O   UNL     1       4.095   3.711  -4.805  0.00  0.00    -0.275 OA
BRANCH  12  14
ATOM     14  C   UNL     1       3.471   6.314  -2.343  0.00  0.00    +0.134 C 
BRANCH  14  15
ATOM     15  C   UNL     1       3.747   7.885  -2.875  0.00  0.00    +0.205 C 
ATOM     16  O   UNL     1       5.272   7.638  -2.952  0.00  0.00    -0.218 OA
BRANCH  15  17
ATOM     17  C   UNL     1       3.883   8.449  -1.297  0.00  0.00    +0.217 C 
ATOM     18  O   UNL     1       4.596   7.359  -0.769  0.00  0.00    -0.218 OA
ENDBRANCH  15  17
ENDBRANCH  14  15
ENDBRANCH  12  14
ENDBRANCH   1  12
BRANCH   4  19
ATOM     19  C   UNL     1       0.366   6.319  -7.272  0.00  0.00    +0.266 C 
ATOM     20  N   UNL     1       0.626   5.621  -8.497  0.00  0.00    -0.199 NA
ATOM     21  O   UNL     1       0.720   7.539  -7.276  0.00  0.00    -0.268 OA
BRANCH  20  22
ATOM     22  C   UNL     1       1.049   6.310  -9.714  0.00  0.00    +0.151 C 
BRANCH  22  23
ATOM     23  C   UNL     1      -0.077   5.674 -10.792  0.00  0.00    +0.206 C 
ATOM     24  O   UNL     1      -0.556   7.090 -11.193  0.00  0.00    -0.218 OA
BRANCH  23  25
ATOM     25  C   UNL     1       1.035   5.629 -12.053  0.00  0.00    +0.217 C 
ATOM     26  O   UNL     1       0.580   4.645 -12.891  0.00  0.00    -0.218 OA
ENDBRANCH  23  25
ENDBRANCH  22  23
ENDBRANCH  20  22
ENDBRANCH   4  19
BRANCH   7  27
ATOM     27  C   UNL     1      -1.400   5.995  -2.922  0.00  0.00    +0.266 C 
ATOM     28  N   UNL     1      -1.514   7.342  -2.553  0.00  0.00    -0.199 NA
ATOM     29  O   UNL     1      -2.139   5.112  -2.382  0.00  0.00    -0.268 OA
BRANCH  28  30
ATOM     30  C   UNL     1      -2.190   7.602  -1.344  0.00  0.00    +0.151 C 
BRANCH  30  31
ATOM     31  C   UNL     1      -1.051   7.767  -0.124  0.00  0.00    +0.206 C 
ATOM     32  O   UNL     1      -1.679   9.048   0.481  0.00  0.00    -0.218 OA
BRANCH  31  33
ATOM     33  C   UNL     1      -1.947   6.780   0.903  0.00  0.00    +0.217 C 
ATOM     34  O   UNL     1      -1.144   6.849   2.056  0.00  0.00    -0.218 OA
ENDBRANCH  31  33
ENDBRANCH  30  31
ENDBRANCH  28  30
ENDBRANCH   7  27
TORSDOF 12
ENDMDL
MODEL 8
REMARK VINA RESULT:      -5.4      1.951      6.769
REMARK  Name = 
REMARK  12 active torsions:
REMARK  status: ('A' for Active; 'I' for Inactive)
REMARK    1  A    between atoms: N_4  and  C_5
REMARK    2  A    between atoms: N_4  and  C_10
REMARK    3  A    between atoms: C_5  and  C_6
REMARK    4  A    between atoms: C_6  and  C_8
REMARK    5  A    between atoms: C_13  and  C_14
REMARK    6  A    between atoms: N_16  and  C_17
REMARK    7  A    between atoms: C_17  and  C_18
REMARK    8  A    between atoms: C_18  and  C_20
REMARK    9  A    between atoms: C_24  and  C_25
REMARK   10  A    between atoms: N_27  and  C_28
REMARK   11  A    between atoms: C_28  and  C_29
REMARK   12  A    between atoms: C_29  and  C_31
REMARK                            x       y       z     vdW  Elec       q    Type
REMARK                         _______ _______ _______ _____ _____    ______ ____
ROOT
ATOM      1  C   UNL     1       2.168   6.586  -3.301  0.00  0.00    +0.065 A 
ATOM      2  C   UNL     1       1.028   6.513  -2.522  0.00  0.00    +0.049 A 
ATOM      3  I   UNL     1       1.027   5.615  -0.606  0.00  0.00    -0.041 I 
ATOM      4  C   UNL     1      -0.181   6.707  -3.174  0.00  0.00    +0.067 A 
ATOM      5  C   UNL     1      -0.207   6.649  -4.557  0.00  0.00    +0.040 A 
ATOM      6  I   UNL     1      -1.987   6.990  -5.597  0.00  0.00    -0.042 I 
ATOM      7  C   UNL     1       0.889   6.265  -5.321  0.00  0.00    +0.067 A 
ATOM      8  C   UNL     1       2.113   6.419  -4.676  0.00  0.00    +0.049 A 
ATOM      9  I   UNL     1       3.846   5.853  -5.759  0.00  0.00    -0.041 I 
ENDROOT
BRANCH   1  12
ATOM     10  C   UNL     1       5.700   7.342  -2.781  0.00  0.00    +0.095 C 
ATOM     11  C   UNL     1       4.319   7.531  -2.833  0.00  0.00    +0.230 C 
ATOM     12  N   UNL     1       3.404   6.460  -2.584  0.00  0.00    -0.255 N 
ATOM     13  O   UNL     1       3.893   8.704  -2.922  0.00  0.00    -0.275 OA
BRANCH  12  14
ATOM     14  C   UNL     1       3.919   5.091  -2.509  0.00  0.00    +0.134 C 
BRANCH  14  15
ATOM     15  C   UNL     1       3.531   4.638  -0.937  0.00  0.00    +0.205 C 
ATOM     16  O   UNL     1       4.791   5.340  -0.378  0.00  0.00    -0.218 OA
BRANCH  15  17
ATOM     17  C   UNL     1       4.368   3.188  -1.096  0.00  0.00    +0.217 C 
ATOM     18  O   UNL     1       3.464   2.371  -0.395  0.00  0.00    -0.218 OA
ENDBRANCH  15  17
ENDBRANCH  14  15
ENDBRANCH  12  14
ENDBRANCH   1  12
BRANCH   4  19
ATOM     19  C   UNL     1      -1.409   6.383  -2.426  0.00  0.00    +0.266 C 
ATOM     20  N   UNL     1      -1.884   7.275  -1.409  0.00  0.00    -0.199 NA
ATOM     21  O   UNL     1      -1.478   5.152  -2.119  0.00  0.00    -0.268 OA
BRANCH  20  22
ATOM     22  C   UNL     1      -2.593   6.802  -0.224  0.00  0.00    +0.151 C 
BRANCH  22  23
ATOM     23  C   UNL     1      -1.630   7.501   0.967  0.00  0.00    +0.206 C 
ATOM     24  O   UNL     1      -1.489   8.805   0.147  0.00  0.00    -0.218 OA
BRANCH  23  25
ATOM     25  C   UNL     1      -2.959   8.102   1.805  0.00  0.00    +0.217 C 
ATOM     26  O   UNL     1      -2.671   9.423   2.025  0.00  0.00    -0.218 OA
ENDBRANCH  23  25
ENDBRANCH  22  23
ENDBRANCH  20  22
ENDBRANCH   4  19
BRANCH   7  27
ATOM     27  C   UNL     1       0.739   5.394  -6.494  0.00  0.00    +0.266 C 
ATOM     28  N   UNL     1       0.737   5.816  -7.830  0.00  0.00    -0.199 NA
ATOM     29  O   UNL     1       0.407   4.204  -6.192  0.00  0.00    -0.268 OA
BRANCH  28  30
ATOM     30  C   UNL     1       0.022   5.009  -8.737  0.00  0.00    +0.151 C 
BRANCH  30  31
ATOM     31  C   UNL     1       0.934   4.848 -10.136  0.00  0.00    +0.206 C 
ATOM     32  O   UNL     1      -0.284   4.694 -11.081  0.00  0.00    -0.218 OA
BRANCH  31  33
ATOM     33  C   UNL     1       0.962   6.516 -10.359  0.00  0.00    +0.217 C 
ATOM     34  O   UNL     1       0.596   6.578 -11.716  0.00  0.00    -0.218 OA
ENDBRANCH  31  33
ENDBRANCH  30  31
ENDBRANCH  28  30
ENDBRANCH   7  27
TORSDOF 12
ENDMDL
MODEL 9
REMARK VINA RESULT:      -5.4      3.511      8.099
REMARK  Name = 
REMARK  12 active torsions:
REMARK  status: ('A' for Active; 'I' for Inactive)
REMARK    1  A    between atoms: N_4  and  C_5
REMARK    2  A    between atoms: N_4  and  C_10
REMARK    3  A    between atoms: C_5  and  C_6
REMARK    4  A    between atoms: C_6  and  C_8
REMARK    5  A    between atoms: C_13  and  C_14
REMARK    6  A    between atoms: N_16  and  C_17
REMARK    7  A    between atoms: C_17  and  C_18
REMARK    8  A    between atoms: C_18  and  C_20
REMARK    9  A    between atoms: C_24  and  C_25
REMARK   10  A    between atoms: N_27  and  C_28
REMARK   11  A    between atoms: C_28  and  C_29
REMARK   12  A    between atoms: C_29  and  C_31
REMARK                            x       y       z     vdW  Elec       q    Type
REMARK                         _______ _______ _______ _____ _____    ______ ____
ROOT
ATOM      1  C   UNL     1       1.868   6.253  -9.644  0.00  0.00    +0.065 A 
ATOM      2  C   UNL     1       3.230   6.087  -9.810  0.00  0.00    +0.049 A 
ATOM      3  I   UNL     1       4.048   5.064 -11.472  0.00  0.00    -0.041 I 
ATOM      4  C   UNL     1       4.019   6.280  -8.686  0.00  0.00    +0.067 A 
ATOM      5  C   UNL     1       3.409   6.313  -7.443  0.00  0.00    +0.040 A 
ATOM      6  I   UNL     1       4.537   6.658  -5.719  0.00  0.00    -0.042 I 
ATOM      7  C   UNL     1       2.064   6.021  -7.251  0.00  0.00    +0.067 A 
ATOM      8  C   UNL     1       1.280   6.175  -8.391  0.00  0.00    +0.049 A 
ATOM      9  I   UNL     1      -0.788   5.745  -8.200  0.00  0.00    -0.041 I 
ENDROOT
BRANCH   1  12
ATOM     10  C   UNL     1       0.686   4.392 -12.552  0.00  0.00    +0.095 C 
ATOM     11  C   UNL     1       0.841   4.767 -11.218  0.00  0.00    +0.230 C 
ATOM     12  N   UNL     1       1.088   6.124 -10.842  0.00  0.00    -0.255 N 
ATOM     13  O   UNL     1       0.577   3.917 -10.338  0.00  0.00    -0.275 OA
BRANCH  12  14
ATOM     14  C   UNL     1       1.422   7.098 -11.884  0.00  0.00    +0.134 C 
BRANCH  14  15
ATOM     15  C   UNL     1      -0.000   7.183 -12.777  0.00  0.00    +0.205 C 
ATOM     16  O   UNL     1       0.458   8.491 -13.463  0.00  0.00    -0.218 OA
BRANCH  15  17
ATOM     17  C   UNL     1      -0.771   8.052 -11.560  0.00  0.00    +0.217 C 
ATOM     18  O   UNL     1      -2.006   7.383 -11.605  0.00  0.00    -0.218 OA
ENDBRANCH  15  17
ENDBRANCH  14  15
ENDBRANCH  12  14
ENDBRANCH   1  12
BRANCH   4  19
ATOM     19  C   UNL     1       5.430   5.863  -8.773  0.00  0.00    +0.266 C 
ATOM     20  N   UNL     1       6.257   6.355  -9.837  0.00  0.00    -0.199 NA
ATOM     21  O   UNL     1       5.587   4.630  -8.513  0.00  0.00    -0.268 OA
BRANCH  20  22
ATOM     22  C   UNL     1       7.342   5.564 -10.412  0.00  0.00    +0.151 C 
BRANCH  22  23
ATOM     23  C   UNL     1       7.896   6.659 -11.564  0.00  0.00    +0.206 C 
ATOM     24  O   UNL     1       9.227   5.886 -11.721  0.00  0.00    -0.218 OA
BRANCH  23  25
ATOM     25  C   UNL     1       7.186   5.812 -12.831  0.00  0.00    +0.217 C 
ATOM     26  O   UNL     1       7.783   4.580 -12.812  0.00  0.00    -0.218 OA
ENDBRANCH  23  25
ENDBRANCH  22  23
ENDBRANCH  20  22
ENDBRANCH   4  19
BRANCH   7  27
ATOM     27  C   UNL     1       1.608   5.224  -6.103  0.00  0.00    +0.266 C 
ATOM     28  N   UNL     1       0.975   5.727  -4.960  0.00  0.00    -0.199 NA
ATOM     29  O   UNL     1       2.017   4.020  -6.139  0.00  0.00    -0.268 OA
BRANCH  28  30
ATOM     30  C   UNL     1       1.144   4.983  -3.776  0.00  0.00    +0.151 C 
BRANCH  30  31
ATOM     31  C   UNL     1       0.449   5.837  -2.510  0.00  0.00    +0.206 C 
ATOM     32  O   UNL     1      -0.874   5.030  -2.507  0.00  0.00    -0.218 OA
BRANCH  31  33
ATOM     33  C   UNL     1       1.142   4.802  -1.377  0.00  0.00    +0.217 C 
ATOM     34  O   UNL     1       1.332   5.706  -0.317  0.00  0.00    -0.218 OA
ENDBRANCH  31  33
ENDBRANCH  30  31
ENDBRANCH  28  30
ENDBRANCH   7  27
TORSDOF 12
ENDMDL
