MODEL 1
REMARK VINA RESULT:      -7.8      0.000      0.000
REMARK  Name = 
REMARK  3 active torsions:
REMARK  status: ('A' for Active; 'I' for Inactive)
REMARK    1  A    between atoms: C_5  and  C_6
REMARK    2  A    between atoms: C_6  and  C_8
REMARK    3  A    between atoms: C_14  and  N_15
REMARK                            x       y       z     vdW  Elec       q    Type
REMARK                         _______ _______ _______ _____ _____    ______ ____
ROOT
ATOM      1  C   UNL     1       0.275   6.046  -5.961  0.00  0.00    +0.048 A 
ATOM      2  C   UNL     1       1.070   5.490  -4.968  0.00  0.00    +0.082 A 
ATOM      3  C   UNL     1       2.350   5.946  -4.729  0.00  0.00    +0.332 A 
ATOM      4  C   UNL     1       2.842   6.867  -5.642  0.00  0.00    +0.303 A 
ATOM      5  O   UNL     1       3.952   7.633  -5.285  0.00  0.00    -0.277 OA
ATOM      6  C   UNL     1       2.185   7.157  -6.829  0.00  0.00    +0.241 A 
ATOM      7  O   UNL     1       2.853   7.801  -7.864  0.00  0.00    -0.283 OA
ATOM      8  C   UNL     1       0.946   6.570  -7.049  0.00  0.00    +0.049 A 
ENDROOT
BRANCH   3   9
ATOM      9  N   UNL     1       3.273   5.250  -3.887  0.00  0.00    +0.084 N 
ATOM     10  O   UNL     1       2.944   5.142  -2.555  0.00  0.00    -0.576 OA
ATOM     11  O   UNL     1       3.883   4.281  -4.407  0.00  0.00    +0.042 OA
ENDBRANCH   3   9
BRANCH   1  12
ATOM     12  C   UNL     1      -1.126   5.693  -5.961  0.00  0.00    +0.196 C 
ATOM     13  O   UNL     1      -1.531   4.866  -6.831  0.00  0.00    -0.287 OA
BRANCH  12  18
ATOM     14  C   UNL     1      -2.072   6.906  -0.932  0.00  0.00    +0.031 C 
ATOM     15  C   UNL     1      -2.622   6.902  -2.324  0.00  0.00    -0.022 A 
ATOM     16  C   UNL     1      -2.259   7.874  -3.247  0.00  0.00    -0.004 A 
ATOM     17  C   UNL     1      -1.964   7.555  -4.567  0.00  0.00    +0.003 A 
ATOM     18  C   UNL     1      -2.105   6.248  -5.019  0.00  0.00    +0.039 A 
ATOM     19  C   UNL     1      -2.840   5.397  -4.202  0.00  0.00    +0.003 A 
ATOM     20  C   UNL     1      -3.072   5.704  -2.865  0.00  0.00    -0.004 A 
ENDBRANCH  12  18
ENDBRANCH   1  12
TORSDOF 3
ENDMDL
MODEL 2
REMARK VINA RESULT:      -7.8      1.315      2.799
REMARK  Name = 
REMARK  3 active torsions:
REMARK  status: ('A' for Active; 'I' for Inactive)
REMARK    1  A    between atoms: C_5  and  C_6
REMARK    2  A    between atoms: C_6  and  C_8
REMARK    3  A    between atoms: C_14  and  N_15
REMARK                            x       y       z     vdW  Elec       q    Type
REMARK                         _______ _______ _______ _____ _____    ______ ____
ROOT
ATOM      1  C   UNL     1       0.152   5.674  -5.900  0.00  0.00    +0.048 A 
ATOM      2  C   UNL     1       0.752   6.415  -6.910  0.00  0.00    +0.082 A 
ATOM      3  C   UNL     1       2.120   6.414  -7.090  0.00  0.00    +0.332 A 
ATOM      4  C   UNL     1       2.857   5.769  -6.107  0.00  0.00    +0.303 A 
ATOM      5  O   UNL     1       4.176   5.414  -6.387  0.00  0.00    -0.277 OA
ATOM      6  C   UNL     1       2.287   5.337  -4.918  0.00  0.00    +0.241 A 
ATOM      7  O   UNL     1       3.089   5.018  -3.828  0.00  0.00    -0.283 OA
ATOM      8  C   UNL     1       0.914   5.473  -4.765  0.00  0.00    +0.049 A 
ENDROOT
BRANCH   3   9
ATOM      9  N   UNL     1       2.786   7.338  -7.954  0.00  0.00    +0.084 N 
ATOM     10  O   UNL     1       3.276   6.840  -9.140  0.00  0.00    -0.576 OA
ATOM     11  O   UNL     1       2.340   8.513  -7.968  0.00  0.00    +0.042 OA
ENDBRANCH   3   9
BRANCH   1  12
ATOM     12  C   UNL     1      -1.284   5.524  -5.954  0.00  0.00    +0.196 C 
ATOM     13  O   UNL     1      -1.773   4.821  -6.887  0.00  0.00    -0.287 OA
BRANCH  12  18
ATOM     14  C   UNL     1      -1.889   7.190  -1.002  0.00  0.00    +0.031 C 
ATOM     15  C   UNL     1      -2.538   7.045  -2.343  0.00  0.00    -0.022 A 
ATOM     16  C   UNL     1      -2.267   7.932  -3.377  0.00  0.00    -0.004 A 
ATOM     17  C   UNL     1      -2.061   7.494  -4.680  0.00  0.00    +0.003 A 
ATOM     18  C   UNL     1      -2.204   6.149  -4.997  0.00  0.00    +0.039 A 
ATOM     19  C   UNL     1      -2.857   5.367  -4.051  0.00  0.00    +0.003 A 
ATOM     20  C   UNL     1      -2.998   5.795  -2.736  0.00  0.00    -0.004 A 
ENDBRANCH  12  18
ENDBRANCH   1  12
TORSDOF 3
ENDMDL
MODEL 3
REMARK VINA RESULT:      -7.5      4.227      7.850
REMARK  Name = 
REMARK  3 active torsions:
REMARK  status: ('A' for Active; 'I' for Inactive)
REMARK    1  A    between atoms: C_5  and  C_6
REMARK    2  A    between atoms: C_6  and  C_8
REMARK    3  A    between atoms: C_14  and  N_15
REMARK                            x       y       z     vdW  Elec       q    Type
REMARK                         _______ _______ _______ _____ _____    ______ ____
ROOT
ATOM      1  C   UNL     1       3.054   5.751  -8.943  0.00  0.00    +0.048 A 
ATOM      2  C   UNL     1       3.642   5.867  -7.690  0.00  0.00    +0.082 A 
ATOM      3  C   UNL     1       2.963   5.522  -6.540  0.00  0.00    +0.332 A 
ATOM      4  C   UNL     1       1.619   5.216  -6.702  0.00  0.00    +0.303 A 
ATOM      5  O   UNL     1       0.965   4.524  -5.683  0.00  0.00    -0.277 OA
ATOM      6  C   UNL     1       0.946   5.443  -7.894  0.00  0.00    +0.241 A 
ATOM      7  O   UNL     1      -0.443   5.458  -7.926  0.00  0.00    -0.283 OA
ATOM      8  C   UNL     1       1.680   5.898  -8.981  0.00  0.00    +0.049 A 
ENDROOT
BRANCH   3   9
ATOM      9  N   UNL     1       3.442   5.848  -5.233  0.00  0.00    +0.084 N 
ATOM     10  O   UNL     1       4.580   5.201  -4.807  0.00  0.00    -0.576 OA
ATOM     11  O   UNL     1       3.286   7.038  -4.860  0.00  0.00    +0.042 OA
ENDBRANCH   3   9
BRANCH   1  12
ATOM     12  C   UNL     1       3.918   5.878 -10.094  0.00  0.00    +0.196 C 
ATOM     13  O   UNL     1       3.489   5.458 -11.209  0.00  0.00    -0.287 OA
BRANCH  12  18
ATOM     14  C   UNL     1       8.687   5.929 -12.311  0.00  0.00    +0.031 C 
ATOM     15  C   UNL     1       7.828   6.488 -11.221  0.00  0.00    -0.022 A 
ATOM     16  C   UNL     1       6.901   7.492 -11.473  0.00  0.00    -0.004 A 
ATOM     17  C   UNL     1       5.624   7.462 -10.926  0.00  0.00    +0.003 A 
ATOM     18  C   UNL     1       5.267   6.454 -10.038  0.00  0.00    +0.039 A 
ATOM     19  C   UNL     1       6.315   5.714  -9.503  0.00  0.00    +0.003 A 
ATOM     20  C   UNL     1       7.570   5.707 -10.101  0.00  0.00    -0.004 A 
ENDBRANCH  12  18
ENDBRANCH   1  12
TORSDOF 3
ENDMDL
MODEL 4
REMARK VINA RESULT:      -7.4      5.453      7.683
REMARK  Name = 
REMARK  3 active torsions:
REMARK  status: ('A' for Active; 'I' for Inactive)
REMARK    1  A    between atoms: C_5  and  C_6
REMARK    2  A    between atoms: C_6  and  C_8
REMARK    3  A    between atoms: C_14  and  N_15
REMARK                            x       y       z     vdW  Elec       q    Type
REMARK                         _______ _______ _______ _____ _____    ______ ____
ROOT
ATOM      1  C   UNL     1       5.024   5.306 -10.333  0.00  0.00    +0.048 A 
ATOM      2  C   UNL     1       4.436   5.312 -11.591  0.00  0.00    +0.082 A 
ATOM      3  C   UNL     1       5.194   5.241 -12.742  0.00  0.00    +0.332 A 
ATOM      4  C   UNL     1       6.567   5.332 -12.566  0.00  0.00    +0.303 A 
ATOM      5  O   UNL     1       7.402   4.916 -13.603  0.00  0.00    -0.277 OA
ATOM      6  C   UNL     1       7.137   5.681 -11.350  0.00  0.00    +0.241 A 
ATOM      7  O   UNL     1       8.461   6.099 -11.287  0.00  0.00    -0.283 OA
ATOM      8  C   UNL     1       6.295   5.843 -10.258  0.00  0.00    +0.049 A 
ENDROOT
BRANCH   3   9
ATOM      9  N   UNL     1       4.648   5.483 -14.041  0.00  0.00    +0.084 N 
ATOM     10  O   UNL     1       3.368   5.033 -14.274  0.00  0.00    -0.576 OA
ATOM     11  O   UNL     1       4.989   6.555 -14.601  0.00  0.00    +0.042 OA
ENDBRANCH   3   9
BRANCH   1  12
ATOM     12  C   UNL     1       4.153   5.113  -9.197  0.00  0.00    +0.196 C 
ATOM     13  O   UNL     1       3.633   3.970  -9.033  0.00  0.00    -0.287 OA
BRANCH  12  18
ATOM     14  C   UNL     1       0.623   6.834  -5.697  0.00  0.00    +0.031 C 
ATOM     15  C   UNL     1       1.942   7.102  -6.353  0.00  0.00    -0.022 A 
ATOM     16  C   UNL     1       3.096   6.441  -5.952  0.00  0.00    -0.004 A 
ATOM     17  C   UNL     1       4.011   5.944  -6.872  0.00  0.00    +0.003 A 
ATOM     18  C   UNL     1       3.829   6.171  -8.231  0.00  0.00    +0.039 A 
ATOM     19  C   UNL     1       2.908   7.156  -8.567  0.00  0.00    +0.003 A 
ATOM     20  C   UNL     1       1.959   7.597  -7.651  0.00  0.00    -0.004 A 
ENDBRANCH  12  18
ENDBRANCH   1  12
TORSDOF 3
ENDMDL
MODEL 5
REMARK VINA RESULT:      -7.4      2.580      5.388
REMARK  Name = 
REMARK  3 active torsions:
REMARK  status: ('A' for Active; 'I' for Inactive)
REMARK    1  A    between atoms: C_5  and  C_6
REMARK    2  A    between atoms: C_6  and  C_8
REMARK    3  A    between atoms: C_14  and  N_15
REMARK                            x       y       z     vdW  Elec       q    Type
REMARK                         _______ _______ _______ _____ _____    ______ ____
ROOT
ATOM      1  C   UNL     1       0.696   4.935  -5.306  0.00  0.00    +0.048 A 
ATOM      2  C   UNL     1       0.556   5.208  -3.951  0.00  0.00    +0.082 A 
ATOM      3  C   UNL     1      -0.677   5.471  -3.391  0.00  0.00    +0.332 A 
ATOM      4  C   UNL     1      -1.728   5.608  -4.286  0.00  0.00    +0.303 A 
ATOM      5  O   UNL     1      -3.033   5.513  -3.802  0.00  0.00    -0.277 OA
ATOM      6  C   UNL     1      -1.529   5.687  -5.657  0.00  0.00    +0.241 A 
ATOM      7  O   UNL     1      -2.536   6.164  -6.488  0.00  0.00    -0.283 OA
ATOM      8  C   UNL     1      -0.238   5.522  -6.139  0.00  0.00    +0.049 A 
ENDROOT
BRANCH   3   9
ATOM      9  N   UNL     1      -0.829   5.985  -2.066  0.00  0.00    +0.084 N 
ATOM     10  O   UNL     1      -1.586   5.239  -1.191  0.00  0.00    -0.576 OA
ATOM     11  O   UNL     1       0.155   6.603  -1.588  0.00  0.00    +0.042 OA
ENDBRANCH   3   9
BRANCH   1  12
ATOM     12  C   UNL     1       1.968   4.414  -5.748  0.00  0.00    +0.196 C 
ATOM     13  O   UNL     1       1.974   3.316  -6.379  0.00  0.00    -0.287 OA
BRANCH  12  18
ATOM     14  C   UNL     1       4.572   7.721  -2.594  0.00  0.00    +0.031 C 
ATOM     15  C   UNL     1       4.656   6.853  -3.810  0.00  0.00    -0.022 A 
ATOM     16  C   UNL     1       4.816   5.477  -3.706  0.00  0.00    -0.004 A 
ATOM     17  C   UNL     1       4.098   4.595  -4.505  0.00  0.00    +0.003 A 
ATOM     18  C   UNL     1       3.252   5.080  -5.496  0.00  0.00    +0.039 A 
ATOM     19  C   UNL     1       3.418   6.417  -5.838  0.00  0.00    +0.003 A 
ATOM     20  C   UNL     1       4.085   7.299  -4.996  0.00  0.00    -0.004 A 
ENDBRANCH  12  18
ENDBRANCH   1  12
TORSDOF 3
ENDMDL
MODEL 6
REMARK VINA RESULT:      -7.3      1.695      2.569
REMARK  Name = 
REMARK  3 active torsions:
REMARK  status: ('A' for Active; 'I' for Inactive)
REMARK    1  A    between atoms: C_5  and  C_6
REMARK    2  A    between atoms: C_6  and  C_8
REMARK    3  A    between atoms: C_14  and  N_15
REMARK                            x       y       z     vdW  Elec       q    Type
REMARK                         _______ _______ _______ _____ _____    ______ ____
ROOT
ATOM      1  C   UNL     1       1.782   6.435  -4.801  0.00  0.00    +0.048 A 
ATOM      2  C   UNL     1       1.659   5.685  -3.638  0.00  0.00    +0.082 A 
ATOM      3  C   UNL     1       2.431   5.946  -2.526  0.00  0.00    +0.332 A 
ATOM      4  C   UNL     1       3.439   6.883  -2.698  0.00  0.00    +0.303 A 
ATOM      5  O   UNL     1       4.015   7.460  -1.566  0.00  0.00    -0.277 OA
ATOM      6  C   UNL     1       3.791   7.372  -3.948  0.00  0.00    +0.241 A 
ATOM      7  O   UNL     1       5.003   8.026  -4.133  0.00  0.00    -0.283 OA
ATOM      8  C   UNL     1       3.032   6.975  -5.041  0.00  0.00    +0.049 A 
ENDROOT
BRANCH   3   9
ATOM      9  N   UNL     1       2.502   5.056  -1.408  0.00  0.00    +0.084 N 
ATOM     10  O   UNL     1       3.692   4.392  -1.216  0.00  0.00    -0.576 OA
ATOM     11  O   UNL     1       1.862   5.395  -0.381  0.00  0.00    +0.042 OA
ENDBRANCH   3   9
BRANCH   1  12
ATOM     12  C   UNL     1       0.761   6.267  -5.808  0.00  0.00    +0.196 C 
ATOM     13  O   UNL     1       1.106   5.801  -6.934  0.00  0.00    -0.287 OA
BRANCH  12  18
ATOM     14  C   UNL     1      -3.215   6.326  -2.364  0.00  0.00    +0.031 C 
ATOM     15  C   UNL     1      -2.788   6.652  -3.762  0.00  0.00    -0.022 A 
ATOM     16  C   UNL     1      -2.060   7.800  -4.046  0.00  0.00    -0.004 A 
ATOM     17  C   UNL     1      -0.980   7.782  -4.921  0.00  0.00    +0.003 A 
ATOM     18  C   UNL     1      -0.650   6.616  -5.601  0.00  0.00    +0.039 A 
ATOM     19  C   UNL     1      -1.618   5.619  -5.606  0.00  0.00    +0.003 A 
ATOM     20  C   UNL     1      -2.658   5.620  -4.682  0.00  0.00    -0.004 A 
ENDBRANCH  12  18
ENDBRANCH   1  12
TORSDOF 3
ENDMDL
MODEL 7
REMARK VINA RESULT:      -7.2      2.689      6.088
REMARK  Name = 
REMARK  3 active torsions:
REMARK  status: ('A' for Active; 'I' for Inactive)
REMARK    1  A    between atoms: C_5  and  C_6
REMARK    2  A    between atoms: C_6  and  C_8
REMARK    3  A    between atoms: C_14  and  N_15
REMARK                            x       y       z     vdW  Elec       q    Type
REMARK                         _______ _______ _______ _____ _____    ______ ____
ROOT
ATOM      1  C   UNL     1       0.861   5.853  -2.243  0.00  0.00    +0.048 A 
ATOM      2  C   UNL     1       0.992   5.591  -3.600  0.00  0.00    +0.082 A 
ATOM      3  C   UNL     1      -0.110   5.491  -4.425  0.00  0.00    +0.332 A 
ATOM      4  C   UNL     1      -1.342   5.504  -3.789  0.00  0.00    +0.303 A 
ATOM      5  O   UNL     1      -2.483   5.768  -4.547  0.00  0.00    -0.277 OA
ATOM      6  C   UNL     1      -1.465   5.409  -2.410  0.00  0.00    +0.241 A 
ATOM      7  O   UNL     1      -2.686   5.077  -1.833  0.00  0.00    -0.283 OA
ATOM      8  C   UNL     1      -0.303   5.403  -1.650  0.00  0.00    +0.049 A 
ENDROOT
BRANCH   3   9
ATOM      9  N   UNL     1      -0.031   4.992  -5.762  0.00  0.00    +0.084 N 
ATOM     10  O   UNL     1      -0.179   5.908  -6.780  0.00  0.00    -0.576 OA
ATOM     11  O   UNL     1       0.769   4.042  -5.959  0.00  0.00    +0.042 OA
ENDBRANCH   3   9
BRANCH   1  12
ATOM     12  C   UNL     1       2.061   6.202  -1.518  0.00  0.00    +0.196 C 
ATOM     13  O   UNL     1       1.969   6.385  -0.268  0.00  0.00    -0.287 OA
BRANCH  12  18
ATOM     14  C   UNL     1       4.703   6.122  -6.066  0.00  0.00    +0.031 C 
ATOM     15  C   UNL     1       4.800   6.327  -4.586  0.00  0.00    -0.022 A 
ATOM     16  C   UNL     1       4.413   7.523  -3.995  0.00  0.00    -0.004 A 
ATOM     17  C   UNL     1       3.676   7.550  -2.817  0.00  0.00    +0.003 A 
ATOM     18  C   UNL     1       3.375   6.368  -2.152  0.00  0.00    +0.039 A 
ATOM     19  C   UNL     1       4.103   5.249  -2.539  0.00  0.00    +0.003 A 
ATOM     20  C   UNL     1       4.784   5.216  -3.751  0.00  0.00    -0.004 A 
ENDBRANCH  12  18
ENDBRANCH   1  12
TORSDOF 3
ENDMDL
MODEL 8
REMARK VINA RESULT:      -7.2      6.998      9.599
REMARK  Name = 
REMARK  3 active torsions:
REMARK  status: ('A' for Active; 'I' for Inactive)
REMARK    1  A    between atoms: C_5  and  C_6
REMARK    2  A    between atoms: C_6  and  C_8
REMARK    3  A    between atoms: C_14  and  N_15
REMARK                            x       y       z     vdW  Elec       q    Type
REMARK                         _______ _______ _______ _____ _____    ______ ____
ROOT
ATOM      1  C   UNL     1       3.287   5.834 -11.204  0.00  0.00    +0.048 A 
ATOM      2  C   UNL     1       2.056   6.477 -11.183  0.00  0.00    +0.082 A 
ATOM      3  C   UNL     1       1.137   6.309 -12.197  0.00  0.00    +0.332 A 
ATOM      4  C   UNL     1       1.582   5.600 -13.303  0.00  0.00    +0.303 A 
ATOM      5  O   UNL     1       0.637   5.083 -14.190  0.00  0.00    -0.277 OA
ATOM      6  C   UNL     1       2.916   5.262 -13.479  0.00  0.00    +0.241 A 
ATOM      7  O   UNL     1       3.385   4.872 -14.727  0.00  0.00    -0.283 OA
ATOM      8  C   UNL     1       3.806   5.565 -12.456  0.00  0.00    +0.049 A 
ENDROOT
BRANCH   3   9
ATOM      9  N   UNL     1      -0.028   7.129 -12.328  0.00  0.00    +0.084 N 
ATOM     10  O   UNL     1      -0.884   7.173 -11.251  0.00  0.00    -0.576 OA
ATOM     11  O   UNL     1       0.104   8.183 -13.000  0.00  0.00    +0.042 OA
ENDBRANCH   3   9
BRANCH   1  12
ATOM     12  C   UNL     1       4.065   5.856  -9.987  0.00  0.00    +0.196 C 
ATOM     13  O   UNL     1       3.531   5.404  -8.931  0.00  0.00    -0.287 OA
BRANCH  12  18
ATOM     14  C   UNL     1       8.830   5.858 -12.214  0.00  0.00    +0.031 C 
ATOM     15  C   UNL     1       7.992   6.389 -11.094  0.00  0.00    -0.022 A 
ATOM     16  C   UNL     1       7.101   7.436 -11.291  0.00  0.00    -0.004 A 
ATOM     17  C   UNL     1       5.824   7.421 -10.742  0.00  0.00    +0.003 A 
ATOM     18  C   UNL     1       5.433   6.381  -9.906  0.00  0.00    +0.039 A 
ATOM     19  C   UNL     1       6.456   5.579  -9.414  0.00  0.00    +0.003 A 
ATOM     20  C   UNL     1       7.710   5.560 -10.015  0.00  0.00    -0.004 A 
ENDBRANCH  12  18
ENDBRANCH   1  12
TORSDOF 3
ENDMDL
MODEL 9
REMARK VINA RESULT:      -7.1      2.837      6.443
REMARK  Name = 
REMARK  3 active torsions:
REMARK  status: ('A' for Active; 'I' for Inactive)
REMARK    1  A    between atoms: C_5  and  C_6
REMARK    2  A    between atoms: C_6  and  C_8
REMARK    3  A    between atoms: C_14  and  N_15
REMARK                            x       y       z     vdW  Elec       q    Type
REMARK                         _______ _______ _______ _____ _____    ______ ____
ROOT
ATOM      1  C   UNL     1       2.325   6.937  -6.255  0.00  0.00    +0.048 A 
ATOM      2  C   UNL     1       3.284   7.186  -5.282  0.00  0.00    +0.082 A 
ATOM      3  C   UNL     1       3.143   6.713  -3.993  0.00  0.00    +0.332 A 
ATOM      4  C   UNL     1       1.922   6.127  -3.696  0.00  0.00    +0.303 A 
ATOM      5  O   UNL     1       1.827   5.320  -2.562  0.00  0.00    -0.277 OA
ATOM      6  C   UNL     1       0.838   6.195  -4.559  0.00  0.00    +0.241 A 
ATOM      7  O   UNL     1      -0.445   5.914  -4.103  0.00  0.00    -0.283 OA
ATOM      8  C   UNL     1       1.029   6.787  -5.801  0.00  0.00    +0.049 A 
ENDROOT
BRANCH   3   9
ATOM      9  N   UNL     1       3.980   7.145  -2.917  0.00  0.00    +0.084 N 
ATOM     10  O   UNL     1       3.499   8.163  -2.124  0.00  0.00    -0.576 OA
ATOM     11  O   UNL     1       4.671   6.259  -2.355  0.00  0.00    +0.042 OA
ENDBRANCH   3   9
BRANCH   1  12
ATOM     12  C   UNL     1       2.679   7.235  -7.623  0.00  0.00    +0.196 C 
ATOM     13  O   UNL     1       2.292   8.338  -8.111  0.00  0.00    -0.287 OA
BRANCH  12  18
ATOM     14  C   UNL     1       7.448   6.104  -9.531  0.00  0.00    +0.031 C 
ATOM     15  C   UNL     1       6.004   5.712  -9.509  0.00  0.00    -0.022 A 
ATOM     16  C   UNL     1       5.463   5.003  -8.444  0.00  0.00    -0.004 A 
ATOM     17  C   UNL     1       4.223   5.325  -7.905  0.00  0.00    +0.003 A 
ATOM     18  C   UNL     1       3.450   6.327  -8.481  0.00  0.00    +0.039 A 
ATOM     19  C   UNL     1       3.827   6.731  -9.756  0.00  0.00    +0.003 A 
ATOM     20  C   UNL     1       5.095   6.453 -10.254  0.00  0.00    -0.004 A 
ENDBRANCH  12  18
ENDBRANCH   1  12
TORSDOF 3
ENDMDL
