MODEL 1
REMARK VINA RESULT:      -8.2      0.000      0.000
REMARK  Name = 
REMARK  8 active torsions:
REMARK  status: ('A' for Active; 'I' for Inactive)
REMARK    1  A    between atoms: C_2  and  C_4
REMARK    2  A    between atoms: C_4  and  O_5
REMARK    3  A    between atoms: O_5  and  C_6
REMARK    4  A    between atoms: C_6  and  C_7
REMARK    5  A    between atoms: C_7  and  N_8
REMARK    6  A    between atoms: N_11  and  C_12
REMARK    7  A    between atoms: C_12  and  C_13
REMARK    8  A    between atoms: C_12  and  C_19
REMARK                            x       y       z     vdW  Elec       q    Type
REMARK                         _______ _______ _______ _____ _____    ______ ____
ROOT
ATOM      1  C   UNL     1       2.998   5.057  -6.696  0.00  0.00    +0.103 C 
ENDROOT
BRANCH   1   2
ATOM      2  C   UNL     1       3.848   5.977  -7.776  0.00  0.00    -0.004 A 
ATOM      3  C   UNL     1       2.957   6.376  -8.770  0.00  0.00    -0.002 A 
ATOM      4  C   UNL     1       3.283   6.330 -10.121  0.00  0.00    +0.011 A 
ATOM      5  C   UNL     1       4.533   5.866 -10.512  0.00  0.00    +0.058 A 
ATOM      6 CL   UNL     1       4.835   5.259 -12.139  0.00  0.00    -0.082 Cl
ATOM      7  C   UNL     1       5.463   5.713  -9.490  0.00  0.00    +0.011 A 
ATOM      8  C   UNL     1       4.961   5.308  -8.260  0.00  0.00    -0.002 A 
ENDBRANCH   1   2
BRANCH   1   9
ATOM      9  C   UNL     1       3.658   5.794  -5.381  0.00  0.00    -0.004 A 
ATOM     10  C   UNL     1       4.088   7.062  -5.556  0.00  0.00    -0.003 A 
ATOM     11  C   UNL     1       4.682   7.650  -4.444  0.00  0.00    -0.000 A 
ATOM     12  C   UNL     1       5.257   6.846  -3.481  0.00  0.00    -0.000 A 
ATOM     13  C   UNL     1       5.130   5.465  -3.564  0.00  0.00    -0.000 A 
ATOM     14  C   UNL     1       4.305   4.917  -4.539  0.00  0.00    -0.003 A 
ENDBRANCH   1   9
BRANCH   1  18
ATOM     15  N   UNL     1      -0.881   5.761  -5.570  0.00  0.00    -0.268 NA
ATOM     16  C   UNL     1       0.309   5.173  -4.958  0.00  0.00    +0.090 C 
ATOM     17  C   UNL     1       1.452   6.121  -5.301  0.00  0.00    +0.090 C 
ATOM     18  N   UNL     1       1.754   6.080  -6.731  0.00  0.00    -0.264 NA
ATOM     19  C   UNL     1       0.728   5.265  -7.367  0.00  0.00    +0.090 C 
ATOM     20  C   UNL     1      -0.641   5.743  -7.000  0.00  0.00    +0.090 C 
BRANCH  15  21
ATOM     21  C   UNL     1      -1.064   7.135  -5.174  0.00  0.00    +0.105 C 
BRANCH  21  22
ATOM     22  C   UNL     1      -2.317   7.355  -4.372  0.00  0.00    +0.160 C 
BRANCH  22  23
ATOM     23  O   UNL     1      -2.065   7.583  -3.023  0.00  0.00    -0.341 OA
BRANCH  23  24
ATOM     24  C   UNL     1      -2.843   6.804  -2.185  0.00  0.00    +0.257 C 
BRANCH  24  26
ATOM     25  O   UNL     1      -2.881   4.642  -2.724  0.00  0.00    -0.243 OA
ATOM     26  C   UNL     1      -2.351   5.412  -2.206  0.00  0.00    +0.394 C 
ATOM     27  O   UNL     1      -1.102   5.143  -1.637  0.00  0.00    -0.243 OA
ENDBRANCH  24  26
ENDBRANCH  23  24
ENDBRANCH  22  23
ENDBRANCH  21  22
ENDBRANCH  15  21
ENDBRANCH   1  18
TORSDOF 8
ENDMDL
MODEL 2
REMARK VINA RESULT:      -7.8      5.260      7.761
REMARK  Name = 
REMARK  8 active torsions:
REMARK  status: ('A' for Active; 'I' for Inactive)
REMARK    1  A    between atoms: C_2  and  C_4
REMARK    2  A    between atoms: C_4  and  O_5
REMARK    3  A    between atoms: O_5  and  C_6
REMARK    4  A    between atoms: C_6  and  C_7
REMARK    5  A    between atoms: C_7  and  N_8
REMARK    6  A    between atoms: N_11  and  C_12
REMARK    7  A    between atoms: C_12  and  C_13
REMARK    8  A    between atoms: C_12  and  C_19
REMARK                            x       y       z     vdW  Elec       q    Type
REMARK                         _______ _______ _______ _____ _____    ______ ____
ROOT
ATOM      1  C   UNL     1       1.580   6.741  -6.027  0.00  0.00    +0.103 C 
ENDROOT
BRANCH   1   2
ATOM      2  C   UNL     1       0.411   5.712  -5.469  0.00  0.00    -0.004 A 
ATOM      3  C   UNL     1      -0.779   6.053  -6.107  0.00  0.00    -0.002 A 
ATOM      4  C   UNL     1      -1.986   6.149  -5.425  0.00  0.00    +0.011 A 
ATOM      5  C   UNL     1      -2.025   5.906  -4.058  0.00  0.00    +0.058 A 
ATOM      6 CL   UNL     1      -3.325   6.521  -3.038  0.00  0.00    -0.082 Cl
ATOM      7  C   UNL     1      -0.878   5.338  -3.515  0.00  0.00    +0.011 A 
ATOM      8  C   UNL     1       0.327   5.728  -4.086  0.00  0.00    -0.002 A 
ENDBRANCH   1   2
BRANCH   1   9
ATOM      9  C   UNL     1       2.673   6.298  -4.878  0.00  0.00    -0.004 A 
ATOM     10  C   UNL     1       3.521   7.261  -4.453  0.00  0.00    -0.003 A 
ATOM     11  C   UNL     1       4.463   6.854  -3.516  0.00  0.00    -0.000 A 
ATOM     12  C   UNL     1       4.834   5.526  -3.462  0.00  0.00    -0.000 A 
ATOM     13  C   UNL     1       4.178   4.590  -4.252  0.00  0.00    -0.000 A 
ATOM     14  C   UNL     1       3.062   4.982  -4.981  0.00  0.00    -0.003 A 
ENDBRANCH   1   9
BRANCH   1  18
ATOM     15  N   UNL     1       2.618   5.918  -9.906  0.00  0.00    -0.268 NA
ATOM     16  C   UNL     1       2.791   7.033  -8.979  0.00  0.00    +0.090 C 
ATOM     17  C   UNL     1       3.220   6.400  -7.659  0.00  0.00    +0.090 C 
ATOM     18  N   UNL     1       2.123   5.637  -7.067  0.00  0.00    -0.264 NA
ATOM     19  C   UNL     1       1.042   5.602  -8.041  0.00  0.00    +0.090 C 
ATOM     20  C   UNL     1       1.532   5.120  -9.369  0.00  0.00    +0.090 C 
BRANCH  15  21
ATOM     21  C   UNL     1       3.790   5.081  -9.963  0.00  0.00    +0.105 C 
BRANCH  21  22
ATOM     22  C   UNL     1       4.690   5.404 -11.123  0.00  0.00    +0.160 C 
BRANCH  22  23
ATOM     23  O   UNL     1       6.034   5.463 -10.768  0.00  0.00    -0.341 OA
BRANCH  23  24
ATOM     24  C   UNL     1       6.793   6.228 -11.635  0.00  0.00    +0.257 C 
BRANCH  24  26
ATOM     25  O   UNL     1       7.670   4.537 -12.793  0.00  0.00    -0.243 OA
ATOM     26  C   UNL     1       7.879   5.402 -12.201  0.00  0.00    +0.394 C 
ATOM     27  O   UNL     1       9.196   5.850 -12.053  0.00  0.00    -0.243 OA
ENDBRANCH  24  26
ENDBRANCH  23  24
ENDBRANCH  22  23
ENDBRANCH  21  22
ENDBRANCH  15  21
ENDBRANCH   1  18
TORSDOF 8
ENDMDL
MODEL 3
REMARK VINA RESULT:      -7.8      5.037      7.795
REMARK  Name = 
REMARK  8 active torsions:
REMARK  status: ('A' for Active; 'I' for Inactive)
REMARK    1  A    between atoms: C_2  and  C_4
REMARK    2  A    between atoms: C_4  and  O_5
REMARK    3  A    between atoms: O_5  and  C_6
REMARK    4  A    between atoms: C_6  and  C_7
REMARK    5  A    between atoms: C_7  and  N_8
REMARK    6  A    between atoms: N_11  and  C_12
REMARK    7  A    between atoms: C_12  and  C_13
REMARK    8  A    between atoms: C_12  and  C_19
REMARK                            x       y       z     vdW  Elec       q    Type
REMARK                         _______ _______ _______ _____ _____    ______ ____
ROOT
ATOM      1  C   UNL     1       3.167   4.773  -5.866  0.00  0.00    +0.103 C 
ENDROOT
BRANCH   1   2
ATOM      2  C   UNL     1       4.329   5.637  -5.066  0.00  0.00    -0.004 A 
ATOM      3  C   UNL     1       4.432   5.103  -3.784  0.00  0.00    -0.002 A 
ATOM      4  C   UNL     1       4.514   5.904  -2.651  0.00  0.00    +0.011 A 
ATOM      5  C   UNL     1       4.488   7.287  -2.782  0.00  0.00    +0.058 A 
ATOM      6 CL   UNL     1       4.036   8.342  -1.445  0.00  0.00    -0.082 Cl
ATOM      7  C   UNL     1       4.630   7.770  -4.078  0.00  0.00    +0.011 A 
ATOM      8  C   UNL     1       4.066   6.997  -5.085  0.00  0.00    -0.002 A 
ENDBRANCH   1   2
BRANCH   1   9
ATOM      9  C   UNL     1       1.929   5.689  -5.284  0.00  0.00    -0.004 A 
ATOM     10  C   UNL     1       1.126   5.102  -4.371  0.00  0.00    -0.003 A 
ATOM     11  C   UNL     1       0.062   5.878  -3.926  0.00  0.00    -0.000 A 
ATOM     12  C   UNL     1      -0.422   6.888  -4.732  0.00  0.00    -0.000 A 
ATOM     13  C   UNL     1       0.231   7.202  -5.917  0.00  0.00    -0.000 A 
ATOM     14  C   UNL     1       1.445   6.590  -6.205  0.00  0.00    -0.003 A 
ENDBRANCH   1   9
BRANCH   1  18
ATOM     15  N   UNL     1       4.171   4.918  -9.838  0.00  0.00    -0.268 NA
ATOM     16  C   UNL     1       3.442   4.003  -8.964  0.00  0.00    +0.090 C 
ATOM     17  C   UNL     1       2.536   4.888  -8.115  0.00  0.00    +0.090 C 
ATOM     18  N   UNL     1       3.321   5.693  -7.180  0.00  0.00    -0.264 NA
ATOM     19  C   UNL     1       4.725   5.494  -7.509  0.00  0.00    +0.090 C 
ATOM     20  C   UNL     1       4.977   5.747  -8.961  0.00  0.00    +0.090 C 
BRANCH  15  21
ATOM     21  C   UNL     1       3.281   5.787 -10.566  0.00  0.00    +0.105 C 
BRANCH  21  22
ATOM     22  C   UNL     1       3.574   5.831 -12.041  0.00  0.00    +0.160 C 
BRANCH  22  23
ATOM     23  O   UNL     1       4.608   4.979 -12.414  0.00  0.00    -0.341 OA
BRANCH  23  24
ATOM     24  C   UNL     1       5.562   5.595 -13.205  0.00  0.00    +0.257 C 
BRANCH  24  26
ATOM     25  O   UNL     1       7.078   6.392 -11.779  0.00  0.00    -0.243 OA
ATOM     26  C   UNL     1       6.853   5.625 -12.489  0.00  0.00    +0.394 C 
ATOM     27  O   UNL     1       7.732   4.552 -12.665  0.00  0.00    -0.243 OA
ENDBRANCH  24  26
ENDBRANCH  23  24
ENDBRANCH  22  23
ENDBRANCH  21  22
ENDBRANCH  15  21
ENDBRANCH   1  18
TORSDOF 8
ENDMDL
MODEL 4
REMARK VINA RESULT:      -7.6      2.745      5.248
REMARK  Name = 
REMARK  8 active torsions:
REMARK  status: ('A' for Active; 'I' for Inactive)
REMARK    1  A    between atoms: C_2  and  C_4
REMARK    2  A    between atoms: C_4  and  O_5
REMARK    3  A    between atoms: O_5  and  C_6
REMARK    4  A    between atoms: C_6  and  C_7
REMARK    5  A    between atoms: C_7  and  N_8
REMARK    6  A    between atoms: N_11  and  C_12
REMARK    7  A    between atoms: C_12  and  C_13
REMARK    8  A    between atoms: C_12  and  C_19
REMARK                            x       y       z     vdW  Elec       q    Type
REMARK                         _______ _______ _______ _____ _____    ______ ____
ROOT
ATOM      1  C   UNL     1       1.212   7.041  -5.355  0.00  0.00    +0.103 C 
ENDROOT
BRANCH   1   2
ATOM      2  C   UNL     1       1.234   6.030  -6.664  0.00  0.00    -0.004 A 
ATOM      3  C   UNL     1       2.040   6.624  -7.632  0.00  0.00    -0.002 A 
ATOM      4  C   UNL     1       1.675   6.676  -8.972  0.00  0.00    +0.011 A 
ATOM      5  C   UNL     1       0.464   6.128  -9.377  0.00  0.00    +0.058 A 
ATOM      6 CL   UNL     1      -0.324   6.614 -10.877  0.00  0.00    -0.082 Cl
ATOM      7  C   UNL     1      -0.185   5.341  -8.433  0.00  0.00    +0.011 A 
ATOM      8  C   UNL     1      -0.045   5.733  -7.108  0.00  0.00    -0.002 A 
ENDBRANCH   1   2
BRANCH   1   9
ATOM      9  C   UNL     1      -0.357   6.708  -4.984  0.00  0.00    -0.004 A 
ATOM     10  C   UNL     1      -1.197   7.764  -4.925  0.00  0.00    -0.003 A 
ATOM     11  C   UNL     1      -2.506   7.464  -4.567  0.00  0.00    -0.000 A 
ATOM     12  C   UNL     1      -2.762   6.328  -3.827  0.00  0.00    -0.000 A 
ATOM     13  C   UNL     1      -1.736   5.432  -3.554  0.00  0.00    -0.000 A 
ATOM     14  C   UNL     1      -0.495   5.621  -4.150  0.00  0.00    -0.003 A 
ENDBRANCH   1   9
BRANCH   1  18
ATOM     15  N   UNL     1       4.371   5.629  -3.155  0.00  0.00    -0.268 NA
ATOM     16  C   UNL     1       3.760   6.931  -3.415  0.00  0.00    +0.090 C 
ATOM     17  C   UNL     1       2.257   6.706  -3.290  0.00  0.00    +0.090 C 
ATOM     18  N   UNL     1       1.761   5.876  -4.386  0.00  0.00    -0.264 NA
ATOM     19  C   UNL     1       2.919   5.403  -5.131  0.00  0.00    +0.090 C 
ATOM     20  C   UNL     1       3.915   4.758  -4.221  0.00  0.00    +0.090 C 
BRANCH  15  21
ATOM     21  C   UNL     1       3.922   5.067  -1.906  0.00  0.00    +0.105 C 
BRANCH  21  22
ATOM     22  C   UNL     1       4.538   5.730  -0.705  0.00  0.00    +0.160 C 
BRANCH  22  23
ATOM     23  O   UNL     1       3.599   6.098   0.253  0.00  0.00    -0.341 OA
BRANCH  23  24
ATOM     24  C   UNL     1       3.323   7.454   0.251  0.00  0.00    +0.257 C 
BRANCH  24  26
ATOM     25  O   UNL     1       1.465   8.647   0.557  0.00  0.00    -0.243 OA
ATOM     26  C   UNL     1       1.877   7.664   0.467  0.00  0.00    +0.394 C 
ATOM     27  O   UNL     1       1.033   6.550   0.426  0.00  0.00    -0.243 OA
ENDBRANCH  24  26
ENDBRANCH  23  24
ENDBRANCH  22  23
ENDBRANCH  21  22
ENDBRANCH  15  21
ENDBRANCH   1  18
TORSDOF 8
ENDMDL
MODEL 5
REMARK VINA RESULT:      -7.6      1.931      4.447
REMARK  Name = 
REMARK  8 active torsions:
REMARK  status: ('A' for Active; 'I' for Inactive)
REMARK    1  A    between atoms: C_2  and  C_4
REMARK    2  A    between atoms: C_4  and  O_5
REMARK    3  A    between atoms: O_5  and  C_6
REMARK    4  A    between atoms: C_6  and  C_7
REMARK    5  A    between atoms: C_7  and  N_8
REMARK    6  A    between atoms: N_11  and  C_12
REMARK    7  A    between atoms: C_12  and  C_13
REMARK    8  A    between atoms: C_12  and  C_19
REMARK                            x       y       z     vdW  Elec       q    Type
REMARK                         _______ _______ _______ _____ _____    ______ ____
ROOT
ATOM      1  C   UNL     1       1.701   7.048  -6.582  0.00  0.00    +0.103 C 
ENDROOT
BRANCH   1   2
ATOM      2  C   UNL     1       1.669   6.083  -7.925  0.00  0.00    -0.004 A 
ATOM      3  C   UNL     1       2.637   5.097  -7.750  0.00  0.00    -0.002 A 
ATOM      4  C   UNL     1       3.511   4.727  -8.766  0.00  0.00    +0.011 A 
ATOM      5  C   UNL     1       3.434   5.354 -10.003  0.00  0.00    +0.058 A 
ATOM      6 CL   UNL     1       4.791   5.366 -11.128  0.00  0.00    -0.082 Cl
ATOM      7  C   UNL     1       2.310   6.146 -10.206  0.00  0.00    +0.011 A 
ATOM      8  C   UNL     1       1.823   6.816  -9.091  0.00  0.00    -0.002 A 
ENDBRANCH   1   2
BRANCH   1   9
ATOM      9  C   UNL     1       0.253   6.504  -6.021  0.00  0.00    -0.004 A 
ATOM     10  C   UNL     1      -0.417   5.645  -6.820  0.00  0.00    -0.003 A 
ATOM     11  C   UNL     1      -1.657   5.233  -6.346  0.00  0.00    -0.000 A 
ATOM     12  C   UNL     1      -2.343   6.037  -5.458  0.00  0.00    -0.000 A 
ATOM     13  C   UNL     1      -1.740   7.181  -4.951  0.00  0.00    -0.000 A 
ATOM     14  C   UNL     1      -0.402   7.425  -5.235  0.00  0.00    -0.003 A 
ENDBRANCH   1   9
BRANCH   1  18
ATOM     15  N   UNL     1       4.081   6.285  -3.332  0.00  0.00    -0.268 NA
ATOM     16  C   UNL     1       2.901   7.100  -3.611  0.00  0.00    +0.090 C 
ATOM     17  C   UNL     1       1.969   6.202  -4.418  0.00  0.00    +0.090 C 
ATOM     18  N   UNL     1       2.519   5.939  -5.746  0.00  0.00    -0.264 NA
ATOM     19  C   UNL     1       3.866   6.492  -5.776  0.00  0.00    +0.090 C 
ATOM     20  C   UNL     1       4.676   5.993  -4.622  0.00  0.00    +0.090 C 
BRANCH  15  21
ATOM     21  C   UNL     1       3.730   5.029  -2.716  0.00  0.00    +0.105 C 
BRANCH  21  22
ATOM     22  C   UNL     1       3.787   5.072  -1.214  0.00  0.00    +0.160 C 
BRANCH  22  23
ATOM     23  O   UNL     1       2.567   5.401  -0.634  0.00  0.00    -0.341 OA
BRANCH  23  24
ATOM     24  C   UNL     1       1.527   4.594  -1.059  0.00  0.00    +0.257 C 
BRANCH  24  26
ATOM     25  O   UNL     1       0.171   6.317  -0.657  0.00  0.00    -0.243 OA
ATOM     26  C   UNL     1       0.298   5.403  -1.196  0.00  0.00    +0.394 C 
ATOM     27  O   UNL     1      -0.649   5.010  -2.146  0.00  0.00    -0.243 OA
ENDBRANCH  24  26
ENDBRANCH  23  24
ENDBRANCH  22  23
ENDBRANCH  21  22
ENDBRANCH  15  21
ENDBRANCH   1  18
TORSDOF 8
ENDMDL
MODEL 6
REMARK VINA RESULT:      -7.3      3.137      5.001
REMARK  Name = 
REMARK  8 active torsions:
REMARK  status: ('A' for Active; 'I' for Inactive)
REMARK    1  A    between atoms: C_2  and  C_4
REMARK    2  A    between atoms: C_4  and  O_5
REMARK    3  A    between atoms: O_5  and  C_6
REMARK    4  A    between atoms: C_6  and  C_7
REMARK    5  A    between atoms: C_7  and  N_8
REMARK    6  A    between atoms: N_11  and  C_12
REMARK    7  A    between atoms: C_12  and  C_13
REMARK    8  A    between atoms: C_12  and  C_19
REMARK                            x       y       z     vdW  Elec       q    Type
REMARK                         _______ _______ _______ _____ _____    ______ ____
ROOT
ATOM      1  C   UNL     1       3.790   5.146  -9.621  0.00  0.00    +0.103 C 
ENDROOT
BRANCH   1   2
ATOM      2  C   UNL     1       2.640   5.850 -10.579  0.00  0.00    -0.004 A 
ATOM      3  C   UNL     1       1.457   5.138 -10.398  0.00  0.00    -0.002 A 
ATOM      4  C   UNL     1       0.644   4.767 -11.462  0.00  0.00    +0.011 A 
ATOM      5  C   UNL     1       1.011   5.104 -12.760  0.00  0.00    +0.058 A 
ATOM      6 CL   UNL     1       0.383   4.238 -14.161  0.00  0.00    -0.082 Cl
ATOM      7  C   UNL     1       2.057   6.013 -12.871  0.00  0.00    +0.011 A 
ATOM      8  C   UNL     1       3.048   5.928 -11.901  0.00  0.00    -0.002 A 
ENDBRANCH   1   2
BRANCH   1   9
ATOM      9  C   UNL     1       5.044   5.876 -10.398  0.00  0.00    -0.004 A 
ATOM     10  C   UNL     1       6.271   5.359 -10.174  0.00  0.00    -0.003 A 
ATOM     11  C   UNL     1       7.320   6.017 -10.806  0.00  0.00    -0.000 A 
ATOM     12  C   UNL     1       7.175   7.347 -11.147  0.00  0.00    -0.000 A 
ATOM     13  C   UNL     1       5.950   7.978 -10.974  0.00  0.00    -0.000 A 
ATOM     14  C   UNL     1       4.847   7.225 -10.591  0.00  0.00    -0.003 A 
ENDBRANCH   1   9
BRANCH   1  18
ATOM     15  N   UNL     1       2.626   6.226  -5.841  0.00  0.00    -0.268 NA
ATOM     16  C   UNL     1       3.286   5.077  -6.457  0.00  0.00    +0.090 C 
ATOM     17  C   UNL     1       4.325   5.667  -7.405  0.00  0.00    +0.090 C 
ATOM     18  N   UNL     1       3.681   6.332  -8.536  0.00  0.00    -0.264 NA
ATOM     19  C   UNL     1       2.249   6.350  -8.271  0.00  0.00    +0.090 C 
ATOM     20  C   UNL     1       1.961   6.928  -6.922  0.00  0.00    +0.090 C 
BRANCH  15  21
ATOM     21  C   UNL     1       3.575   7.134  -5.246  0.00  0.00    +0.105 C 
BRANCH  21  22
ATOM     22  C   UNL     1       3.486   7.181  -3.746  0.00  0.00    +0.160 C 
BRANCH  22  23
ATOM     23  O   UNL     1       2.862   6.063  -3.204  0.00  0.00    -0.341 OA
BRANCH  23  24
ATOM     24  C   UNL     1       3.737   5.217  -2.546  0.00  0.00    +0.257 C 
BRANCH  24  26
ATOM     25  O   UNL     1       3.923   5.615  -0.361  0.00  0.00    -0.243 OA
ATOM     26  C   UNL     1       3.357   5.121  -1.122  0.00  0.00    +0.394 C 
ATOM     27  O   UNL     1       2.161   4.473  -0.799  0.00  0.00    -0.243 OA
ENDBRANCH  24  26
ENDBRANCH  23  24
ENDBRANCH  22  23
ENDBRANCH  21  22
ENDBRANCH  15  21
ENDBRANCH   1  18
TORSDOF 8
ENDMDL
MODEL 7
REMARK VINA RESULT:      -7.3      2.084      3.129
REMARK  Name = 
REMARK  8 active torsions:
REMARK  status: ('A' for Active; 'I' for Inactive)
REMARK    1  A    between atoms: C_2  and  C_4
REMARK    2  A    between atoms: C_4  and  O_5
REMARK    3  A    between atoms: O_5  and  C_6
REMARK    4  A    between atoms: C_6  and  C_7
REMARK    5  A    between atoms: C_7  and  N_8
REMARK    6  A    between atoms: N_11  and  C_12
REMARK    7  A    between atoms: C_12  and  C_13
REMARK    8  A    between atoms: C_12  and  C_19
REMARK                            x       y       z     vdW  Elec       q    Type
REMARK                         _______ _______ _______ _____ _____    ______ ____
ROOT
ATOM      1  C   UNL     1       0.988   5.454  -5.393  0.00  0.00    +0.103 C 
ENDROOT
BRANCH   1   2
ATOM      2  C   UNL     1       0.902   6.425  -6.729  0.00  0.00    -0.004 A 
ATOM      3  C   UNL     1       0.235   5.708  -7.719  0.00  0.00    -0.002 A 
ATOM      4  C   UNL     1       0.675   5.678  -9.037  0.00  0.00    +0.011 A 
ATOM      5  C   UNL     1       1.822   6.375  -9.397  0.00  0.00    +0.058 A 
ATOM      6 CL   UNL     1       2.747   5.969 -10.841  0.00  0.00    -0.082 Cl
ATOM      7  C   UNL     1       2.309   7.262  -8.443  0.00  0.00    +0.011 A 
ATOM      8  C   UNL     1       2.152   6.882  -7.116  0.00  0.00    -0.002 A 
ENDBRANCH   1   2
BRANCH   1   9
ATOM      9  C   UNL     1       2.550   5.855  -5.065  0.00  0.00    -0.004 A 
ATOM     10  C   UNL     1       3.415   4.829  -4.915  0.00  0.00    -0.003 A 
ATOM     11  C   UNL     1       4.719   5.190  -4.595  0.00  0.00    -0.000 A 
ATOM     12  C   UNL     1       4.952   6.395  -3.964  0.00  0.00    -0.000 A 
ATOM     13  C   UNL     1       3.906   7.288  -3.767  0.00  0.00    -0.000 A 
ATOM     14  C   UNL     1       2.667   7.017  -4.335  0.00  0.00    -0.003 A 
ENDBRANCH   1   9
BRANCH   1  18
ATOM     15  N   UNL     1      -2.224   6.879  -3.281  0.00  0.00    -0.268 NA
ATOM     16  C   UNL     1      -1.607   5.576  -3.517  0.00  0.00    +0.090 C 
ATOM     17  C   UNL     1      -0.107   5.802  -3.356  0.00  0.00    +0.090 C 
ATOM     18  N   UNL     1       0.416   6.625  -4.445  0.00  0.00    -0.264 NA
ATOM     19  C   UNL     1      -0.724   7.093  -5.222  0.00  0.00    +0.090 C 
ATOM     20  C   UNL     1      -1.742   7.744  -4.341  0.00  0.00    +0.090 C 
BRANCH  15  21
ATOM     21  C   UNL     1      -1.806   7.450  -2.025  0.00  0.00    +0.105 C 
BRANCH  21  22
ATOM     22  C   UNL     1      -2.459   6.801  -0.836  0.00  0.00    +0.160 C 
BRANCH  22  23
ATOM     23  O   UNL     1      -1.648   6.799   0.294  0.00  0.00    -0.341 OA
BRANCH  23  24
ATOM     24  C   UNL     1      -0.562   7.649   0.186  0.00  0.00    +0.257 C 
BRANCH  24  26
ATOM     25  O   UNL     1       1.118   6.193   0.028  0.00  0.00    -0.243 OA
ATOM     26  C   UNL     1       0.660   6.949   0.631  0.00  0.00    +0.394 C 
ATOM     27  O   UNL     1       1.282   7.384   1.805  0.00  0.00    -0.243 OA
ENDBRANCH  24  26
ENDBRANCH  23  24
ENDBRANCH  22  23
ENDBRANCH  21  22
ENDBRANCH  15  21
ENDBRANCH   1  18
TORSDOF 8
ENDMDL
MODEL 8
REMARK VINA RESULT:      -7.3      5.015      7.959
REMARK  Name = 
REMARK  8 active torsions:
REMARK  status: ('A' for Active; 'I' for Inactive)
REMARK    1  A    between atoms: C_2  and  C_4
REMARK    2  A    between atoms: C_4  and  O_5
REMARK    3  A    between atoms: O_5  and  C_6
REMARK    4  A    between atoms: C_6  and  C_7
REMARK    5  A    between atoms: C_7  and  N_8
REMARK    6  A    between atoms: N_11  and  C_12
REMARK    7  A    between atoms: C_12  and  C_13
REMARK    8  A    between atoms: C_12  and  C_19
REMARK                            x       y       z     vdW  Elec       q    Type
REMARK                         _______ _______ _______ _____ _____    ______ ____
ROOT
ATOM      1  C   UNL     1       1.226   5.264  -4.770  0.00  0.00    +0.103 C 
ENDROOT
BRANCH   1   2
ATOM      2  C   UNL     1       1.458   6.292  -3.496  0.00  0.00    -0.004 A 
ATOM      3  C   UNL     1       2.685   6.922  -3.691  0.00  0.00    -0.002 A 
ATOM      4  C   UNL     1       3.605   7.087  -2.662  0.00  0.00    +0.011 A 
ATOM      5  C   UNL     1       3.311   6.609  -1.391  0.00  0.00    +0.058 A 
ATOM      6 CL   UNL     1       4.572   6.272  -0.207  0.00  0.00    -0.082 Cl
ATOM      7  C   UNL     1       1.994   6.213  -1.189  0.00  0.00    +0.011 A 
ATOM      8  C   UNL     1       1.353   5.639  -2.279  0.00  0.00    -0.002 A 
ENDBRANCH   1   2
BRANCH   1   9
ATOM      9  C   UNL     1      -0.130   6.037  -5.291  0.00  0.00    -0.004 A 
ATOM     10  C   UNL     1      -0.526   7.108  -4.569  0.00  0.00    -0.003 A 
ATOM     11  C   UNL     1      -1.697   7.719  -5.001  0.00  0.00    -0.000 A 
ATOM     12  C   UNL     1      -2.619   6.983  -5.719  0.00  0.00    -0.000 A 
ATOM     13  C   UNL     1      -2.317   5.685  -6.110  0.00  0.00    -0.000 A 
ATOM     14  C   UNL     1      -1.035   5.193  -5.895  0.00  0.00    -0.003 A 
ENDBRANCH   1   9
BRANCH   1  18
ATOM     15  N   UNL     1       3.526   5.365  -8.162  0.00  0.00    -0.268 NA
ATOM     16  C   UNL     1       2.238   4.794  -7.774  0.00  0.00    +0.090 C 
ATOM     17  C   UNL     1       1.522   5.897  -7.002  0.00  0.00    +0.090 C 
ATOM     18  N   UNL     1       2.180   6.148  -5.721  0.00  0.00    -0.264 NA
ATOM     19  C   UNL     1       3.409   5.368  -5.703  0.00  0.00    +0.090 C 
ATOM     20  C   UNL     1       4.231   5.634  -6.924  0.00  0.00    +0.090 C 
BRANCH  15  21
ATOM     21  C   UNL     1       3.369   6.618  -8.858  0.00  0.00    +0.105 C 
BRANCH  21  22
ATOM     22  C   UNL     1       3.884   6.578 -10.270  0.00  0.00    +0.160 C 
BRANCH  22  23
ATOM     23  O   UNL     1       5.245   6.302 -10.343  0.00  0.00    -0.341 OA
BRANCH  23  24
ATOM     24  C   UNL     1       5.609   5.663 -11.515  0.00  0.00    +0.257 C 
BRANCH  24  26
ATOM     25  O   UNL     1       7.703   5.906 -10.792  0.00  0.00    -0.243 OA
ATOM     26  C   UNL     1       7.074   5.479 -11.544  0.00  0.00    +0.394 C 
ATOM     27  O   UNL     1       7.614   4.625 -12.510  0.00  0.00    -0.243 OA
ENDBRANCH  24  26
ENDBRANCH  23  24
ENDBRANCH  22  23
ENDBRANCH  21  22
ENDBRANCH  15  21
ENDBRANCH   1  18
TORSDOF 8
ENDMDL
MODEL 9
REMARK VINA RESULT:      -7.3      4.884      7.435
REMARK  Name = 
REMARK  8 active torsions:
REMARK  status: ('A' for Active; 'I' for Inactive)
REMARK    1  A    between atoms: C_2  and  C_4
REMARK    2  A    between atoms: C_4  and  O_5
REMARK    3  A    between atoms: O_5  and  C_6
REMARK    4  A    between atoms: C_6  and  C_7
REMARK    5  A    between atoms: C_7  and  N_8
REMARK    6  A    between atoms: N_11  and  C_12
REMARK    7  A    between atoms: C_12  and  C_13
REMARK    8  A    between atoms: C_12  and  C_19
REMARK                            x       y       z     vdW  Elec       q    Type
REMARK                         _______ _______ _______ _____ _____    ______ ____
ROOT
ATOM      1  C   UNL     1       0.955   5.333  -5.373  0.00  0.00    +0.103 C 
ENDROOT
BRANCH   1   2
ATOM      2  C   UNL     1       2.307   6.058  -4.756  0.00  0.00    -0.004 A 
ATOM      3  C   UNL     1       3.264   5.062  -4.572  0.00  0.00    -0.002 A 
ATOM      4  C   UNL     1       4.035   4.977  -3.419  0.00  0.00    +0.011 A 
ATOM      5  C   UNL     1       3.855   5.906  -2.400  0.00  0.00    +0.058 A 
ATOM      6 CL   UNL     1       4.350   5.577  -0.741  0.00  0.00    -0.082 Cl
ATOM      7  C   UNL     1       3.075   7.010  -2.725  0.00  0.00    +0.011 A 
ATOM      8  C   UNL     1       2.027   6.781  -3.607  0.00  0.00    -0.002 A 
ENDBRANCH   1   2
BRANCH   1   9
ATOM      9  C   UNL     1      -0.078   6.231  -4.460  0.00  0.00    -0.004 A 
ATOM     10  C   UNL     1      -0.839   5.554  -3.574  0.00  0.00    -0.003 A 
ATOM     11  C   UNL     1      -1.736   6.327  -2.845  0.00  0.00    -0.000 A 
ATOM     12  C   UNL     1      -2.175   7.527  -3.368  0.00  0.00    -0.000 A 
ATOM     13  C   UNL     1      -1.629   8.010  -4.550  0.00  0.00    -0.000 A 
ATOM     14  C   UNL     1      -0.546   7.348  -5.116  0.00  0.00    -0.003 A 
ENDBRANCH   1   9
BRANCH   1  18
ATOM     15  N   UNL     1       1.956   6.091  -9.276  0.00  0.00    -0.268 NA
ATOM     16  C   UNL     1       1.466   4.946  -8.513  0.00  0.00    +0.090 C 
ATOM     17  C   UNL     1       0.353   5.495  -7.627  0.00  0.00    +0.090 C 
ATOM     18  N   UNL     1       0.894   6.379  -6.597  0.00  0.00    -0.264 NA
ATOM     19  C   UNL     1       2.309   6.568  -6.886  0.00  0.00    +0.090 C 
ATOM     20  C   UNL     1       2.512   7.009  -8.300  0.00  0.00    +0.090 C 
BRANCH  15  21
ATOM     21  C   UNL     1       0.888   6.775  -9.961  0.00  0.00    +0.105 C 
BRANCH  21  22
ATOM     22  C   UNL     1       0.338   5.996 -11.124  0.00  0.00    +0.160 C 
BRANCH  22  23
ATOM     23  O   UNL     1       1.223   5.922 -12.194  0.00  0.00    -0.341 OA
BRANCH  23  24
ATOM     24  C   UNL     1       0.804   6.645 -13.298  0.00  0.00    +0.257 C 
BRANCH  24  26
ATOM     25  O   UNL     1       0.607   6.001 -15.422  0.00  0.00    -0.243 OA
ATOM     26  C   UNL     1       1.195   5.934 -14.532  0.00  0.00    +0.394 C 
ATOM     27  O   UNL     1       2.424   5.269 -14.550  0.00  0.00    -0.243 OA
ENDBRANCH  24  26
ENDBRANCH  23  24
ENDBRANCH  22  23
ENDBRANCH  21  22
ENDBRANCH  15  21
ENDBRANCH   1  18
TORSDOF 8
ENDMDL
