MODEL 1
REMARK VINA RESULT:     -10.2      0.000      0.000
REMARK  Name = 
REMARK  8 active torsions:
REMARK  status: ('A' for Active; 'I' for Inactive)
REMARK    1  A    between atoms: C_2  and  C_4
REMARK    2  A    between atoms: C_9  and  O_10
REMARK    3  A    between atoms: O_10  and  C_11
REMARK    4  A    between atoms: C_11  and  C_12
REMARK    5  A    between atoms: C_12  and  C_14
REMARK    6  A    between atoms: C_14  and  O_15
REMARK    7  A    between atoms: O_15  and  C_16
REMARK    8  A    between atoms: C_22  and  C_23
REMARK                            x       y       z     vdW  Elec       q    Type
REMARK                         _______ _______ _______ _____ _____    ______ ____
ROOT
ATOM      1  C   UNL     1       2.213   7.159  -8.723  0.00  0.00    +0.239 C 
ATOM      2  O   UNL     1       2.113   8.166  -7.785  0.00  0.00    -0.215 OA
ENDROOT
BRANCH   1   3
ATOM      3  C   UNL     1       3.548   6.497  -8.785  0.00  0.00    +0.242 C 
BRANCH   3   4
ATOM      4  O   UNL     1       4.282   6.814  -9.963  0.00  0.00    -0.472 OA
BRANCH   4   9
ATOM      5  C   UNL     1       6.262   6.014 -14.069  0.00  0.00    +0.228 A 
ATOM      6  O   UNL     1       7.211   5.544 -13.278  0.00  0.00    -0.446 OA
ATOM      7  C   UNL     1       6.936   5.385 -11.993  0.00  0.00    +0.152 A 
ATOM      8  C   UNL     1       5.646   5.536 -11.507  0.00  0.00    +0.107 A 
ATOM      9  C   UNL     1       5.385   5.991 -10.220  0.00  0.00    +0.145 A 
ATOM     10  C   UNL     1       6.368   5.783  -9.261  0.00  0.00    +0.037 A 
ATOM     11  C   UNL     1       7.653   5.513  -9.708  0.00  0.00    +0.006 A 
ATOM     12  C   UNL     1       4.617   5.513 -12.438  0.00  0.00    +0.205 A 
ATOM     13  O   UNL     1       3.462   5.656 -11.994  0.00  0.00    -0.286 OA
ATOM     14  C   UNL     1       7.952   5.421 -11.046  0.00  0.00    +0.038 A 
ATOM     15  C   UNL     1       4.957   5.657 -13.777  0.00  0.00    +0.087 A 
BRANCH   5  17
ATOM     16  O   UNL     1       7.113   6.249 -16.268  0.00  0.00    -0.237 OA
ATOM     17  C   UNL     1       6.595   6.790 -15.269  0.00  0.00    +0.422 C 
ATOM     18  O   UNL     1       6.232   8.121 -15.365  0.00  0.00    -0.237 OA
ENDBRANCH   5  17
ENDBRANCH   4   9
ENDBRANCH   3   4
ENDBRANCH   1   3
BRANCH   1  19
ATOM     19  C   UNL     1       1.048   6.218  -8.739  0.00  0.00    +0.242 C 
BRANCH  19  20
ATOM     20  O   UNL     1       1.106   5.461  -7.533  0.00  0.00    -0.472 OA
BRANCH  20  21
ATOM     21  C   UNL     1       0.058   5.351  -6.650  0.00  0.00    +0.145 A 
ATOM     22  C   UNL     1       0.252   5.741  -5.332  0.00  0.00    +0.107 A 
ATOM     23  C   UNL     1      -0.785   6.228  -4.552  0.00  0.00    +0.152 A 
ATOM     24  O   UNL     1      -0.587   6.314  -3.262  0.00  0.00    -0.446 OA
ATOM     25  C   UNL     1       0.469   5.804  -2.654  0.00  0.00    +0.228 A 
ATOM     26  C   UNL     1       1.611   5.454  -3.360  0.00  0.00    +0.087 A 
ATOM     27  C   UNL     1      -2.040   6.389  -5.124  0.00  0.00    +0.038 A 
ATOM     28  C   UNL     1      -2.303   5.725  -6.307  0.00  0.00    +0.006 A 
ATOM     29  C   UNL     1       1.482   5.481  -4.745  0.00  0.00    +0.205 A 
ATOM     30  O   UNL     1       2.434   5.118  -5.500  0.00  0.00    -0.286 OA
ATOM     31  C   UNL     1      -1.261   5.159  -7.031  0.00  0.00    +0.037 A 
BRANCH  25  32
ATOM     32  C   UNL     1       0.325   5.363  -1.263  0.00  0.00    +0.422 C 
ATOM     33  O   UNL     1       1.502   5.032  -0.587  0.00  0.00    -0.237 OA
ATOM     34  O   UNL     1      -0.563   5.965  -0.588  0.00  0.00    -0.237 OA
ENDBRANCH  25  32
ENDBRANCH  20  21
ENDBRANCH  19  20
ENDBRANCH   1  19
TORSDOF 8
ENDMDL
MODEL 2
REMARK VINA RESULT:      -9.7      1.944     10.732
REMARK  Name = 
REMARK  8 active torsions:
REMARK  status: ('A' for Active; 'I' for Inactive)
REMARK    1  A    between atoms: C_2  and  C_4
REMARK    2  A    between atoms: C_9  and  O_10
REMARK    3  A    between atoms: O_10  and  C_11
REMARK    4  A    between atoms: C_11  and  C_12
REMARK    5  A    between atoms: C_12  and  C_14
REMARK    6  A    between atoms: C_14  and  O_15
REMARK    7  A    between atoms: O_15  and  C_16
REMARK    8  A    between atoms: C_22  and  C_23
REMARK                            x       y       z     vdW  Elec       q    Type
REMARK                         _______ _______ _______ _____ _____    ______ ____
ROOT
ATOM      1  C   UNL     1       2.299   7.364  -6.750  0.00  0.00    +0.239 C 
ATOM      2  O   UNL     1       2.193   8.244  -7.807  0.00  0.00    -0.215 OA
ENDROOT
BRANCH   1   3
ATOM      3  C   UNL     1       1.066   6.573  -6.472  0.00  0.00    +0.242 C 
BRANCH   3   4
ATOM      4  O   UNL     1       0.645   6.640  -5.114  0.00  0.00    -0.472 OA
BRANCH   4   9
ATOM      5  C   UNL     1      -1.323   6.161  -0.952  0.00  0.00    +0.228 A 
ATOM      6  O   UNL     1      -2.296   5.680  -1.706  0.00  0.00    -0.446 OA
ATOM      7  C   UNL     1      -2.039   5.434  -2.981  0.00  0.00    +0.152 A 
ATOM      8  C   UNL     1      -0.749   5.508  -3.485  0.00  0.00    +0.107 A 
ATOM      9  C   UNL     1      -0.484   5.874  -4.799  0.00  0.00    +0.145 A 
ATOM     10  C   UNL     1      -1.483   5.645  -5.737  0.00  0.00    +0.037 A 
ATOM     11  C   UNL     1      -2.773   5.450  -5.265  0.00  0.00    +0.006 A 
ATOM     12  C   UNL     1       0.287   5.503  -2.562  0.00  0.00    +0.205 A 
ATOM     13  O   UNL     1       1.443   5.576  -3.023  0.00  0.00    -0.286 OA
ATOM     14  C   UNL     1      -3.062   5.450  -3.921  0.00  0.00    +0.038 A 
ATOM     15  C   UNL     1      -0.034   5.740  -1.232  0.00  0.00    +0.087 A 
BRANCH   5  17
ATOM     16  O   UNL     1      -1.702   6.549   1.354  0.00  0.00    -0.237 OA
ATOM     17  C   UNL     1      -1.616   7.020   0.201  0.00  0.00    +0.422 C 
ATOM     18  O   UNL     1      -1.685   8.393   0.052  0.00  0.00    -0.237 OA
ENDBRANCH   5  17
ENDBRANCH   4   9
ENDBRANCH   3   4
ENDBRANCH   1   3
BRANCH   1  19
ATOM     19  C   UNL     1       3.567   6.567  -6.740  0.00  0.00    +0.242 C 
BRANCH  19  20
ATOM     20  O   UNL     1       3.457   5.594  -7.776  0.00  0.00    -0.472 OA
BRANCH  20  21
ATOM     21  C   UNL     1       4.390   5.432  -8.773  0.00  0.00    +0.145 A 
ATOM     22  C   UNL     1       4.066   5.833 -10.062  0.00  0.00    +0.107 A 
ATOM     23  C   UNL     1       5.030   6.266 -10.957  0.00  0.00    +0.152 A 
ATOM     24  O   UNL     1       4.691   6.365 -12.217  0.00  0.00    -0.446 OA
ATOM     25  C   UNL     1       3.547   5.911 -12.697  0.00  0.00    +0.228 A 
ATOM     26  C   UNL     1       2.477   5.620 -11.864  0.00  0.00    +0.087 A 
ATOM     27  C   UNL     1       6.350   6.361 -10.533  0.00  0.00    +0.038 A 
ATOM     28  C   UNL     1       6.712   5.682  -9.386  0.00  0.00    +0.006 A 
ATOM     29  C   UNL     1       2.765   5.638 -10.503  0.00  0.00    +0.205 A 
ATOM     30  O   UNL     1       1.889   5.324  -9.642  0.00  0.00    -0.286 OA
ATOM     31  C   UNL     1       5.732   5.171  -8.544  0.00  0.00    +0.037 A 
BRANCH  25  32
ATOM     32  C   UNL     1       3.507   5.466 -14.094  0.00  0.00    +0.422 C 
ATOM     33  O   UNL     1       2.800   4.291 -14.356  0.00  0.00    -0.237 OA
ATOM     34  O   UNL     1       3.412   6.387 -14.959  0.00  0.00    -0.237 OA
ENDBRANCH  25  32
ENDBRANCH  20  21
ENDBRANCH  19  20
ENDBRANCH   1  19
TORSDOF 8
ENDMDL
MODEL 3
REMARK VINA RESULT:      -9.1      1.529      2.383
REMARK  Name = 
REMARK  8 active torsions:
REMARK  status: ('A' for Active; 'I' for Inactive)
REMARK    1  A    between atoms: C_2  and  C_4
REMARK    2  A    between atoms: C_9  and  O_10
REMARK    3  A    between atoms: O_10  and  C_11
REMARK    4  A    between atoms: C_11  and  C_12
REMARK    5  A    between atoms: C_12  and  C_14
REMARK    6  A    between atoms: C_14  and  O_15
REMARK    7  A    between atoms: O_15  and  C_16
REMARK    8  A    between atoms: C_22  and  C_23
REMARK                            x       y       z     vdW  Elec       q    Type
REMARK                         _______ _______ _______ _____ _____    ______ ____
ROOT
ATOM      1  C   UNL     1       2.200   5.578  -9.993  0.00  0.00    +0.239 C 
ATOM      2  O   UNL     1       1.358   6.427 -10.680  0.00  0.00    -0.215 OA
ENDROOT
BRANCH   1   3
ATOM      3  C   UNL     1       3.564   6.124  -9.740  0.00  0.00    +0.242 C 
BRANCH   3   4
ATOM      4  O   UNL     1       4.195   6.635 -10.909  0.00  0.00    -0.472 OA
BRANCH   4   9
ATOM      5  C   UNL     1       6.462   6.846 -14.939  0.00  0.00    +0.228 A 
ATOM      6  O   UNL     1       7.453   6.460 -14.155  0.00  0.00    -0.446 OA
ATOM      7  C   UNL     1       7.163   6.064 -12.926  0.00  0.00    +0.152 A 
ATOM      8  C   UNL     1       5.851   5.888 -12.514  0.00  0.00    +0.107 A 
ATOM      9  C   UNL     1       5.451   6.089 -11.198  0.00  0.00    +0.145 A 
ATOM     10  C   UNL     1       6.416   5.938 -10.210  0.00  0.00    +0.037 A 
ATOM     11  C   UNL     1       7.747   5.992 -10.600  0.00  0.00    +0.006 A 
ATOM     12  C   UNL     1       4.887   5.802 -13.509  0.00  0.00    +0.205 A 
ATOM     13  O   UNL     1       3.710   5.650 -13.130  0.00  0.00    -0.286 OA
ATOM     14  C   UNL     1       8.112   6.157 -11.914  0.00  0.00    +0.038 A 
ATOM     15  C   UNL     1       5.245   6.203 -14.789  0.00  0.00    +0.087 A 
BRANCH   5  17
ATOM     16  O   UNL     1       7.633   7.737 -16.796  0.00  0.00    -0.237 OA
ATOM     17  C   UNL     1       6.680   7.840 -15.996  0.00  0.00    +0.422 C 
ATOM     18  O   UNL     1       5.761   8.852 -16.207  0.00  0.00    -0.237 OA
ENDBRANCH   5  17
ENDBRANCH   4   9
ENDBRANCH   3   4
ENDBRANCH   1   3
BRANCH   1  19
ATOM     19  C   UNL     1       1.567   4.908  -8.813  0.00  0.00    +0.242 C 
BRANCH  19  20
ATOM     20  O   UNL     1       0.802   5.900  -8.131  0.00  0.00    -0.472 OA
BRANCH  20  21
ATOM     21  C   UNL     1       1.100   6.360  -6.870  0.00  0.00    +0.145 A 
ATOM     22  C   UNL     1       0.395   5.849  -5.789  0.00  0.00    +0.107 A 
ATOM     23  C   UNL     1       0.954   5.764  -4.524  0.00  0.00    +0.152 A 
ATOM     24  O   UNL     1       0.152   5.532  -3.518  0.00  0.00    -0.446 OA
ATOM     25  C   UNL     1      -1.165   5.550  -3.621  0.00  0.00    +0.228 A 
ATOM     26  C   UNL     1      -1.795   5.464  -4.854  0.00  0.00    +0.087 A 
ATOM     27  C   UNL     1       2.279   6.142  -4.347  0.00  0.00    +0.038 A 
ATOM     28  C   UNL     1       2.866   6.924  -5.323  0.00  0.00    +0.006 A 
ATOM     29  C   UNL     1      -0.955   5.571  -5.957  0.00  0.00    +0.205 A 
ATOM     30  O   UNL     1      -1.417   5.574  -7.138  0.00  0.00    -0.286 OA
ATOM     31  C   UNL     1       2.244   7.077  -6.556  0.00  0.00    +0.037 A 
BRANCH  25  32
ATOM     32  C   UNL     1      -1.950   5.930  -2.442  0.00  0.00    +0.422 C 
ATOM     33  O   UNL     1      -2.507   7.210  -2.448  0.00  0.00    -0.237 OA
ATOM     34  O   UNL     1      -2.658   5.008  -1.937  0.00  0.00    -0.237 OA
ENDBRANCH  25  32
ENDBRANCH  20  21
ENDBRANCH  19  20
ENDBRANCH   1  19
TORSDOF 8
ENDMDL
MODEL 4
REMARK VINA RESULT:      -9.1      1.937     10.699
REMARK  Name = 
REMARK  8 active torsions:
REMARK  status: ('A' for Active; 'I' for Inactive)
REMARK    1  A    between atoms: C_2  and  C_4
REMARK    2  A    between atoms: C_9  and  O_10
REMARK    3  A    between atoms: O_10  and  C_11
REMARK    4  A    between atoms: C_11  and  C_12
REMARK    5  A    between atoms: C_12  and  C_14
REMARK    6  A    between atoms: C_14  and  O_15
REMARK    7  A    between atoms: O_15  and  C_16
REMARK    8  A    between atoms: C_22  and  C_23
REMARK                            x       y       z     vdW  Elec       q    Type
REMARK                         _______ _______ _______ _____ _____    ______ ____
ROOT
ATOM      1  C   UNL     1       3.208   5.048  -5.167  0.00  0.00    +0.239 C 
ATOM      2  O   UNL     1       4.543   5.235  -4.873  0.00  0.00    -0.215 OA
ENDROOT
BRANCH   1   3
ATOM      3  C   UNL     1       2.281   5.990  -4.478  0.00  0.00    +0.242 C 
BRANCH   3   4
ATOM      4  O   UNL     1       1.278   5.335  -3.708  0.00  0.00    -0.472 OA
BRANCH   4   9
ATOM      5  C   UNL     1      -1.455   7.407  -0.601  0.00  0.00    +0.228 A 
ATOM      6  O   UNL     1      -2.122   7.703  -1.703  0.00  0.00    -0.446 OA
ATOM      7  C   UNL     1      -1.778   7.094  -2.827  0.00  0.00    +0.152 A 
ATOM      8  C   UNL     1      -0.867   6.048  -2.832  0.00  0.00    +0.107 A 
ATOM      9  C   UNL     1      -0.028   5.797  -3.911  0.00  0.00    +0.145 A 
ATOM     10  C   UNL     1      -0.454   6.229  -5.161  0.00  0.00    +0.037 A 
ATOM     11  C   UNL     1      -1.450   7.195  -5.201  0.00  0.00    +0.006 A 
ATOM     12  C   UNL     1      -0.600   5.443  -1.612  0.00  0.00    +0.205 A 
ATOM     13  O   UNL     1       0.224   4.508  -1.624  0.00  0.00    -0.286 OA
ATOM     14  C   UNL     1      -2.025   7.692  -4.056  0.00  0.00    +0.038 A 
ATOM     15  C   UNL     1      -1.003   6.107  -0.461  0.00  0.00    +0.087 A 
BRANCH   5  17
ATOM     16  O   UNL     1      -0.279   9.107   0.558  0.00  0.00    -0.237 OA
ATOM     17  C   UNL     1      -1.301   8.394   0.475  0.00  0.00    +0.422 C 
ATOM     18  O   UNL     1      -2.340   8.641   1.353  0.00  0.00    -0.237 OA
ENDBRANCH   5  17
ENDBRANCH   4   9
ENDBRANCH   3   4
ENDBRANCH   1   3
BRANCH   1  19
ATOM     19  C   UNL     1       2.923   4.844  -6.623  0.00  0.00    +0.242 C 
BRANCH  19  20
ATOM     20  O   UNL     1       3.543   5.920  -7.324  0.00  0.00    -0.472 OA
BRANCH  20  21
ATOM     21  C   UNL     1       3.221   6.278  -8.612  0.00  0.00    +0.145 A 
ATOM     22  C   UNL     1       3.977   5.764  -9.657  0.00  0.00    +0.107 A 
ATOM     23  C   UNL     1       3.439   5.558 -10.917  0.00  0.00    +0.152 A 
ATOM     24  O   UNL     1       4.268   5.333 -11.903  0.00  0.00    -0.446 OA
ATOM     25  C   UNL     1       5.578   5.466 -11.794  0.00  0.00    +0.228 A 
ATOM     26  C   UNL     1       6.200   5.506 -10.555  0.00  0.00    +0.087 A 
ATOM     27  C   UNL     1       2.089   5.814 -11.123  0.00  0.00    +0.038 A 
ATOM     28  C   UNL     1       1.431   6.602 -10.199  0.00  0.00    +0.006 A 
ATOM     29  C   UNL     1       5.343   5.608  -9.465  0.00  0.00    +0.205 A 
ATOM     30  O   UNL     1       5.791   5.720  -8.285  0.00  0.00    -0.286 OA
ATOM     31  C   UNL     1       2.025   6.878  -8.974  0.00  0.00    +0.037 A 
BRANCH  25  32
ATOM     32  C   UNL     1       6.340   5.838 -12.990  0.00  0.00    +0.422 C 
ATOM     33  O   UNL     1       7.252   4.895 -13.469  0.00  0.00    -0.237 OA
ATOM     34  O   UNL     1       5.701   6.499 -13.862  0.00  0.00    -0.237 OA
ENDBRANCH  25  32
ENDBRANCH  20  21
ENDBRANCH  19  20
ENDBRANCH   1  19
TORSDOF 8
ENDMDL
MODEL 5
REMARK VINA RESULT:      -9.0      3.967      8.792
REMARK  Name = 
REMARK  8 active torsions:
REMARK  status: ('A' for Active; 'I' for Inactive)
REMARK    1  A    between atoms: C_2  and  C_4
REMARK    2  A    between atoms: C_9  and  O_10
REMARK    3  A    between atoms: O_10  and  C_11
REMARK    4  A    between atoms: C_11  and  C_12
REMARK    5  A    between atoms: C_12  and  C_14
REMARK    6  A    between atoms: C_14  and  O_15
REMARK    7  A    between atoms: O_15  and  C_16
REMARK    8  A    between atoms: C_22  and  C_23
REMARK                            x       y       z     vdW  Elec       q    Type
REMARK                         _______ _______ _______ _____ _____    ______ ____
ROOT
ATOM      1  C   UNL     1      -1.846   6.670  -1.125  0.00  0.00    +0.239 C 
ATOM      2  O   UNL     1      -1.815   5.295  -1.243  0.00  0.00    -0.215 OA
ENDROOT
BRANCH   1   3
ATOM      3  C   UNL     1      -0.811   7.239  -0.215  0.00  0.00    +0.242 C 
BRANCH   3   4
ATOM      4  O   UNL     1       0.430   6.543  -0.263  0.00  0.00    -0.472 OA
BRANCH   4   9
ATOM      5  C   UNL     1       4.497   6.617  -2.472  0.00  0.00    +0.228 A 
ATOM      6  O   UNL     1       4.635   7.704  -1.732  0.00  0.00    -0.446 OA
ATOM      7  C   UNL     1       3.753   7.923  -0.769  0.00  0.00    +0.152 A 
ATOM      8  C   UNL     1       2.812   6.967  -0.420  0.00  0.00    +0.107 A 
ATOM      9  C   UNL     1       1.556   7.304   0.072  0.00  0.00    +0.145 A 
ATOM     10  C   UNL     1       1.433   8.531   0.712  0.00  0.00    +0.037 A 
ATOM     11  C   UNL     1       2.420   9.478   0.479  0.00  0.00    +0.006 A 
ATOM     12  C   UNL     1       3.040   5.671  -0.860  0.00  0.00    +0.205 A 
ATOM     13  O   UNL     1       2.186   4.819  -0.547  0.00  0.00    -0.286 OA
ATOM     14  C   UNL     1       3.501   9.216  -0.327  0.00  0.00    +0.038 A 
ATOM     15  C   UNL     1       3.993   5.486  -1.853  0.00  0.00    +0.087 A 
BRANCH   5  17
ATOM     16  O   UNL     1       5.280   7.637  -4.462  0.00  0.00    -0.237 OA
ATOM     17  C   UNL     1       4.962   6.588  -3.863  0.00  0.00    +0.422 C 
ATOM     18  O   UNL     1       5.175   5.383  -4.506  0.00  0.00    -0.237 OA
ENDBRANCH   5  17
ENDBRANCH   4   9
ENDBRANCH   3   4
ENDBRANCH   1   3
BRANCH   1  19
ATOM     19  C   UNL     1      -2.002   7.394  -2.426  0.00  0.00    +0.242 C 
BRANCH  19  20
ATOM     20  O   UNL     1      -0.983   6.911  -3.297  0.00  0.00    -0.472 OA
BRANCH  20  21
ATOM     21  C   UNL     1      -1.159   6.721  -4.647  0.00  0.00    +0.145 A 
ATOM     22  C   UNL     1      -0.156   6.091  -5.370  0.00  0.00    +0.107 A 
ATOM     23  C   UNL     1      -0.430   5.345  -6.505  0.00  0.00    +0.152 A 
ATOM     24  O   UNL     1       0.575   5.015  -7.274  0.00  0.00    -0.446 OA
ATOM     25  C   UNL     1       1.795   5.500  -7.121  0.00  0.00    +0.228 A 
ATOM     26  C   UNL     1       2.188   6.110  -5.939  0.00  0.00    +0.087 A 
ATOM     27  C   UNL     1      -1.752   5.170  -6.894  0.00  0.00    +0.038 A 
ATOM     28  C   UNL     1      -2.699   6.032  -6.375  0.00  0.00    +0.006 A 
ATOM     29  C   UNL     1       1.163   6.357  -5.031  0.00  0.00    +0.205 A 
ATOM     30  O   UNL     1       1.383   6.968  -3.943  0.00  0.00    -0.286 OA
ATOM     31  C   UNL     1      -2.380   6.844  -5.295  0.00  0.00    +0.037 A 
BRANCH  25  32
ATOM     32  C   UNL     1       2.647   5.625  -8.308  0.00  0.00    +0.422 C 
ATOM     33  O   UNL     1       3.425   6.781  -8.400  0.00  0.00    -0.237 OA
ATOM     34  O   UNL     1       3.183   4.550  -8.712  0.00  0.00    -0.237 OA
ENDBRANCH  25  32
ENDBRANCH  20  21
ENDBRANCH  19  20
ENDBRANCH   1  19
TORSDOF 8
ENDMDL
MODEL 6
REMARK VINA RESULT:      -8.9      2.134     10.109
REMARK  Name = 
REMARK  8 active torsions:
REMARK  status: ('A' for Active; 'I' for Inactive)
REMARK    1  A    between atoms: C_2  and  C_4
REMARK    2  A    between atoms: C_9  and  O_10
REMARK    3  A    between atoms: O_10  and  C_11
REMARK    4  A    between atoms: C_11  and  C_12
REMARK    5  A    between atoms: C_12  and  C_14
REMARK    6  A    between atoms: C_14  and  O_15
REMARK    7  A    between atoms: O_15  and  C_16
REMARK    8  A    between atoms: C_22  and  C_23
REMARK                            x       y       z     vdW  Elec       q    Type
REMARK                         _______ _______ _______ _____ _____    ______ ____
ROOT
ATOM      1  C   UNL     1       2.625   3.875  -8.483  0.00  0.00    +0.239 C 
ATOM      2  O   UNL     1       3.969   3.847  -8.794  0.00  0.00    -0.215 OA
ENDROOT
BRANCH   1   3
ATOM      3  C   UNL     1       2.324   4.117  -7.043  0.00  0.00    +0.242 C 
BRANCH   3   4
ATOM      4  O   UNL     1       2.238   5.498  -6.707  0.00  0.00    -0.472 OA
BRANCH   4   9
ATOM      5  C   UNL     1      -0.904   5.990  -3.345  0.00  0.00    +0.228 A 
ATOM      6  O   UNL     1       0.187   5.886  -2.605  0.00  0.00    -0.446 OA
ATOM      7  C   UNL     1       1.363   5.951  -3.209  0.00  0.00    +0.152 A 
ATOM      8  C   UNL     1       1.469   6.291  -4.549  0.00  0.00    +0.107 A 
ATOM      9  C   UNL     1       2.484   5.802  -5.363  0.00  0.00    +0.145 A 
ATOM     10  C   UNL     1       3.669   5.426  -4.743  0.00  0.00    +0.037 A 
ATOM     11  C   UNL     1       3.631   5.187  -3.377  0.00  0.00    +0.006 A 
ATOM     12  C   UNL     1       0.362   6.889  -5.135  0.00  0.00    +0.205 A 
ATOM     13  O   UNL     1       0.463   7.187  -6.341  0.00  0.00    -0.286 OA
ATOM     14  C   UNL     1       2.478   5.344  -2.645  0.00  0.00    +0.038 A 
ATOM     15  C   UNL     1      -0.845   6.819  -4.452  0.00  0.00    +0.087 A 
BRANCH   5  17
ATOM     16  O   UNL     1      -2.342   4.970  -1.762  0.00  0.00    -0.237 OA
ATOM     17  C   UNL     1      -2.154   5.336  -2.941  0.00  0.00    +0.422 C 
ATOM     18  O   UNL     1      -3.203   5.218  -3.833  0.00  0.00    -0.237 OA
ENDBRANCH   5  17
ENDBRANCH   4   9
ENDBRANCH   3   4
ENDBRANCH   1   3
BRANCH   1  19
ATOM     19  C   UNL     1       1.790   4.671  -9.438  0.00  0.00    +0.242 C 
BRANCH  19  20
ATOM     20  O   UNL     1       2.688   5.417 -10.255  0.00  0.00    -0.472 OA
BRANCH  20  21
ATOM     21  C   UNL     1       2.307   6.088 -11.393  0.00  0.00    +0.145 A 
ATOM     22  C   UNL     1       3.042   5.902 -12.556  0.00  0.00    +0.107 A 
ATOM     23  C   UNL     1       2.467   6.013 -13.811  0.00  0.00    +0.152 A 
ATOM     24  O   UNL     1       3.267   6.094 -14.843  0.00  0.00    -0.446 OA
ATOM     25  C   UNL     1       4.575   6.252 -14.736  0.00  0.00    +0.228 A 
ATOM     26  C   UNL     1       5.240   5.992 -13.547  0.00  0.00    +0.087 A 
ATOM     27  C   UNL     1       1.102   6.253 -13.908  0.00  0.00    +0.038 A 
ATOM     28  C   UNL     1       0.449   6.738 -12.792  0.00  0.00    +0.006 A 
ATOM     29  C   UNL     1       4.419   5.764 -12.447  0.00  0.00    +0.205 A 
ATOM     30  O   UNL     1       4.906   5.580 -11.291  0.00  0.00    -0.286 OA
ATOM     31  C   UNL     1       1.077   6.707 -11.553  0.00  0.00    +0.037 A 
BRANCH  25  32
ATOM     32  C   UNL     1       5.279   6.961 -15.809  0.00  0.00    +0.422 C 
ATOM     33  O   UNL     1       4.589   7.119 -17.012  0.00  0.00    -0.237 OA
ATOM     34  O   UNL     1       5.998   7.937 -15.439  0.00  0.00    -0.237 OA
ENDBRANCH  25  32
ENDBRANCH  20  21
ENDBRANCH  19  20
ENDBRANCH   1  19
TORSDOF 8
ENDMDL
MODEL 7
REMARK VINA RESULT:      -8.7      1.803     10.612
REMARK  Name = 
REMARK  8 active torsions:
REMARK  status: ('A' for Active; 'I' for Inactive)
REMARK    1  A    between atoms: C_2  and  C_4
REMARK    2  A    between atoms: C_9  and  O_10
REMARK    3  A    between atoms: O_10  and  C_11
REMARK    4  A    between atoms: C_11  and  C_12
REMARK    5  A    between atoms: C_12  and  C_14
REMARK    6  A    between atoms: C_14  and  O_15
REMARK    7  A    between atoms: O_15  and  C_16
REMARK    8  A    between atoms: C_22  and  C_23
REMARK                            x       y       z     vdW  Elec       q    Type
REMARK                         _______ _______ _______ _____ _____    ______ ____
ROOT
ATOM      1  C   UNL     1       1.919   6.843  -7.936  0.00  0.00    +0.239 C 
ATOM      2  O   UNL     1       1.958   8.181  -7.600  0.00  0.00    -0.215 OA
ENDROOT
BRANCH   1   3
ATOM      3  C   UNL     1       1.807   5.913  -6.776  0.00  0.00    +0.242 C 
BRANCH   3   4
ATOM      4  O   UNL     1       1.105   6.470  -5.670  0.00  0.00    -0.472 OA
BRANCH   4   9
ATOM      5  C   UNL     1      -0.918   6.396  -1.508  0.00  0.00    +0.228 A 
ATOM      6  O   UNL     1      -1.920   5.944  -2.242  0.00  0.00    -0.446 OA
ATOM      7  C   UNL     1      -1.675   5.603  -3.497  0.00  0.00    +0.152 A 
ATOM      8  C   UNL     1      -0.381   5.548  -3.991  0.00  0.00    +0.107 A 
ATOM      9  C   UNL     1      -0.081   5.813  -5.322  0.00  0.00    +0.145 A 
ATOM     10  C   UNL     1      -1.089   5.603  -6.255  0.00  0.00    +0.037 A 
ATOM     11  C   UNL     1      -2.393   5.536  -5.785  0.00  0.00    +0.006 A 
ATOM     12  C   UNL     1       0.647   5.521  -3.058  0.00  0.00    +0.205 A 
ATOM     13  O   UNL     1       1.807   5.479  -3.511  0.00  0.00    -0.286 OA
ATOM     14  C   UNL     1      -2.689   5.638  -4.448  0.00  0.00    +0.038 A 
ATOM     15  C   UNL     1       0.336   5.862  -1.748  0.00  0.00    +0.087 A 
BRANCH   5  17
ATOM     16  O   UNL     1      -2.293   7.509   0.068  0.00  0.00    -0.237 OA
ATOM     17  C   UNL     1      -1.152   7.343  -0.413  0.00  0.00    +0.422 C 
ATOM     18  O   UNL     1      -0.091   7.986   0.196  0.00  0.00    -0.237 OA
ENDBRANCH   5  17
ENDBRANCH   4   9
ENDBRANCH   3   4
ENDBRANCH   1   3
BRANCH   1  19
ATOM     19  C   UNL     1       1.011   6.524  -9.083  0.00  0.00    +0.242 C 
BRANCH  19  20
ATOM     20  O   UNL     1       1.776   5.778 -10.026  0.00  0.00    -0.472 OA
BRANCH  20  21
ATOM     21  C   UNL     1       2.029   6.201 -11.310  0.00  0.00    +0.145 A 
ATOM     22  C   UNL     1       3.116   5.666 -11.988  0.00  0.00    +0.107 A 
ATOM     23  C   UNL     1       3.129   5.542 -13.367  0.00  0.00    +0.152 A 
ATOM     24  O   UNL     1       4.275   5.288 -13.945  0.00  0.00    -0.446 OA
ATOM     25  C   UNL     1       5.431   5.319 -13.306  0.00  0.00    +0.228 A 
ATOM     26  C   UNL     1       5.495   5.272 -11.921  0.00  0.00    +0.087 A 
ATOM     27  C   UNL     1       1.998   5.905 -14.087  0.00  0.00    +0.038 A 
ATOM     28  C   UNL     1       1.064   6.709 -13.464  0.00  0.00    +0.006 A 
ATOM     29  C   UNL     1       4.273   5.403 -11.268  0.00  0.00    +0.205 A 
ATOM     30  O   UNL     1       4.206   5.442 -10.003  0.00  0.00    -0.286 OA
ATOM     31  C   UNL     1       1.120   6.900 -12.089  0.00  0.00    +0.037 A 
BRANCH  25  32
ATOM     32  C   UNL     1       6.635   5.672 -14.065  0.00  0.00    +0.422 C 
ATOM     33  O   UNL     1       6.835   7.030 -14.325  0.00  0.00    -0.237 OA
ATOM     34  O   UNL     1       7.669   4.991 -13.798  0.00  0.00    -0.237 OA
ENDBRANCH  25  32
ENDBRANCH  20  21
ENDBRANCH  19  20
ENDBRANCH   1  19
TORSDOF 8
ENDMDL
MODEL 8
REMARK VINA RESULT:      -8.7      2.081      4.033
REMARK  Name = 
REMARK  8 active torsions:
REMARK  status: ('A' for Active; 'I' for Inactive)
REMARK    1  A    between atoms: C_2  and  C_4
REMARK    2  A    between atoms: C_9  and  O_10
REMARK    3  A    between atoms: O_10  and  C_11
REMARK    4  A    between atoms: C_11  and  C_12
REMARK    5  A    between atoms: C_12  and  C_14
REMARK    6  A    between atoms: C_14  and  O_15
REMARK    7  A    between atoms: O_15  and  C_16
REMARK    8  A    between atoms: C_22  and  C_23
REMARK                            x       y       z     vdW  Elec       q    Type
REMARK                         _______ _______ _______ _____ _____    ______ ____
ROOT
ATOM      1  C   UNL     1       0.950   5.220  -6.237  0.00  0.00    +0.239 C 
ATOM      2  O   UNL     1       1.108   3.901  -5.865  0.00  0.00    -0.215 OA
ENDROOT
BRANCH   1   3
ATOM      3  C   UNL     1       0.579   5.424  -7.667  0.00  0.00    +0.242 C 
BRANCH   3   4
ATOM      4  O   UNL     1       1.639   5.139  -8.573  0.00  0.00    -0.472 OA
BRANCH   4   9
ATOM      5  C   UNL     1       4.842   5.961 -11.811  0.00  0.00    +0.228 A 
ATOM      6  O   UNL     1       3.772   5.882 -12.583  0.00  0.00    -0.446 OA
ATOM      7  C   UNL     1       2.581   5.870 -12.006  0.00  0.00    +0.152 A 
ATOM      8  C   UNL     1       2.434   6.108 -10.648  0.00  0.00    +0.107 A 
ATOM      9  C   UNL     1       1.415   5.534  -9.897  0.00  0.00    +0.145 A 
ATOM     10  C   UNL     1       0.257   5.170 -10.572  0.00  0.00    +0.037 A 
ATOM     11  C   UNL     1       0.334   5.033 -11.951  0.00  0.00    +0.006 A 
ATOM     12  C   UNL     1       3.510   6.693  -9.993  0.00  0.00    +0.205 A 
ATOM     13  O   UNL     1       3.372   6.898  -8.772  0.00  0.00    -0.286 OA
ATOM     14  C   UNL     1       1.497   5.275 -12.641  0.00  0.00    +0.038 A 
ATOM     15  C   UNL     1       4.733   6.706 -10.649  0.00  0.00    +0.087 A 
BRANCH   5  17
ATOM     16  O   UNL     1       6.289   4.953 -13.393  0.00  0.00    -0.237 OA
ATOM     17  C   UNL     1       6.120   5.373 -12.230  0.00  0.00    +0.422 C 
ATOM     18  O   UNL     1       7.208   5.382 -11.377  0.00  0.00    -0.237 OA
ENDBRANCH   5  17
ENDBRANCH   4   9
ENDBRANCH   3   4
ENDBRANCH   1   3
BRANCH   1  19
ATOM     19  C   UNL     1       0.164   6.043  -5.264  0.00  0.00    +0.242 C 
BRANCH  19  20
ATOM     20  O   UNL     1      -0.026   5.244  -4.099  0.00  0.00    -0.472 OA
BRANCH  20  21
ATOM     21  C   UNL     1      -1.020   5.464  -3.176  0.00  0.00    +0.145 A 
ATOM     22  C   UNL     1      -0.748   6.268  -2.078  0.00  0.00    +0.107 A 
ATOM     23  C   UNL     1      -1.734   7.013  -1.454  0.00  0.00    +0.152 A 
ATOM     24  O   UNL     1      -1.461   7.522  -0.280  0.00  0.00    -0.446 OA
ATOM     25  C   UNL     1      -0.374   7.220   0.407  0.00  0.00    +0.228 A 
ATOM     26  C   UNL     1       0.723   6.625  -0.200  0.00  0.00    +0.087 A 
ATOM     27  C   UNL     1      -3.020   7.004  -1.979  0.00  0.00    +0.038 A 
ATOM     28  C   UNL     1      -3.355   5.989  -2.854  0.00  0.00    +0.006 A 
ATOM     29  C   UNL     1       0.514   6.189  -1.504  0.00  0.00    +0.205 A 
ATOM     30  O   UNL     1       1.417   5.570  -2.143  0.00  0.00    -0.286 OA
ATOM     31  C   UNL     1      -2.361   5.187  -3.400  0.00  0.00    +0.037 A 
BRANCH  25  32
ATOM     32  C   UNL     1      -0.438   7.275   1.871  0.00  0.00    +0.422 C 
ATOM     33  O   UNL     1      -1.632   6.853   2.460  0.00  0.00    -0.237 OA
ATOM     34  O   UNL     1       0.630   6.966   2.477  0.00  0.00    -0.237 OA
ENDBRANCH  25  32
ENDBRANCH  20  21
ENDBRANCH  19  20
ENDBRANCH   1  19
TORSDOF 8
ENDMDL
MODEL 9
REMARK VINA RESULT:      -8.7      2.580      9.516
REMARK  Name = 
REMARK  8 active torsions:
REMARK  status: ('A' for Active; 'I' for Inactive)
REMARK    1  A    between atoms: C_2  and  C_4
REMARK    2  A    between atoms: C_9  and  O_10
REMARK    3  A    between atoms: O_10  and  C_11
REMARK    4  A    between atoms: C_11  and  C_12
REMARK    5  A    between atoms: C_12  and  C_14
REMARK    6  A    between atoms: C_14  and  O_15
REMARK    7  A    between atoms: O_15  and  C_16
REMARK    8  A    between atoms: C_22  and  C_23
REMARK                            x       y       z     vdW  Elec       q    Type
REMARK                         _______ _______ _______ _____ _____    ______ ____
ROOT
ATOM      1  C   UNL     1       4.730   5.056  -8.204  0.00  0.00    +0.239 C 
ATOM      2  O   UNL     1       5.335   5.973  -9.038  0.00  0.00    -0.215 OA
ENDROOT
BRANCH   1   3
ATOM      3  C   UNL     1       4.693   5.451  -6.767  0.00  0.00    +0.242 C 
BRANCH   3   4
ATOM      4  O   UNL     1       3.381   5.452  -6.214  0.00  0.00    -0.472 OA
BRANCH   4   9
ATOM      5  C   UNL     1      -0.457   6.012  -3.687  0.00  0.00    +0.228 A 
ATOM      6  O   UNL     1       0.426   5.887  -2.712  0.00  0.00    -0.446 OA
ATOM      7  C   UNL     1       1.713   5.928  -3.021  0.00  0.00    +0.152 A 
ATOM      8  C   UNL     1       2.139   6.264  -4.296  0.00  0.00    +0.107 A 
ATOM      9  C   UNL     1       3.308   5.754  -4.849  0.00  0.00    +0.145 A 
ATOM     10  C   UNL     1       4.305   5.354  -3.968  0.00  0.00    +0.037 A 
ATOM     11  C   UNL     1       3.940   5.118  -2.650  0.00  0.00    +0.006 A 
ATOM     12  C   UNL     1       1.214   6.883  -5.125  0.00  0.00    +0.205 A 
ATOM     13  O   UNL     1       1.603   7.177  -6.272  0.00  0.00    -0.286 OA
ATOM     14  C   UNL     1       2.651   5.300  -2.210  0.00  0.00    +0.038 A 
ATOM     15  C   UNL     1      -0.121   6.838  -4.746  0.00  0.00    +0.087 A 
BRANCH   5  17
ATOM     16  O   UNL     1      -2.175   4.864  -2.528  0.00  0.00    -0.237 OA
ATOM     17  C   UNL     1      -1.779   5.384  -3.592  0.00  0.00    +0.422 C 
ATOM     18  O   UNL     1      -2.668   5.460  -4.648  0.00  0.00    -0.237 OA
ENDBRANCH   5  17
ENDBRANCH   4   9
ENDBRANCH   3   4
ENDBRANCH   1   3
BRANCH   1  19
ATOM     19  C   UNL     1       3.443   4.501  -8.732  0.00  0.00    +0.242 C 
BRANCH  19  20
ATOM     20  O   UNL     1       3.316   4.952 -10.078  0.00  0.00    -0.472 OA
BRANCH  20  21
ATOM     21  C   UNL     1       2.315   5.790 -10.511  0.00  0.00    +0.145 A 
ATOM     22  C   UNL     1       1.994   5.806 -11.861  0.00  0.00    +0.107 A 
ATOM     23  C   UNL     1       0.717   6.106 -12.307  0.00  0.00    +0.152 A 
ATOM     24  O   UNL     1       0.562   6.365 -13.580  0.00  0.00    -0.446 OA
ATOM     25  C   UNL     1       1.572   6.527 -14.415  0.00  0.00    +0.228 A 
ATOM     26  C   UNL     1       2.850   6.092 -14.098  0.00  0.00    +0.087 A 
ATOM     27  C   UNL     1      -0.286   6.334 -11.374  0.00  0.00    +0.038 A 
ATOM     28  C   UNL     1       0.090   6.623 -10.076  0.00  0.00    +0.006 A 
ATOM     29  C   UNL     1       3.025   5.676 -12.782  0.00  0.00    +0.205 A 
ATOM     30  O   UNL     1       4.162   5.318 -12.351  0.00  0.00    -0.286 OA
ATOM     31  C   UNL     1       1.401   6.405  -9.669  0.00  0.00    +0.037 A 
BRANCH  25  32
ATOM     32  C   UNL     1       1.384   7.411 -15.570  0.00  0.00    +0.422 C 
ATOM     33  O   UNL     1       0.732   6.864 -16.677  0.00  0.00    -0.237 OA
ATOM     34  O   UNL     1       1.114   8.618 -15.296  0.00  0.00    -0.237 OA
ENDBRANCH  25  32
ENDBRANCH  20  21
ENDBRANCH  19  20
ENDBRANCH   1  19
TORSDOF 8
ENDMDL
