MODEL 1
REMARK VINA RESULT:      -8.4      0.000      0.000
REMARK  Name = 
REMARK  2 active torsions:
REMARK  status: ('A' for Active; 'I' for Inactive)
REMARK    1  A    between atoms: C_6  and  N_7
REMARK    2  A    between atoms: C_20  and  C_21
REMARK                            x       y       z     vdW  Elec       q    Type
REMARK                         _______ _______ _______ _____ _____    ______ ____
ROOT
ATOM      1  C   UNL     1       1.600   6.955 -10.328  0.00  0.00    +0.028 C 
ATOM      2  C   UNL     1       1.799   5.714 -11.428  0.00  0.00    +0.129 C 
ATOM      3  N   UNL     1       3.177   5.190 -10.825  0.00  0.00    -0.321 N 
ATOM      4  C   UNL     1       3.395   5.316  -9.547  0.00  0.00    +0.099 A 
ATOM      5  C   UNL     1       4.690   5.245  -9.040  0.00  0.00    +0.060 A 
ATOM      6  C   UNL     1       5.750   5.472  -9.913  0.00  0.00    +0.205 A 
ATOM      7  C   UNL     1       5.466   5.459 -11.272  0.00  0.00    +0.136 A 
ATOM      8  O   UNL     1       6.785   6.076  -9.537  0.00  0.00    -0.286 OA
ATOM      9  C   UNL     1       4.824   5.755  -7.751  0.00  0.00    +0.036 A 
ATOM     10  C   UNL     1       3.729   6.009  -6.941  0.00  0.00    +0.157 A 
ATOM     11  F   UNL     1       3.763   6.877  -5.895  0.00  0.00    -0.203 F 
ATOM     12  C   UNL     1       2.579   5.319  -7.301  0.00  0.00    +0.112 A 
ATOM     13  C   UNL     1       2.402   4.975  -8.636  0.00  0.00    +0.170 A 
ATOM     14  O   UNL     1       1.132   4.893  -9.204  0.00  0.00    -0.471 OA
ATOM     15  C   UNL     1       4.169   5.303 -11.728  0.00  0.00    +0.086 A 
ATOM     16  C   UNL     1       0.902   4.631 -10.536  0.00  0.00    +0.228 C 
ENDROOT
BRANCH  12  17
ATOM     17  N   UNL     1       1.457   5.369  -6.424  0.00  0.00    -0.301 N 
ATOM     18  C   UNL     1       0.506   6.431  -6.489  0.00  0.00    +0.108 C 
ATOM     19  C   UNL     1       0.159   7.073  -5.195  0.00  0.00    +0.094 C 
ATOM     20  N   UNL     1       0.287   6.254  -4.038  0.00  0.00    -0.269 NA
ATOM     21  C   UNL     1      -0.959   5.665  -3.591  0.00  0.00    +0.090 C 
ATOM     22  C   UNL     1       1.384   5.331  -4.058  0.00  0.00    +0.094 C 
ATOM     23  C   UNL     1       1.376   4.467  -5.300  0.00  0.00    +0.108 C 
ENDBRANCH  12  17
BRANCH   7  24
ATOM     24  C   UNL     1       6.504   5.718 -12.266  0.00  0.00    +0.392 C 
ATOM     25  O   UNL     1       7.413   4.730 -12.598  0.00  0.00    -0.240 OA
ATOM     26  O   UNL     1       6.644   6.908 -12.681  0.00  0.00    -0.240 OA
ENDBRANCH   7  24
TORSDOF 2
ENDMDL
MODEL 2
REMARK VINA RESULT:      -8.3      3.120      7.843
REMARK  Name = 
REMARK  2 active torsions:
REMARK  status: ('A' for Active; 'I' for Inactive)
REMARK    1  A    between atoms: C_6  and  N_7
REMARK    2  A    between atoms: C_20  and  C_21
REMARK                            x       y       z     vdW  Elec       q    Type
REMARK                         _______ _______ _______ _____ _____    ______ ____
ROOT
ATOM      1  C   UNL     1       2.827   7.096  -4.416  0.00  0.00    +0.028 C 
ATOM      2  C   UNL     1       2.680   5.920  -3.240  0.00  0.00    +0.129 C 
ATOM      3  N   UNL     1       1.301   5.332  -3.777  0.00  0.00    -0.321 N 
ATOM      4  C   UNL     1       1.053   5.376  -5.056  0.00  0.00    +0.099 A 
ATOM      5  C   UNL     1      -0.252   5.248  -5.527  0.00  0.00    +0.060 A 
ATOM      6  C   UNL     1      -1.297   5.504  -4.645  0.00  0.00    +0.205 A 
ATOM      7  C   UNL     1      -0.983   5.579  -3.295  0.00  0.00    +0.136 A 
ATOM      8  O   UNL     1      -2.354   6.063  -5.032  0.00  0.00    -0.286 OA
ATOM      9  C   UNL     1      -0.425   5.676  -6.841  0.00  0.00    +0.036 A 
ATOM     10  C   UNL     1       0.646   5.904  -7.690  0.00  0.00    +0.157 A 
ATOM     11  F   UNL     1       0.570   6.707  -8.785  0.00  0.00    -0.203 F 
ATOM     12  C   UNL     1       1.819   5.261  -7.316  0.00  0.00    +0.112 A 
ATOM     13  C   UNL     1       2.033   5.002  -5.967  0.00  0.00    +0.170 A 
ATOM     14  O   UNL     1       3.316   4.980  -5.425  0.00  0.00    -0.471 OA
ATOM     15  C   UNL     1       0.327   5.478  -2.860  0.00  0.00    +0.086 A 
ATOM     16  C   UNL     1       3.581   4.805  -4.086  0.00  0.00    +0.228 C 
ENDROOT
BRANCH  12  17
ATOM     17  N   UNL     1       2.919   5.282  -8.220  0.00  0.00    -0.301 N 
ATOM     18  C   UNL     1       3.803   6.400  -8.294  0.00  0.00    +0.108 C 
ATOM     19  C   UNL     1       4.087   6.916  -9.659  0.00  0.00    +0.094 C 
ATOM     20  N   UNL     1       3.990   5.967 -10.717  0.00  0.00    -0.269 NA
ATOM     21  C   UNL     1       5.262   5.410 -11.126  0.00  0.00    +0.090 C 
ATOM     22  C   UNL     1       2.954   4.988 -10.570  0.00  0.00    +0.094 C 
ATOM     23  C   UNL     1       3.038   4.267  -9.241  0.00  0.00    +0.108 C 
ENDBRANCH  12  17
BRANCH   7  24
ATOM     24  C   UNL     1      -2.005   5.875  -2.294  0.00  0.00    +0.392 C 
ATOM     25  O   UNL     1      -2.100   7.142  -1.749  0.00  0.00    -0.240 OA
ATOM     26  O   UNL     1      -2.679   4.906  -1.830  0.00  0.00    -0.240 OA
ENDBRANCH   7  24
TORSDOF 2
ENDMDL
MODEL 3
REMARK VINA RESULT:      -8.1      0.920      1.155
REMARK  Name = 
REMARK  2 active torsions:
REMARK  status: ('A' for Active; 'I' for Inactive)
REMARK    1  A    between atoms: C_6  and  N_7
REMARK    2  A    between atoms: C_20  and  C_21
REMARK                            x       y       z     vdW  Elec       q    Type
REMARK                         _______ _______ _______ _____ _____    ______ ____
ROOT
ATOM      1  C   UNL     1       0.882   6.911 -10.824  0.00  0.00    +0.028 C 
ATOM      2  C   UNL     1       0.966   5.660 -11.926  0.00  0.00    +0.129 C 
ATOM      3  N   UNL     1       2.417   5.166 -11.492  0.00  0.00    -0.321 N 
ATOM      4  C   UNL     1       2.787   5.311 -10.251  0.00  0.00    +0.099 A 
ATOM      5  C   UNL     1       4.136   5.269  -9.906  0.00  0.00    +0.060 A 
ATOM      6  C   UNL     1       5.077   5.501 -10.905  0.00  0.00    +0.205 A 
ATOM      7  C   UNL     1       4.628   5.466 -12.219  0.00  0.00    +0.136 A 
ATOM      8  O   UNL     1       6.139   6.127 -10.665  0.00  0.00    -0.286 OA
ATOM      9  C   UNL     1       4.418   5.796  -8.648  0.00  0.00    +0.036 A 
ATOM     10  C   UNL     1       3.425   6.043  -7.713  0.00  0.00    +0.157 A 
ATOM     11  F   UNL     1       3.571   6.924  -6.689  0.00  0.00    -0.203 F 
ATOM     12  C   UNL     1       2.252   5.329  -7.923  0.00  0.00    +0.112 A 
ATOM     13  C   UNL     1       1.919   4.966  -9.222  0.00  0.00    +0.170 A 
ATOM     14  O   UNL     1       0.591   4.856  -9.629  0.00  0.00    -0.471 OA
ATOM     15  C   UNL     1       3.288   5.284 -12.511  0.00  0.00    +0.086 A 
ATOM     16  C   UNL     1       0.204   4.574 -10.920  0.00  0.00    +0.228 C 
ENDROOT
BRANCH  12  17
ATOM     17  N   UNL     1       1.246   5.373  -6.915  0.00  0.00    -0.301 N 
ATOM     18  C   UNL     1       0.397   6.509  -6.756  0.00  0.00    +0.108 C 
ATOM     19  C   UNL     1       0.259   7.029  -5.371  0.00  0.00    +0.094 C 
ATOM     20  N   UNL     1       0.438   6.077  -4.327  0.00  0.00    -0.269 NA
ATOM     21  C   UNL     1      -0.799   5.546  -3.794  0.00  0.00    +0.090 C 
ATOM     22  C   UNL     1       1.435   5.077  -4.573  0.00  0.00    +0.094 C 
ATOM     23  C   UNL     1       1.206   4.360  -5.887  0.00  0.00    +0.108 C 
ENDBRANCH  12  17
BRANCH   7  24
ATOM     24  C   UNL     1       5.532   5.730 -13.335  0.00  0.00    +0.392 C 
ATOM     25  O   UNL     1       5.196   6.660 -14.301  0.00  0.00    -0.240 OA
ATOM     26  O   UNL     1       6.538   4.970 -13.475  0.00  0.00    -0.240 OA
ENDBRANCH   7  24
TORSDOF 2
ENDMDL
MODEL 4
REMARK VINA RESULT:      -7.9      2.920      4.992
REMARK  Name = 
REMARK  2 active torsions:
REMARK  status: ('A' for Active; 'I' for Inactive)
REMARK    1  A    between atoms: C_6  and  N_7
REMARK    2  A    between atoms: C_20  and  C_21
REMARK                            x       y       z     vdW  Elec       q    Type
REMARK                         _______ _______ _______ _____ _____    ______ ____
ROOT
ATOM      1  C   UNL     1       0.279   7.461  -5.186  0.00  0.00    +0.028 C 
ATOM      2  C   UNL     1      -0.771   6.219  -5.561  0.00  0.00    +0.129 C 
ATOM      3  N   UNL     1       0.241   5.439  -6.512  0.00  0.00    -0.321 N 
ATOM      4  C   UNL     1       1.519   5.506  -6.262  0.00  0.00    +0.099 A 
ATOM      5  C   UNL     1       2.449   5.189  -7.249  0.00  0.00    +0.060 A 
ATOM      6  C   UNL     1       2.036   5.224  -8.577  0.00  0.00    +0.205 A 
ATOM      7  C   UNL     1       0.669   5.281  -8.814  0.00  0.00    +0.136 A 
ATOM      8  O   UNL     1       2.805   5.620  -9.488  0.00  0.00    -0.286 OA
ATOM      9  C   UNL     1       3.737   5.648  -6.984  0.00  0.00    +0.036 A 
ATOM     10  C   UNL     1       4.118   6.093  -5.728  0.00  0.00    +0.157 A 
ATOM     11  F   UNL     1       5.171   6.926  -5.521  0.00  0.00    -0.203 F 
ATOM     12  C   UNL     1       3.314   5.634  -4.691  0.00  0.00    +0.112 A 
ATOM     13  C   UNL     1       1.982   5.346  -4.962  0.00  0.00    +0.170 A 
ATOM     14  O   UNL     1       0.991   5.509  -3.995  0.00  0.00    -0.471 OA
ATOM     15  C   UNL     1      -0.233   5.376  -7.769  0.00  0.00    +0.086 A 
ATOM     16  C   UNL     1      -0.350   5.312  -4.230  0.00  0.00    +0.228 C 
ENDROOT
BRANCH  12  17
ATOM     17  N   UNL     1       3.732   5.883  -3.352  0.00  0.00    -0.301 N 
ATOM     18  C   UNL     1       4.111   4.820  -2.479  0.00  0.00    +0.108 C 
ATOM     19  C   UNL     1       3.494   4.838  -1.127  0.00  0.00    +0.094 C 
ATOM     20  N   UNL     1       3.121   6.119  -0.629  0.00  0.00    -0.269 NA
ATOM     21  C   UNL     1       4.090   6.706   0.273  0.00  0.00    +0.090 C 
ATOM     22  C   UNL     1       2.619   7.036  -1.609  0.00  0.00    +0.094 C 
ATOM     23  C   UNL     1       3.570   7.197  -2.775  0.00  0.00    +0.108 C 
ENDBRANCH  12  17
BRANCH   7  24
ATOM     24  C   UNL     1       0.137   5.353 -10.173  0.00  0.00    +0.392 C 
ATOM     25  O   UNL     1      -0.239   6.570 -10.710  0.00  0.00    -0.240 OA
ATOM     26  O   UNL     1      -0.118   4.263 -10.769  0.00  0.00    -0.240 OA
ENDBRANCH   7  24
TORSDOF 2
ENDMDL
MODEL 5
REMARK VINA RESULT:      -7.8      2.257      4.045
REMARK  Name = 
REMARK  2 active torsions:
REMARK  status: ('A' for Active; 'I' for Inactive)
REMARK    1  A    between atoms: C_6  and  N_7
REMARK    2  A    between atoms: C_20  and  C_21
REMARK                            x       y       z     vdW  Elec       q    Type
REMARK                         _______ _______ _______ _____ _____    ______ ____
ROOT
ATOM      1  C   UNL     1       3.235   4.835  -5.684  0.00  0.00    +0.028 C 
ATOM      2  C   UNL     1       4.283   5.999  -6.263  0.00  0.00    +0.129 C 
ATOM      3  N   UNL     1       3.390   6.402  -7.519  0.00  0.00    -0.321 N 
ATOM      4  C   UNL     1       2.094   6.310  -7.427  0.00  0.00    +0.099 A 
ATOM      5  C   UNL     1       1.305   6.267  -8.574  0.00  0.00    +0.060 A 
ATOM      6  C   UNL     1       1.907   5.893  -9.772  0.00  0.00    +0.205 A 
ATOM      7  C   UNL     1       3.295   5.877  -9.805  0.00  0.00    +0.136 A 
ATOM      8  O   UNL     1       1.293   5.201 -10.621  0.00  0.00    -0.286 OA
ATOM      9  C   UNL     1       0.010   5.803  -8.355  0.00  0.00    +0.036 A 
ATOM     10  C   UNL     1      -0.532   5.700  -7.084  0.00  0.00    +0.157 A 
ATOM     11  F   UNL     1      -1.573   4.880  -6.783  0.00  0.00    -0.203 F 
ATOM     12  C   UNL     1       0.096   6.490  -6.129  0.00  0.00    +0.112 A 
ATOM     13  C   UNL     1       1.442   6.792  -6.298  0.00  0.00    +0.170 A 
ATOM     14  O   UNL     1       2.288   6.982  -5.207  0.00  0.00    -0.471 OA
ATOM     15  C   UNL     1       4.039   6.147  -8.671  0.00  0.00    +0.086 A 
ATOM     16  C   UNL     1       3.641   7.207  -5.315  0.00  0.00    +0.228 C 
ENDROOT
BRANCH  12  17
ATOM     17  N   UNL     1      -0.502   6.595  -4.840  0.00  0.00    -0.301 N 
ATOM     18  C   UNL     1      -0.457   5.517  -3.907  0.00  0.00    +0.108 C 
ATOM     19  C   UNL     1      -1.750   5.156  -3.269  0.00  0.00    +0.094 C 
ATOM     20  N   UNL     1      -2.703   6.208  -3.152  0.00  0.00    -0.269 NA
ATOM     21  C   UNL     1      -2.726   6.841  -1.850  0.00  0.00    +0.090 C 
ATOM     22  C   UNL     1      -2.728   7.136  -4.244  0.00  0.00    +0.094 C 
ATOM     23  C   UNL     1      -1.359   7.715  -4.528  0.00  0.00    +0.108 C 
ENDBRANCH  12  17
BRANCH   7  24
ATOM     24  C   UNL     1       4.019   5.468 -11.006  0.00  0.00    +0.392 C 
ATOM     25  O   UNL     1       5.341   5.071 -10.921  0.00  0.00    -0.240 OA
ATOM     26  O   UNL     1       3.456   5.646 -12.128  0.00  0.00    -0.240 OA
ENDBRANCH   7  24
TORSDOF 2
ENDMDL
MODEL 6
REMARK VINA RESULT:      -7.8      4.297      8.880
REMARK  Name = 
REMARK  2 active torsions:
REMARK  status: ('A' for Active; 'I' for Inactive)
REMARK    1  A    between atoms: C_6  and  N_7
REMARK    2  A    between atoms: C_20  and  C_21
REMARK                            x       y       z     vdW  Elec       q    Type
REMARK                         _______ _______ _______ _____ _____    ______ ____
ROOT
ATOM      1  C   UNL     1       3.291   7.574  -2.519  0.00  0.00    +0.028 C 
ATOM      2  C   UNL     1       3.222   6.646  -1.133  0.00  0.00    +0.129 C 
ATOM      3  N   UNL     1       1.699   6.215  -1.308  0.00  0.00    -0.321 N 
ATOM      4  C   UNL     1       1.214   6.090  -2.511  0.00  0.00    +0.099 A 
ATOM      5  C   UNL     1      -0.162   6.104  -2.723  0.00  0.00    +0.060 A 
ATOM      6  C   UNL     1      -0.972   6.670  -1.743  0.00  0.00    +0.205 A 
ATOM      7  C   UNL     1      -0.393   6.911  -0.504  0.00  0.00    +0.136 A 
ATOM      8  O   UNL     1      -2.000   7.326  -2.046  0.00  0.00    -0.286 OA
ATOM      9  C   UNL     1      -0.531   6.335  -4.046  0.00  0.00    +0.036 A 
ATOM     10  C   UNL     1       0.375   6.242  -5.091  0.00  0.00    +0.157 A 
ATOM     11  F   UNL     1       0.193   6.856  -6.290  0.00  0.00    -0.203 F 
ATOM     12  C   UNL     1       1.502   5.483  -4.804  0.00  0.00    +0.112 A 
ATOM     13  C   UNL     1       1.939   5.416  -3.487  0.00  0.00    +0.170 A 
ATOM     14  O   UNL     1       3.289   5.271  -3.174  0.00  0.00    -0.471 OA
ATOM     15  C   UNL     1       0.951   6.667  -0.285  0.00  0.00    +0.086 A 
ATOM     16  C   UNL     1       3.785   5.274  -1.890  0.00  0.00    +0.228 C 
ENDROOT
BRANCH  12  17
ATOM     17  N   UNL     1       2.398   5.174  -5.868  0.00  0.00    -0.301 N 
ATOM     18  C   UNL     1       3.358   6.121  -6.334  0.00  0.00    +0.108 C 
ATOM     19  C   UNL     1       3.416   6.318  -7.806  0.00  0.00    +0.094 C 
ATOM     20  N   UNL     1       3.016   5.206  -8.600  0.00  0.00    -0.269 NA
ATOM     21  C   UNL     1       4.118   4.407  -9.093  0.00  0.00    +0.090 C 
ATOM     22  C   UNL     1       1.936   4.429  -8.068  0.00  0.00    +0.094 C 
ATOM     23  C   UNL     1       2.208   3.975  -6.650  0.00  0.00    +0.108 C 
ENDBRANCH  12  17
BRANCH   7  24
ATOM     24  C   UNL     1      -1.151   7.531   0.579  0.00  0.00    +0.392 C 
ATOM     25  O   UNL     1      -1.934   6.756   1.415  0.00  0.00    -0.240 OA
ATOM     26  O   UNL     1      -1.198   8.798   0.621  0.00  0.00    -0.240 OA
ENDBRANCH   7  24
TORSDOF 2
ENDMDL
MODEL 7
REMARK VINA RESULT:      -7.7      3.425      6.764
REMARK  Name = 
REMARK  2 active torsions:
REMARK  status: ('A' for Active; 'I' for Inactive)
REMARK    1  A    between atoms: C_6  and  N_7
REMARK    2  A    between atoms: C_20  and  C_21
REMARK                            x       y       z     vdW  Elec       q    Type
REMARK                         _______ _______ _______ _____ _____    ______ ____
ROOT
ATOM      1  C   UNL     1       0.101   4.967  -4.958  0.00  0.00    +0.028 C 
ATOM      2  C   UNL     1       0.076   6.246  -3.886  0.00  0.00    +0.129 C 
ATOM      3  N   UNL     1       1.647   6.507  -3.915  0.00  0.00    -0.321 N 
ATOM      4  C   UNL     1       2.308   6.249  -5.008  0.00  0.00    +0.099 A 
ATOM      5  C   UNL     1       3.691   6.082  -4.975  0.00  0.00    +0.060 A 
ATOM      6  C   UNL     1       4.285   5.768  -3.757  0.00  0.00    +0.205 A 
ATOM      7  C   UNL     1       3.513   5.932  -2.614  0.00  0.00    +0.136 A 
ATOM      8  O   UNL     1       5.267   4.987  -3.693  0.00  0.00    -0.286 OA
ATOM      9  C   UNL     1       4.215   5.458  -6.104  0.00  0.00    +0.036 A 
ATOM     10  C   UNL     1       3.482   5.308  -7.271  0.00  0.00    +0.157 A 
ATOM     11  F   UNL     1       3.762   4.365  -8.209  0.00  0.00    -0.203 F 
ATOM     12  C   UNL     1       2.417   6.191  -7.394  0.00  0.00    +0.112 A 
ATOM     13  C   UNL     1       1.808   6.662  -6.237  0.00  0.00    +0.170 A 
ATOM     14  O   UNL     1       0.452   6.980  -6.206  0.00  0.00    -0.471 OA
ATOM     15  C   UNL     1       2.188   6.317  -2.698  0.00  0.00    +0.086 A 
ATOM     16  C   UNL     1      -0.218   7.378  -5.072  0.00  0.00    +0.228 C 
ENDROOT
BRANCH  12  17
ATOM     17  N   UNL     1       1.721   6.241  -8.636  0.00  0.00    -0.301 N 
ATOM     18  C   UNL     1       0.636   5.358  -8.920  0.00  0.00    +0.108 C 
ATOM     19  C   UNL     1       0.691   4.662 -10.233  0.00  0.00    +0.094 C 
ATOM     20  N   UNL     1       1.395   5.339 -11.268  0.00  0.00    -0.269 NA
ATOM     21  C   UNL     1       0.542   6.077 -12.177  0.00  0.00    +0.090 C 
ATOM     22  C   UNL     1       2.554   6.070 -10.846  0.00  0.00    +0.094 C 
ATOM     23  C   UNL     1       2.238   7.036  -9.725  0.00  0.00    +0.108 C 
ENDBRANCH  12  17
BRANCH   7  24
ATOM     24  C   UNL     1       4.037   5.599  -1.292  0.00  0.00    +0.392 C 
ATOM     25  O   UNL     1       3.698   4.402  -0.689  0.00  0.00    -0.240 OA
ATOM     26  O   UNL     1       4.665   6.501  -0.658  0.00  0.00    -0.240 OA
ENDBRANCH   7  24
TORSDOF 2
ENDMDL
MODEL 8
REMARK VINA RESULT:      -7.7      3.264      7.137
REMARK  Name = 
REMARK  2 active torsions:
REMARK  status: ('A' for Active; 'I' for Inactive)
REMARK    1  A    between atoms: C_6  and  N_7
REMARK    2  A    between atoms: C_20  and  C_21
REMARK                            x       y       z     vdW  Elec       q    Type
REMARK                         _______ _______ _______ _____ _____    ______ ____
ROOT
ATOM      1  C   UNL     1       3.384   7.429  -6.282  0.00  0.00    +0.028 C 
ATOM      2  C   UNL     1       4.340   6.388  -5.393  0.00  0.00    +0.129 C 
ATOM      3  N   UNL     1       3.139   5.490  -4.858  0.00  0.00    -0.321 N 
ATOM      4  C   UNL     1       2.083   5.339  -5.606  0.00  0.00    +0.099 A 
ATOM      5  C   UNL     1       0.879   4.911  -5.051  0.00  0.00    +0.060 A 
ATOM      6  C   UNL     1       0.698   5.062  -3.680  0.00  0.00    +0.205 A 
ATOM      7  C   UNL     1       1.824   5.349  -2.920  0.00  0.00    +0.136 A 
ATOM      8  O   UNL     1      -0.424   5.360  -3.200  0.00  0.00    -0.286 OA
ATOM      9  C   UNL     1      -0.233   5.145  -5.857  0.00  0.00    +0.036 A 
ATOM     10  C   UNL     1      -0.115   5.475  -7.198  0.00  0.00    +0.157 A 
ATOM     11  F   UNL     1      -1.090   6.118  -7.894  0.00  0.00    -0.203 F 
ATOM     12  C   UNL     1       1.098   5.115  -7.771  0.00  0.00    +0.112 A 
ATOM     13  C   UNL     1       2.224   5.058  -6.960  0.00  0.00    +0.170 A 
ATOM     14  O   UNL     1       3.495   5.344  -7.456  0.00  0.00    -0.471 OA
ATOM     15  C   UNL     1       3.055   5.551  -3.516  0.00  0.00    +0.086 A 
ATOM     16  C   UNL     1       4.632   5.376  -6.683  0.00  0.00    +0.228 C 
ENDROOT
BRANCH  12  17
ATOM     17  N   UNL     1       1.242   5.243  -9.183  0.00  0.00    -0.301 N 
ATOM     18  C   UNL     1       1.385   6.519  -9.806  0.00  0.00    +0.108 C 
ATOM     19  C   UNL     1       0.505   6.773 -10.976  0.00  0.00    +0.094 C 
ATOM     20  N   UNL     1       0.096   5.623 -11.710  0.00  0.00    -0.269 NA
ATOM     21  C   UNL     1       0.885   5.371 -12.898  0.00  0.00    +0.090 C 
ATOM     22  C   UNL     1      -0.151   4.450 -10.925  0.00  0.00    +0.094 C 
ATOM     23  C   UNL     1       1.025   4.101 -10.039  0.00  0.00    +0.108 C 
ENDBRANCH  12  17
BRANCH   7  24
ATOM     24  C   UNL     1       1.730   5.556  -1.477  0.00  0.00    +0.392 C 
ATOM     25  O   UNL     1       1.699   4.474  -0.617  0.00  0.00    -0.240 OA
ATOM     26  O   UNL     1       1.515   6.735  -1.060  0.00  0.00    -0.240 OA
ENDBRANCH   7  24
TORSDOF 2
ENDMDL
MODEL 9
REMARK VINA RESULT:      -7.5      2.897      6.272
REMARK  Name = 
REMARK  2 active torsions:
REMARK  status: ('A' for Active; 'I' for Inactive)
REMARK    1  A    between atoms: C_6  and  N_7
REMARK    2  A    between atoms: C_20  and  C_21
REMARK                            x       y       z     vdW  Elec       q    Type
REMARK                         _______ _______ _______ _____ _____    ______ ____
ROOT
ATOM      1  C   UNL     1       4.134   7.415 -10.291  0.00  0.00    +0.028 C 
ATOM      2  C   UNL     1       5.247   6.232  -9.906  0.00  0.00    +0.129 C 
ATOM      3  N   UNL     1       4.293   5.439  -8.907  0.00  0.00    -0.321 N 
ATOM      4  C   UNL     1       3.009   5.442  -9.126  0.00  0.00    +0.099 A 
ATOM      5  C   UNL     1       2.118   5.115  -8.106  0.00  0.00    +0.060 A 
ATOM      6  C   UNL     1       2.561   5.209  -6.791  0.00  0.00    +0.205 A 
ATOM      7  C   UNL     1       3.930   5.333  -6.591  0.00  0.00    +0.136 A 
ATOM      8  O   UNL     1       1.798   5.599  -5.872  0.00  0.00    -0.286 OA
ATOM      9  C   UNL     1       0.804   5.510  -8.352  0.00  0.00    +0.036 A 
ATOM     10  C   UNL     1       0.374   5.899  -9.611  0.00  0.00    +0.157 A 
ATOM     11  F   UNL     1      -0.720   6.678  -9.814  0.00  0.00    -0.203 F 
ATOM     12  C   UNL     1       1.171   5.443 -10.653  0.00  0.00    +0.112 A 
ATOM     13  C   UNL     1       2.521   5.222 -10.408  0.00  0.00    +0.170 A 
ATOM     14  O   UNL     1       3.480   5.398 -11.404  0.00  0.00    -0.471 OA
ATOM     15  C   UNL     1       4.801   5.435  -7.660  0.00  0.00    +0.086 A 
ATOM     16  C   UNL     1       4.834   5.267 -11.198  0.00  0.00    +0.228 C 
ENDROOT
BRANCH  12  17
ATOM     17  N   UNL     1       0.711   5.632 -11.988  0.00  0.00    -0.301 N 
ATOM     18  C   UNL     1       0.489   4.528 -12.864  0.00  0.00    +0.108 C 
ATOM     19  C   UNL     1       1.086   4.645 -14.220  0.00  0.00    +0.094 C 
ATOM     20  N   UNL     1       1.259   5.969 -14.714  0.00  0.00    -0.269 NA
ATOM     21  C   UNL     1       0.206   6.407 -15.606  0.00  0.00    +0.090 C 
ATOM     22  C   UNL     1       1.625   6.947 -13.732  0.00  0.00    +0.094 C 
ATOM     23  C   UNL     1       0.669   6.958 -12.559  0.00  0.00    +0.108 C 
ENDBRANCH  12  17
BRANCH   7  24
ATOM     24  C   UNL     1       4.490   5.470  -5.249  0.00  0.00    +0.392 C 
ATOM     25  O   UNL     1       4.404   4.426  -4.347  0.00  0.00    -0.240 OA
ATOM     26  O   UNL     1       4.900   6.616  -4.892  0.00  0.00    -0.240 OA
ENDBRANCH   7  24
TORSDOF 2
ENDMDL
