MODEL 1
REMARK VINA RESULT:      -8.8      0.000      0.000
REMARK  Name = 
REMARK  2 active torsions:
REMARK  status: ('A' for Active; 'I' for Inactive)
REMARK    1  A    between atoms: C_2  and  C_3
REMARK    2  A    between atoms: C_21  and  C_22
REMARK                            x       y       z     vdW  Elec       q    Type
REMARK                         _______ _______ _______ _____ _____    ______ ____
ROOT
ATOM      1  C   UNL     1       2.285   6.720  -7.921  0.00  0.00    +0.180 C 
ATOM      2  C   UNL     1       2.553   6.168  -6.509  0.00  0.00    +0.037 C 
ATOM      3  C   UNL     1       4.023   6.839  -6.590  0.00  0.00    +0.003 C 
ATOM      4  C   UNL     1       4.773   6.222  -5.201  0.00  0.00    +0.001 C 
ATOM      5  C   UNL     1       4.148   7.584  -4.410  0.00  0.00    +0.004 C 
ATOM      6  C   UNL     1       2.641   7.094  -4.138  0.00  0.00    +0.000 C 
ATOM      7  C   UNL     1       4.842   7.211  -2.909  0.00  0.00    +0.019 C 
ATOM      8  C   UNL     1       4.001   5.902  -2.552  0.00  0.00    -0.042 C 
ATOM      9  C   UNL     1       4.298   5.602  -1.280  0.00  0.00    +0.029 C 
ATOM     10  C   UNL     1       4.346   6.651  -0.291  0.00  0.00    +0.173 C 
ATOM     11  C   UNL     1       3.952   8.009  -0.689  0.00  0.00    +0.069 C 
ATOM     12  O   UNL     1       4.679   6.368   0.874  0.00  0.00    -0.291 OA
ATOM     13  C   UNL     1       4.270   4.697  -3.407  0.00  0.00    +0.022 C 
ATOM     14  C   UNL     1       3.793   8.196  -2.152  0.00  0.00    +0.012 C 
ATOM     15  C   UNL     1       3.730   5.112  -4.715  0.00  0.00    +0.004 C 
ATOM     16  C   UNL     1       4.468   5.657  -7.613  0.00  0.00    +0.004 C 
ATOM     17  C   UNL     1       1.919   6.930  -5.422  0.00  0.00    +0.003 C 
ATOM     18  C   UNL     1       3.530   6.240  -8.674  0.00  0.00    +0.043 C 
ATOM     19  O   UNL     1       2.236   8.084  -7.789  0.00  0.00    -0.212 OA
ENDROOT
BRANCH   1  21
ATOM     20  C   UNL     1       0.419   5.897  -8.906  0.00  0.00    -0.012 C 
ATOM     21  C   UNL     1       1.068   6.132  -8.510  0.00  0.00    -0.049 C 
ENDBRANCH   1  21
BRANCH   2  22
ATOM     22  C   UNL     1       2.466   4.809  -6.678  0.00  0.00    +0.003 C 
ATOM     23  C   UNL     1       1.770   3.676  -6.333  0.00  0.00    +0.000 C 
ENDBRANCH   2  22
TORSDOF 2
ENDMDL
MODEL 2
REMARK VINA RESULT:      -8.6      3.463      4.774
REMARK  Name = 
REMARK  2 active torsions:
REMARK  status: ('A' for Active; 'I' for Inactive)
REMARK    1  A    between atoms: C_2  and  C_3
REMARK    2  A    between atoms: C_21  and  C_22
REMARK                            x       y       z     vdW  Elec       q    Type
REMARK                         _______ _______ _______ _____ _____    ______ ____
ROOT
ATOM      1  C   UNL     1       3.840   5.779  -8.578  0.00  0.00    +0.180 C 
ATOM      2  C   UNL     1       2.380   5.970  -8.130  0.00  0.00    +0.037 C 
ATOM      3  C   UNL     1       2.545   4.639  -7.225  0.00  0.00    +0.003 C 
ATOM      4  C   UNL     1       0.957   4.367  -6.700  0.00  0.00    +0.001 C 
ATOM      5  C   UNL     1       1.355   5.360  -5.386  0.00  0.00    +0.004 C 
ATOM      6  C   UNL     1       1.168   6.811  -6.054  0.00  0.00    +0.000 C 
ATOM      7  C   UNL     1      -0.152   5.203  -4.625  0.00  0.00    +0.019 C 
ATOM      8  C   UNL     1      -1.059   5.983  -5.682  0.00  0.00    -0.042 C 
ATOM      9  C   UNL     1      -2.264   6.123  -5.110  0.00  0.00    +0.029 C 
ATOM     10  C   UNL     1      -2.356   6.528  -3.729  0.00  0.00    +0.173 C 
ATOM     11  C   UNL     1      -1.121   6.890  -3.020  0.00  0.00    +0.069 C 
ATOM     12  O   UNL     1      -3.477   6.599  -3.194  0.00  0.00    -0.291 OA
ATOM     13  C   UNL     1      -1.234   5.314  -7.015  0.00  0.00    +0.022 C 
ATOM     14  C   UNL     1       0.126   6.544  -3.746  0.00  0.00    +0.012 C 
ATOM     15  C   UNL     1       0.121   5.399  -7.590  0.00  0.00    +0.004 C 
ATOM     16  C   UNL     1       2.473   3.749  -8.583  0.00  0.00    +0.004 C 
ATOM     17  C   UNL     1       2.181   7.016  -7.116  0.00  0.00    +0.003 C 
ATOM     18  C   UNL     1       3.835   4.309  -9.006  0.00  0.00    +0.043 C 
ATOM     19  O   UNL     1       4.608   6.006  -7.465  0.00  0.00    -0.212 OA
ENDROOT
BRANCH   1  21
ATOM     20  C   UNL     1       4.462   7.083 -10.322  0.00  0.00    -0.012 C 
ATOM     21  C   UNL     1       4.174   6.648  -9.721  0.00  0.00    -0.049 C 
ENDBRANCH   1  21
BRANCH   2  22
ATOM     22  C   UNL     1       1.672   5.858  -9.301  0.00  0.00    +0.003 C 
ATOM     23  C   UNL     1       0.881   6.525 -10.203  0.00  0.00    +0.000 C 
ENDBRANCH   2  22
TORSDOF 2
ENDMDL
MODEL 3
REMARK VINA RESULT:      -8.6      3.164      6.531
REMARK  Name = 
REMARK  2 active torsions:
REMARK  status: ('A' for Active; 'I' for Inactive)
REMARK    1  A    between atoms: C_2  and  C_3
REMARK    2  A    between atoms: C_21  and  C_22
REMARK                            x       y       z     vdW  Elec       q    Type
REMARK                         _______ _______ _______ _____ _____    ______ ____
ROOT
ATOM      1  C   UNL     1       0.799   5.851  -6.839  0.00  0.00    +0.180 C 
ATOM      2  C   UNL     1       2.261   6.040  -7.282  0.00  0.00    +0.037 C 
ATOM      3  C   UNL     1       2.127   4.658  -8.113  0.00  0.00    +0.003 C 
ATOM      4  C   UNL     1       3.724   4.383  -8.606  0.00  0.00    +0.001 C 
ATOM      5  C   UNL     1       3.326   5.296  -9.977  0.00  0.00    +0.004 C 
ATOM      6  C   UNL     1       3.483   6.784  -9.389  0.00  0.00    +0.000 C 
ATOM      7  C   UNL     1       4.844   5.121 -10.713  0.00  0.00    +0.019 C 
ATOM      8  C   UNL     1       5.727   5.973  -9.692  0.00  0.00    -0.042 C 
ATOM      9  C   UNL     1       6.936   6.099 -10.258  0.00  0.00    +0.029 C 
ATOM     10  C   UNL     1       7.036   6.429 -11.658  0.00  0.00    +0.173 C 
ATOM     11  C   UNL     1       5.804   6.731 -12.399  0.00  0.00    +0.069 C 
ATOM     12  O   UNL     1       8.162   6.488 -12.185  0.00  0.00    -0.291 OA
ATOM     13  C   UNL     1       5.897   5.380  -8.321  0.00  0.00    +0.022 C 
ATOM     14  C   UNL     1       4.555   6.406 -11.668  0.00  0.00    +0.012 C 
ATOM     15  C   UNL     1       4.534   5.476  -7.766  0.00  0.00    +0.004 C 
ATOM     16  C   UNL     1       2.197   3.847  -6.707  0.00  0.00    +0.004 C 
ATOM     17  C   UNL     1       2.455   7.032  -8.350  0.00  0.00    +0.003 C 
ATOM     18  C   UNL     1       0.822   4.407  -6.330  0.00  0.00    +0.043 C 
ATOM     19  O   UNL     1       0.040   6.004  -7.971  0.00  0.00    -0.212 OA
ENDROOT
BRANCH   1  21
ATOM     20  C   UNL     1       0.142   7.227  -5.164  0.00  0.00    -0.012 C 
ATOM     21  C   UNL     1       0.439   6.776  -5.749  0.00  0.00    -0.049 C 
ENDBRANCH   1  21
BRANCH   2  22
ATOM     22  C   UNL     1       2.957   6.004  -6.099  0.00  0.00    +0.003 C 
ATOM     23  C   UNL     1       3.738   6.730  -5.232  0.00  0.00    +0.000 C 
ENDBRANCH   2  22
TORSDOF 2
ENDMDL
MODEL 4
REMARK VINA RESULT:      -8.3      1.635      2.493
REMARK  Name = 
REMARK  2 active torsions:
REMARK  status: ('A' for Active; 'I' for Inactive)
REMARK    1  A    between atoms: C_2  and  C_3
REMARK    2  A    between atoms: C_21  and  C_22
REMARK                            x       y       z     vdW  Elec       q    Type
REMARK                         _______ _______ _______ _____ _____    ______ ____
ROOT
ATOM      1  C   UNL     1       0.725   5.711  -8.864  0.00  0.00    +0.180 C 
ATOM      2  C   UNL     1       1.735   5.377  -7.751  0.00  0.00    +0.037 C 
ATOM      3  C   UNL     1       1.558   6.894  -7.217  0.00  0.00    +0.003 C 
ATOM      4  C   UNL     1       2.768   6.999  -6.036  0.00  0.00    +0.001 C 
ATOM      5  C   UNL     1       1.590   6.435  -4.957  0.00  0.00    +0.004 C 
ATOM      6  C   UNL     1       1.650   4.858  -5.260  0.00  0.00    +0.000 C 
ATOM      7  C   UNL     1       2.597   6.501  -3.595  0.00  0.00    +0.019 C 
ATOM      8  C   UNL     1       3.626   5.342  -3.977  0.00  0.00    -0.042 C 
ATOM      9  C   UNL     1       4.377   5.133  -2.886  0.00  0.00    +0.029 C 
ATOM     10  C   UNL     1       3.748   5.061  -1.590  0.00  0.00    +0.173 C 
ATOM     11  C   UNL     1       2.281   5.104  -1.519  0.00  0.00    +0.069 C 
ATOM     12  O   UNL     1       4.461   4.923  -0.580  0.00  0.00    -0.291 OA
ATOM     13  C   UNL     1       4.535   5.631  -5.138  0.00  0.00    +0.022 C 
ATOM     14  C   UNL     1       1.617   5.481  -2.791  0.00  0.00    +0.012 C 
ATOM     15  C   UNL     1       3.597   5.652  -6.275  0.00  0.00    +0.004 C 
ATOM     16  C   UNL     1       2.448   7.405  -8.477  0.00  0.00    +0.004 C 
ATOM     17  C   UNL     1       1.185   4.586  -6.640  0.00  0.00    +0.003 C 
ATOM     18  C   UNL     1       1.310   7.010  -9.424  0.00  0.00    +0.043 C 
ATOM     19  O   UNL     1      -0.480   5.897  -8.235  0.00  0.00    -0.212 OA
ENDROOT
BRANCH   1  21
ATOM     20  C   UNL     1       0.590   4.150 -10.500  0.00  0.00    -0.012 C 
ATOM     21  C   UNL     1       0.701   4.666  -9.904  0.00  0.00    -0.049 C 
ENDBRANCH   1  21
BRANCH   2  22
ATOM     22  C   UNL     1       2.882   5.078  -8.444  0.00  0.00    +0.003 C 
ATOM     23  C   UNL     1       3.727   4.069  -8.836  0.00  0.00    +0.000 C 
ENDBRANCH   2  22
TORSDOF 2
ENDMDL
MODEL 5
REMARK VINA RESULT:      -8.2      1.449      2.314
REMARK  Name = 
REMARK  2 active torsions:
REMARK  status: ('A' for Active; 'I' for Inactive)
REMARK    1  A    between atoms: C_2  and  C_3
REMARK    2  A    between atoms: C_21  and  C_22
REMARK                            x       y       z     vdW  Elec       q    Type
REMARK                         _______ _______ _______ _____ _____    ______ ____
ROOT
ATOM      1  C   UNL     1       1.957   6.140  -9.714  0.00  0.00    +0.180 C 
ATOM      2  C   UNL     1       1.855   6.087  -8.180  0.00  0.00    +0.037 C 
ATOM      3  C   UNL     1       3.212   5.205  -8.178  0.00  0.00    +0.003 C 
ATOM      4  C   UNL     1       3.320   4.723  -6.557  0.00  0.00    +0.001 C 
ATOM      5  C   UNL     1       4.199   6.152  -6.321  0.00  0.00    +0.004 C 
ATOM      6  C   UNL     1       2.997   7.214  -6.202  0.00  0.00    +0.000 C 
ATOM      7  C   UNL     1       4.493   5.871  -4.675  0.00  0.00    +0.019 C 
ATOM      8  C   UNL     1       3.004   6.013  -4.118  0.00  0.00    -0.042 C 
ATOM      9  C   UNL     1       3.103   6.018  -2.780  0.00  0.00    +0.029 C 
ATOM     10  C   UNL     1       4.129   6.808  -2.144  0.00  0.00    +0.173 C 
ATOM     11  C   UNL     1       4.964   7.679  -2.982  0.00  0.00    +0.069 C 
ATOM     12  O   UNL     1       4.247   6.761  -0.907  0.00  0.00    -0.291 OA
ATOM     13  C   UNL     1       2.046   4.929  -4.525  0.00  0.00    +0.022 C 
ATOM     14  C   UNL     1       4.822   7.447  -4.440  0.00  0.00    +0.012 C 
ATOM     15  C   UNL     1       1.900   5.166  -5.973  0.00  0.00    +0.004 C 
ATOM     16  C   UNL     1       2.347   3.939  -8.717  0.00  0.00    +0.004 C 
ATOM     17  C   UNL     1       2.279   7.317  -7.494  0.00  0.00    +0.003 C 
ATOM     18  C   UNL     1       2.152   4.659 -10.055  0.00  0.00    +0.043 C 
ATOM     19  O   UNL     1       3.065   6.899  -9.992  0.00  0.00    -0.212 OA
ENDROOT
BRANCH   1  21
ATOM     20  C   UNL     1       0.100   6.919 -10.750  0.00  0.00    -0.012 C 
ATOM     21  C   UNL     1       0.715   6.649 -10.323  0.00  0.00    -0.049 C 
ENDBRANCH   1  21
BRANCH   2  22
ATOM     22  C   UNL     1       0.670   5.429  -7.963  0.00  0.00    +0.003 C 
ATOM     23  C   UNL     1      -0.598   5.538  -7.447  0.00  0.00    +0.000 C 
ENDBRANCH   2  22
TORSDOF 2
ENDMDL
MODEL 6
REMARK VINA RESULT:      -7.7      1.868      6.432
REMARK  Name = 
REMARK  2 active torsions:
REMARK  status: ('A' for Active; 'I' for Inactive)
REMARK    1  A    between atoms: C_2  and  C_3
REMARK    2  A    between atoms: C_21  and  C_22
REMARK                            x       y       z     vdW  Elec       q    Type
REMARK                         _______ _______ _______ _____ _____    ______ ____
ROOT
ATOM      1  C   UNL     1       4.446   5.419  -3.272  0.00  0.00    +0.180 C 
ATOM      2  C   UNL     1       3.272   5.587  -4.253  0.00  0.00    +0.037 C 
ATOM      3  C   UNL     1       4.256   6.466  -5.189  0.00  0.00    +0.003 C 
ATOM      4  C   UNL     1       3.190   7.068  -6.359  0.00  0.00    +0.001 C 
ATOM      5  C   UNL     1       3.548   5.660  -7.231  0.00  0.00    +0.004 C 
ATOM      6  C   UNL     1       2.574   4.611  -6.499  0.00  0.00    +0.000 C 
ATOM      7  C   UNL     1       2.580   6.064  -8.563  0.00  0.00    +0.019 C 
ATOM      8  C   UNL     1       1.142   5.965  -7.878  0.00  0.00    -0.042 C 
ATOM      9  C   UNL     1       0.246   6.060  -8.871  0.00  0.00    +0.029 C 
ATOM     10  C   UNL     1       0.453   5.319 -10.092  0.00  0.00    +0.173 C 
ATOM     11  C   UNL     1       1.586   4.387 -10.163  0.00  0.00    +0.069 C 
ATOM     12  O   UNL     1      -0.355   5.460 -11.028  0.00  0.00    -0.291 OA
ATOM     13  C   UNL     1       0.833   7.016  -6.850  0.00  0.00    +0.022 C 
ATOM     14  C   UNL     1       2.552   4.510  -9.044  0.00  0.00    +0.012 C 
ATOM     15  C   UNL     1       1.763   6.671  -5.758  0.00  0.00    +0.004 C 
ATOM     16  C   UNL     1       4.117   7.688  -4.127  0.00  0.00    +0.004 C 
ATOM     17  C   UNL     1       3.003   4.412  -5.095  0.00  0.00    +0.003 C 
ATOM     18  C   UNL     1       4.907   6.870  -3.102  0.00  0.00    +0.043 C 
ATOM     19  O   UNL     1       5.370   4.640  -3.920  0.00  0.00    -0.212 OA
ENDROOT
BRANCH   1  21
ATOM     20  C   UNL     1       3.867   4.573  -1.253  0.00  0.00    -0.012 C 
ATOM     21  C   UNL     1       3.998   4.866  -1.981  0.00  0.00    -0.049 C 
ENDBRANCH   1  21
BRANCH   2  22
ATOM     22  C   UNL     1       2.333   6.260  -3.511  0.00  0.00    +0.003 C 
ATOM     23  C   UNL     1       1.087   6.183  -2.940  0.00  0.00    +0.000 C 
ENDBRANCH   2  22
TORSDOF 2
ENDMDL
MODEL 7
REMARK VINA RESULT:      -7.7      2.558      7.479
REMARK  Name = 
REMARK  2 active torsions:
REMARK  status: ('A' for Active; 'I' for Inactive)
REMARK    1  A    between atoms: C_2  and  C_3
REMARK    2  A    between atoms: C_21  and  C_22
REMARK                            x       y       z     vdW  Elec       q    Type
REMARK                         _______ _______ _______ _____ _____    ______ ____
ROOT
ATOM      1  C   UNL     1       2.359   6.181  -5.577  0.00  0.00    +0.180 C 
ATOM      2  C   UNL     1       2.631   6.122  -7.090  0.00  0.00    +0.037 C 
ATOM      3  C   UNL     1       1.350   5.143  -7.223  0.00  0.00    +0.003 C 
ATOM      4  C   UNL     1       1.453   4.639  -8.837  0.00  0.00    +0.001 C 
ATOM      5  C   UNL     1       0.505   5.998  -9.192  0.00  0.00    +0.004 C 
ATOM      6  C   UNL     1       1.632   7.144  -9.199  0.00  0.00    +0.000 C 
ATOM      7  C   UNL     1       0.413   5.681 -10.855  0.00  0.00    +0.019 C 
ATOM      8  C   UNL     1       1.939   5.927 -11.250  0.00  0.00    -0.042 C 
ATOM      9  C   UNL     1       1.986   5.912 -12.590  0.00  0.00    +0.029 C 
ATOM     10  C   UNL     1       0.981   6.619 -13.347  0.00  0.00    +0.173 C 
ATOM     11  C   UNL     1      -0.001   7.434 -12.619  0.00  0.00    +0.069 C 
ATOM     12  O   UNL     1       1.002   6.552 -14.589  0.00  0.00    -0.291 OA
ATOM     13  C   UNL     1       2.923   4.920 -10.724  0.00  0.00    +0.022 C 
ATOM     14  C   UNL     1      -0.002   7.226 -11.150  0.00  0.00    +0.012 C 
ATOM     15  C   UNL     1       2.893   5.180  -9.273  0.00  0.00    +0.004 C 
ATOM     16  C   UNL     1       2.240   3.949  -6.572  0.00  0.00    +0.004 C 
ATOM     17  C   UNL     1       2.196   7.311  -7.838  0.00  0.00    +0.003 C 
ATOM     18  C   UNL     1       2.236   4.693  -5.234  0.00  0.00    +0.043 C 
ATOM     19  O   UNL     1       1.176   6.859  -5.433  0.00  0.00    -0.212 OA
ENDROOT
BRANCH   1  21
ATOM     20  C   UNL     1       4.017   7.164  -4.388  0.00  0.00    -0.012 C 
ATOM     21  C   UNL     1       3.488   6.786  -4.846  0.00  0.00    -0.049 C 
ENDBRANCH   1  21
BRANCH   2  22
ATOM     22  C   UNL     1       3.877   5.551  -7.166  0.00  0.00    +0.003 C 
ATOM     23  C   UNL     1       5.139   5.674  -7.695  0.00  0.00    +0.000 C 
ENDBRANCH   2  22
TORSDOF 2
ENDMDL
MODEL 8
REMARK VINA RESULT:      -7.7      3.804      7.698
REMARK  Name = 
REMARK  2 active torsions:
REMARK  status: ('A' for Active; 'I' for Inactive)
REMARK    1  A    between atoms: C_2  and  C_3
REMARK    2  A    between atoms: C_21  and  C_22
REMARK                            x       y       z     vdW  Elec       q    Type
REMARK                         _______ _______ _______ _____ _____    ______ ____
ROOT
ATOM      1  C   UNL     1       2.711   5.509  -7.010  0.00  0.00    +0.180 C 
ATOM      2  C   UNL     1       2.969   5.394  -8.523  0.00  0.00    +0.037 C 
ATOM      3  C   UNL     1       3.618   6.876  -8.464  0.00  0.00    +0.003 C 
ATOM      4  C   UNL     1       3.845   7.230 -10.105  0.00  0.00    +0.001 C 
ATOM      5  C   UNL     1       5.367   6.510  -9.922  0.00  0.00    +0.004 C 
ATOM      6  C   UNL     1       4.968   4.957 -10.039  0.00  0.00    +0.000 C 
ATOM      7  C   UNL     1       5.856   6.797 -11.520  0.00  0.00    +0.019 C 
ATOM      8  C   UNL     1       4.847   5.822 -12.280  0.00  0.00    -0.042 C 
ATOM      9  C   UNL     1       5.253   5.784 -13.557  0.00  0.00    +0.029 C 
ATOM     10  C   UNL     1       6.658   5.650 -13.856  0.00  0.00    +0.173 C 
ATOM     11  C   UNL     1       7.595   5.441 -12.744  0.00  0.00    +0.069 C 
ATOM     12  O   UNL     1       7.027   5.673 -15.044  0.00  0.00    -0.291 OA
ATOM     13  C   UNL     1       3.399   6.223 -12.246  0.00  0.00    +0.022 C 
ATOM     14  C   UNL     1       7.006   5.652 -11.399  0.00  0.00    +0.012 C 
ATOM     15  C   UNL     1       3.055   6.040 -10.824  0.00  0.00    +0.004 C 
ATOM     16  C   UNL     1       2.119   7.488  -8.321  0.00  0.00    +0.004 C 
ATOM     17  C   UNL     1       4.124   4.560  -8.887  0.00  0.00    +0.003 C 
ATOM     18  C   UNL     1       2.014   6.870  -6.924  0.00  0.00    +0.043 C 
ATOM     19  O   UNL     1       3.947   5.505  -6.416  0.00  0.00    -0.212 OA
ENDROOT
BRANCH   1  21
ATOM     20  C   UNL     1       1.336   3.916  -6.172  0.00  0.00    -0.012 C 
ATOM     21  C   UNL     1       1.815   4.440  -6.531  0.00  0.00    -0.049 C 
ENDBRANCH   1  21
BRANCH   2  22
ATOM     22  C   UNL     1       1.708   5.275  -9.051  0.00  0.00    +0.003 C 
ATOM     23  C   UNL     1       0.888   4.504  -9.839  0.00  0.00    +0.000 C 
ENDBRANCH   2  22
TORSDOF 2
ENDMDL
MODEL 9
REMARK VINA RESULT:      -7.7      1.552      6.312
REMARK  Name = 
REMARK  2 active torsions:
REMARK  status: ('A' for Active; 'I' for Inactive)
REMARK    1  A    between atoms: C_2  and  C_3
REMARK    2  A    between atoms: C_21  and  C_22
REMARK                            x       y       z     vdW  Elec       q    Type
REMARK                         _______ _______ _______ _____ _____    ______ ____
ROOT
ATOM      1  C   UNL     1       3.011   6.527  -2.072  0.00  0.00    +0.180 C 
ATOM      2  C   UNL     1       3.189   6.580  -3.599  0.00  0.00    +0.037 C 
ATOM      3  C   UNL     1       2.877   4.992  -3.632  0.00  0.00    +0.003 C 
ATOM      4  C   UNL     1       3.221   4.595  -5.242  0.00  0.00    +0.001 C 
ATOM      5  C   UNL     1       1.596   4.964  -5.549  0.00  0.00    +0.004 C 
ATOM      6  C   UNL     1       1.677   6.567  -5.648  0.00  0.00    +0.000 C 
ATOM      7  C   UNL     1       1.668   4.575  -7.198  0.00  0.00    +0.019 C 
ATOM      8  C   UNL     1       2.628   5.747  -7.700  0.00  0.00    -0.042 C 
ATOM      9  C   UNL     1       2.616   5.693  -9.039  0.00  0.00    +0.029 C 
ATOM     10  C   UNL     1       1.365   5.515  -9.735  0.00  0.00    +0.173 C 
ATOM     11  C   UNL     1       0.121   5.515  -8.953  0.00  0.00    +0.069 C 
ATOM     12  O   UNL     1       1.373   5.410 -10.975  0.00  0.00    -0.291 OA
ATOM     13  C   UNL     1       4.052   5.673  -7.228  0.00  0.00    +0.022 C 
ATOM     14  C   UNL     1       0.320   5.440  -7.485  0.00  0.00    +0.012 C 
ATOM     15  C   UNL     1       3.919   5.928  -5.782  0.00  0.00    +0.004 C 
ATOM     16  C   UNL     1       4.361   4.724  -3.027  0.00  0.00    +0.004 C 
ATOM     17  C   UNL     1       2.044   7.140  -4.332  0.00  0.00    +0.003 C 
ATOM     18  C   UNL     1       3.921   5.352  -1.701  0.00  0.00    +0.043 C 
ATOM     19  O   UNL     1       1.683   6.260  -1.856  0.00  0.00    -0.212 OA
ENDROOT
BRANCH   1  21
ATOM     20  C   UNL     1       3.663   8.411  -0.998  0.00  0.00    -0.012 C 
ATOM     21  C   UNL     1       3.483   7.767  -1.428  0.00  0.00    -0.049 C 
ENDBRANCH   1  21
BRANCH   2  22
ATOM     22  C   UNL     1       4.496   6.973  -3.752  0.00  0.00    +0.003 C 
ATOM     23  C   UNL     1       5.323   7.975  -4.197  0.00  0.00    +0.000 C 
ENDBRANCH   2  22
TORSDOF 2
ENDMDL
