MODEL 1
REMARK VINA RESULT:      -9.7      0.000      0.000
REMARK  Name = 
REMARK  10 active torsions:
REMARK  status: ('A' for Active; 'I' for Inactive)
REMARK    1  A    between atoms: C_8  and  C_9
REMARK    2  A    between atoms: N_11  and  C_12
REMARK    3  A    between atoms: C_12  and  C_13
REMARK    4  A    between atoms: C_12  and  C_21
REMARK    5  A    between atoms: C_13  and  S_14
REMARK    6  A    between atoms: S_14  and  C_15
REMARK    7  A    between atoms: C_21  and  C_23
REMARK    8  A    between atoms: C_23  and  N_24
REMARK    9  A    between atoms: C_33  and  C_34
REMARK   10  A    between atoms: N_36  and  C_37
REMARK                            x       y       z     vdW  Elec       q    Type
REMARK                         _______ _______ _______ _____ _____    ______ ____
ROOT
ATOM      1  C   UNL     1       1.873   6.270 -11.203  0.00  0.00    +0.138 C 
ENDROOT
BRANCH   1   3
ATOM      2  C   UNL     1       4.336   6.748 -10.698  0.00  0.00    +0.265 C 
ATOM      3  N   UNL     1       3.390   6.231 -11.561  0.00  0.00    -0.200 NA
ATOM      4  O   UNL     1       4.051   7.935 -10.348  0.00  0.00    -0.268 OA
BRANCH   2   7
ATOM      5  C   UNL     1       6.421   7.188 -12.560  0.00  0.00    +0.035 C 
ATOM      6  C   UNL     1       6.626   6.663 -11.386  0.00  0.00    +0.021 A 
ATOM      7  C   UNL     1       5.681   6.309 -10.437  0.00  0.00    +0.054 A 
ATOM      8  C   UNL     1       5.960   5.699  -9.254  0.00  0.00    +0.004 A 
ATOM      9  C   UNL     1       7.269   5.325  -9.050  0.00  0.00    +0.003 A 
ATOM     10  C   UNL     1       8.176   5.335 -10.100  0.00  0.00    +0.042 A 
ATOM     11  C   UNL     1       7.902   6.144 -11.191  0.00  0.00    +0.192 A 
ATOM     12  O   UNL     1       8.731   5.992 -12.305  0.00  0.00    -0.287 OA
ENDBRANCH   2   7
ENDBRANCH   1   3
BRANCH   1  13
ATOM     13  C   UNL     1       1.939   5.010 -10.038  0.00  0.00    +0.188 C 
ATOM     14  O   UNL     1       0.716   4.234 -10.450  0.00  0.00    -0.220 OA
BRANCH  13  15
ATOM     15  C   UNL     1       1.064   5.941  -9.022  0.00  0.00    +0.108 C 
BRANCH  15  16
ATOM     16  N   UNL     1       1.853   6.022  -7.902  0.00  0.00    -0.264 NA
ATOM     17  C   UNL     1       1.355   4.727  -7.156  0.00  0.00    +0.137 C 
ATOM     18  C   UNL     1       2.369   4.942  -5.877  0.00  0.00    +0.025 C 
ATOM     19  C   UNL     1       3.674   5.551  -6.630  0.00  0.00    +0.003 C 
ATOM     20  C   UNL     1       3.299   7.169  -6.259  0.00  0.00    +0.016 C 
ATOM     21  C   UNL     1       2.583   6.977  -4.826  0.00  0.00    +0.001 C 
ATOM     22  C   UNL     1       3.482   6.406  -3.812  0.00  0.00    +0.000 C 
ATOM     23  C   UNL     1       4.830   6.319  -4.481  0.00  0.00    +0.000 C 
ATOM     24  C   UNL     1       4.710   5.241  -5.439  0.00  0.00    +0.000 C 
ATOM     25  C   UNL     1       1.874   7.103  -7.040  0.00  0.00    +0.072 C 
BRANCH  17  26
ATOM     26  C   UNL     1       0.136   5.491  -6.438  0.00  0.00    +0.256 C 
ATOM     27  N   UNL     1      -0.151   5.046  -5.103  0.00  0.00    -0.208 NA
ATOM     28  O   UNL     1      -0.879   5.738  -7.118  0.00  0.00    -0.272 OA
BRANCH  27  29
ATOM     29  C   UNL     1      -0.837   6.084  -4.328  0.00  0.00    +0.079 C 
ATOM     30  C   UNL     1      -0.691   7.426  -4.979  0.00  0.00    +0.022 C 
ATOM     31  C   UNL     1      -0.248   6.075  -2.930  0.00  0.00    +0.022 C 
ATOM     32  C   UNL     1      -2.272   5.619  -4.203  0.00  0.00    +0.022 C 
ENDBRANCH  27  29
ENDBRANCH  17  26
ENDBRANCH  15  16
ENDBRANCH  13  15
ENDBRANCH   1  13
BRANCH   1  33
ATOM     33  C   UNL     1       1.465   5.370 -12.493  0.00  0.00    +0.086 C 
BRANCH  33  34
ATOM     34  S   UNL     1       2.505   5.840 -13.844  0.00  0.00    -0.112 S 
BRANCH  34  35
ATOM     35  C   UNL     1       1.510   6.838 -14.972  0.00  0.00    +0.025 A 
ATOM     36  C   UNL     1       2.173   7.744 -15.759  0.00  0.00    +0.006 A 
ATOM     37  C   UNL     1       1.484   8.660 -16.516  0.00  0.00    +0.001 A 
ATOM     38  C   UNL     1       0.112   8.479 -16.640  0.00  0.00    +0.000 A 
ATOM     39  C   UNL     1      -0.477   7.334 -16.122  0.00  0.00    +0.001 A 
ATOM     40  C   UNL     1       0.229   6.441 -15.344  0.00  0.00    +0.006 A 
ENDBRANCH  34  35
ENDBRANCH  33  34
ENDBRANCH   1  33
TORSDOF 10
ENDMDL
MODEL 2
REMARK VINA RESULT:      -9.6      3.207      9.843
REMARK  Name = 
REMARK  10 active torsions:
REMARK  status: ('A' for Active; 'I' for Inactive)
REMARK    1  A    between atoms: C_8  and  C_9
REMARK    2  A    between atoms: N_11  and  C_12
REMARK    3  A    between atoms: C_12  and  C_13
REMARK    4  A    between atoms: C_12  and  C_21
REMARK    5  A    between atoms: C_13  and  S_14
REMARK    6  A    between atoms: S_14  and  C_15
REMARK    7  A    between atoms: C_21  and  C_23
REMARK    8  A    between atoms: C_23  and  N_24
REMARK    9  A    between atoms: C_33  and  C_34
REMARK   10  A    between atoms: N_36  and  C_37
REMARK                            x       y       z     vdW  Elec       q    Type
REMARK                         _______ _______ _______ _____ _____    ______ ____
ROOT
ATOM      1  C   UNL     1       3.211   6.652  -4.502  0.00  0.00    +0.138 C 
ENDROOT
BRANCH   1   3
ATOM      2  C   UNL     1       0.704   6.791  -4.997  0.00  0.00    +0.265 C 
ATOM      3  N   UNL     1       1.714   6.651  -4.066  0.00  0.00    -0.200 NA
ATOM      4  O   UNL     1       0.890   7.803  -5.741  0.00  0.00    -0.268 OA
BRANCH   2   7
ATOM      5  C   UNL     1      -0.701   6.226  -2.607  0.00  0.00    +0.035 C 
ATOM      6  C   UNL     1      -1.229   6.068  -3.786  0.00  0.00    +0.021 A 
ATOM      7  C   UNL     1      -0.613   6.214  -5.020  0.00  0.00    +0.054 A 
ATOM      8  C   UNL     1      -1.208   5.966  -6.217  0.00  0.00    +0.004 A 
ATOM      9  C   UNL     1      -2.478   5.438  -6.175  0.00  0.00    +0.003 A 
ATOM     10  C   UNL     1      -2.998   4.948  -4.985  0.00  0.00    +0.042 A 
ATOM     11  C   UNL     1      -2.454   5.409  -3.797  0.00  0.00    +0.192 A 
ATOM     12  O   UNL     1      -2.866   4.763  -2.629  0.00  0.00    -0.287 OA
ENDBRANCH   2   7
ENDBRANCH   1   3
BRANCH   1  13
ATOM     13  C   UNL     1       3.154   5.140  -5.316  0.00  0.00    +0.188 C 
ATOM     14  O   UNL     1       4.386   4.503  -4.729  0.00  0.00    -0.220 OA
BRANCH  13  15
ATOM     15  C   UNL     1       4.018   5.797  -6.535  0.00  0.00    +0.108 C 
BRANCH  15  16
ATOM     16  N   UNL     1       3.121   5.842  -7.574  0.00  0.00    -0.264 NA
ATOM     17  C   UNL     1       3.578   4.550  -8.350  0.00  0.00    +0.137 C 
ATOM     18  C   UNL     1       2.438   4.722  -9.526  0.00  0.00    +0.025 C 
ATOM     19  C   UNL     1       1.198   5.308  -8.655  0.00  0.00    +0.003 C 
ATOM     20  C   UNL     1       1.491   6.930  -9.079  0.00  0.00    +0.016 C 
ATOM     21  C   UNL     1       2.069   6.735 -10.573  0.00  0.00    +0.001 C 
ATOM     22  C   UNL     1       1.090   6.128 -11.489  0.00  0.00    +0.000 C 
ATOM     23  C   UNL     1      -0.183   6.016 -10.690  0.00  0.00    +0.000 C 
ATOM     24  C   UNL     1       0.059   4.955  -9.736  0.00  0.00    +0.000 C 
ATOM     25  C   UNL     1       2.987   6.911  -8.442  0.00  0.00    +0.072 C 
BRANCH  17  26
ATOM     26  C   UNL     1       4.700   5.335  -9.193  0.00  0.00    +0.256 C 
ATOM     27  N   UNL     1       4.838   4.907 -10.557  0.00  0.00    -0.208 NA
ATOM     28  O   UNL     1       5.783   5.586  -8.629  0.00  0.00    -0.272 OA
BRANCH  27  29
ATOM     29  C   UNL     1       5.422   5.960 -11.392  0.00  0.00    +0.079 C 
ATOM     30  C   UNL     1       5.289   7.302 -10.738  0.00  0.00    +0.022 C 
ATOM     31  C   UNL     1       4.716   5.922 -12.735  0.00  0.00    +0.022 C 
ATOM     32  C   UNL     1       6.856   5.540 -11.638  0.00  0.00    +0.022 C 
ENDBRANCH  27  29
ENDBRANCH  17  26
ENDBRANCH  15  16
ENDBRANCH  13  15
ENDBRANCH   1  13
BRANCH   1  33
ATOM     33  C   UNL     1       3.714   6.115  -3.053  0.00  0.00    +0.086 C 
BRANCH  33  34
ATOM     34  S   UNL     1       4.624   7.413  -2.269  0.00  0.00    -0.112 S 
BRANCH  34  35
ATOM     35  C   UNL     1       3.551   8.149  -1.019  0.00  0.00    +0.025 A 
ATOM     36  C   UNL     1       3.567   9.516  -0.904  0.00  0.00    +0.006 A 
ATOM     37  C   UNL     1       2.918  10.145   0.129  0.00  0.00    +0.001 A 
ATOM     38  C   UNL     1       2.056   9.377   0.902  0.00  0.00    +0.000 A 
ATOM     39  C   UNL     1       1.785   8.068   0.528  0.00  0.00    +0.001 A 
ATOM     40  C   UNL     1       2.468   7.448  -0.497  0.00  0.00    +0.006 A 
ENDBRANCH  34  35
ENDBRANCH  33  34
ENDBRANCH   1  33
TORSDOF 10
ENDMDL
MODEL 3
REMARK VINA RESULT:      -9.0      1.313      3.136
REMARK  Name = 
REMARK  10 active torsions:
REMARK  status: ('A' for Active; 'I' for Inactive)
REMARK    1  A    between atoms: C_8  and  C_9
REMARK    2  A    between atoms: N_11  and  C_12
REMARK    3  A    between atoms: C_12  and  C_13
REMARK    4  A    between atoms: C_12  and  C_21
REMARK    5  A    between atoms: C_13  and  S_14
REMARK    6  A    between atoms: S_14  and  C_15
REMARK    7  A    between atoms: C_21  and  C_23
REMARK    8  A    between atoms: C_23  and  N_24
REMARK    9  A    between atoms: C_33  and  C_34
REMARK   10  A    between atoms: N_36  and  C_37
REMARK                            x       y       z     vdW  Elec       q    Type
REMARK                         _______ _______ _______ _____ _____    ______ ____
ROOT
ATOM      1  C   UNL     1       1.450   5.983 -10.959  0.00  0.00    +0.138 C 
ENDROOT
BRANCH   1   3
ATOM      2  C   UNL     1       3.960   6.291 -11.353  0.00  0.00    +0.265 C 
ATOM      3  N   UNL     1       2.855   5.465 -11.395  0.00  0.00    -0.200 NA
ATOM      4  O   UNL     1       3.747   7.389 -11.955  0.00  0.00    -0.268 OA
BRANCH   2   7
ATOM      5  C   UNL     1       5.800   5.660 -13.407  0.00  0.00    +0.035 C 
ATOM      6  C   UNL     1       6.152   5.774 -12.159  0.00  0.00    +0.021 A 
ATOM      7  C   UNL     1       5.333   5.978 -11.059  0.00  0.00    +0.054 A 
ATOM      8  C   UNL     1       5.762   6.019  -9.770  0.00  0.00    +0.004 A 
ATOM      9  C   UNL     1       7.091   5.735  -9.555  0.00  0.00    +0.003 A 
ATOM     10  C   UNL     1       7.866   5.184 -10.566  0.00  0.00    +0.042 A 
ATOM     11  C   UNL     1       7.450   5.361 -11.876  0.00  0.00    +0.192 A 
ATOM     12  O   UNL     1       8.143   4.642 -12.853  0.00  0.00    -0.287 OA
ENDBRANCH   2   7
ENDBRANCH   1   3
BRANCH   1  13
ATOM     13  C   UNL     1       1.258   4.881  -9.655  0.00  0.00    +0.188 C 
ATOM     14  O   UNL     1      -0.089   5.331  -9.154  0.00  0.00    -0.220 OA
BRANCH  13  15
ATOM     15  C   UNL     1       2.027   5.942  -8.682  0.00  0.00    +0.108 C 
BRANCH  15  16
ATOM     16  N   UNL     1       1.321   5.869  -7.508  0.00  0.00    -0.264 NA
ATOM     17  C   UNL     1       1.694   7.275  -6.906  0.00  0.00    +0.137 C 
ATOM     18  C   UNL     1       0.792   7.056  -5.548  0.00  0.00    +0.025 C 
ATOM     19  C   UNL     1      -0.468   6.229  -6.157  0.00  0.00    +0.003 C 
ATOM     20  C   UNL     1       0.128   4.708  -5.681  0.00  0.00    +0.016 C 
ATOM     21  C   UNL     1       0.896   5.113  -4.321  0.00  0.00    +0.001 C 
ATOM     22  C   UNL     1      -0.007   5.660  -3.297  0.00  0.00    +0.000 C 
ATOM     23  C   UNL     1      -1.392   5.524  -3.877  0.00  0.00    +0.000 C 
ATOM     24  C   UNL     1      -1.464   6.518  -4.926  0.00  0.00    +0.000 C 
ATOM     25  C   UNL     1       1.486   4.874  -6.560  0.00  0.00    +0.072 C 
BRANCH  17  26
ATOM     26  C   UNL     1       3.039   6.731  -6.214  0.00  0.00    +0.256 C 
ATOM     27  N   UNL     1       3.466   7.474  -5.061  0.00  0.00    -0.208 NA
ATOM     28  O   UNL     1       3.973   6.369  -6.957  0.00  0.00    -0.272 OA
BRANCH  27  29
ATOM     29  C   UNL     1       4.308   6.659  -4.180  0.00  0.00    +0.079 C 
ATOM     30  C   UNL     1       4.340   5.232  -4.636  0.00  0.00    +0.022 C 
ATOM     31  C   UNL     1       3.752   6.782  -2.774  0.00  0.00    +0.022 C 
ATOM     32  C   UNL     1       5.665   7.330  -4.175  0.00  0.00    +0.022 C 
ENDBRANCH  27  29
ENDBRANCH  17  26
ENDBRANCH  15  16
ENDBRANCH  13  15
ENDBRANCH   1  13
BRANCH   1  33
ATOM     33  C   UNL     1       0.689   5.119 -12.105  0.00  0.00    +0.086 C 
BRANCH  33  34
ATOM     34  S   UNL     1       1.800   4.906 -13.464  0.00  0.00    -0.112 S 
BRANCH  34  35
ATOM     35  C   UNL     1       1.427   6.192 -14.676  0.00  0.00    +0.025 A 
ATOM     36  C   UNL     1       0.112   6.554 -14.822  0.00  0.00    +0.006 A 
ATOM     37  C   UNL     1      -0.281   7.393 -15.835  0.00  0.00    +0.001 A 
ATOM     38  C   UNL     1       0.720   8.043 -16.547  0.00  0.00    +0.000 A 
ATOM     39  C   UNL     1       2.039   7.930 -16.131  0.00  0.00    +0.001 A 
ATOM     40  C   UNL     1       2.414   7.062 -15.128  0.00  0.00    +0.006 A 
ENDBRANCH  34  35
ENDBRANCH  33  34
ENDBRANCH   1  33
TORSDOF 10
ENDMDL
MODEL 4
REMARK VINA RESULT:      -9.0      3.135      9.664
REMARK  Name = 
REMARK  10 active torsions:
REMARK  status: ('A' for Active; 'I' for Inactive)
REMARK    1  A    between atoms: C_8  and  C_9
REMARK    2  A    between atoms: N_11  and  C_12
REMARK    3  A    between atoms: C_12  and  C_13
REMARK    4  A    between atoms: C_12  and  C_21
REMARK    5  A    between atoms: C_13  and  S_14
REMARK    6  A    between atoms: S_14  and  C_15
REMARK    7  A    between atoms: C_21  and  C_23
REMARK    8  A    between atoms: C_23  and  N_24
REMARK    9  A    between atoms: C_33  and  C_34
REMARK   10  A    between atoms: N_36  and  C_37
REMARK                            x       y       z     vdW  Elec       q    Type
REMARK                         _______ _______ _______ _____ _____    ______ ____
ROOT
ATOM      1  C   UNL     1       2.987   5.844  -4.183  0.00  0.00    +0.138 C 
ENDROOT
BRANCH   1   3
ATOM      2  C   UNL     1       0.658   6.001  -3.134  0.00  0.00    +0.265 C 
ATOM      3  N   UNL     1       1.563   5.281  -3.889  0.00  0.00    -0.200 NA
ATOM      4  O   UNL     1       1.162   6.376  -2.030  0.00  0.00    -0.268 OA
BRANCH   2   7
ATOM      5  C   UNL     1      -0.585   7.379  -5.270  0.00  0.00    +0.035 C 
ATOM      6  C   UNL     1      -1.258   6.706  -4.381  0.00  0.00    +0.021 A 
ATOM      7  C   UNL     1      -0.774   6.080  -3.243  0.00  0.00    +0.054 A 
ATOM      8  C   UNL     1      -1.546   5.451  -2.317  0.00  0.00    +0.004 A 
ATOM      9  C   UNL     1      -2.908   5.540  -2.488  0.00  0.00    +0.003 A 
ATOM     10  C   UNL     1      -3.445   6.440  -3.398  0.00  0.00    +0.042 A 
ATOM     11  C   UNL     1      -2.637   6.882  -4.433  0.00  0.00    +0.192 A 
ATOM     12  O   UNL     1      -3.141   7.922  -5.218  0.00  0.00    -0.287 OA
ENDBRANCH   2   7
ENDBRANCH   1   3
BRANCH   1  13
ATOM     13  C   UNL     1       3.324   4.784  -5.492  0.00  0.00    +0.188 C 
ATOM     14  O   UNL     1       4.662   5.334  -5.910  0.00  0.00    -0.220 OA
BRANCH  13  15
ATOM     15  C   UNL     1       2.538   5.809  -6.489  0.00  0.00    +0.108 C 
BRANCH  15  16
ATOM     16  N   UNL     1       3.274   5.757  -7.646  0.00  0.00    -0.264 NA
ATOM     17  C   UNL     1       2.855   7.142  -8.268  0.00  0.00    +0.137 C 
ATOM     18  C   UNL     1       3.798   6.951  -9.603  0.00  0.00    +0.025 C 
ATOM     19  C   UNL     1       5.077   6.184  -8.958  0.00  0.00    +0.003 C 
ATOM     20  C   UNL     1       4.558   4.635  -9.434  0.00  0.00    +0.016 C 
ATOM     21  C   UNL     1       3.806   4.996 -10.815  0.00  0.00    +0.001 C 
ATOM     22  C   UNL     1       4.708   5.574 -11.822  0.00  0.00    +0.000 C 
ATOM     23  C   UNL     1       6.084   5.502 -11.209  0.00  0.00    +0.000 C 
ATOM     24  C   UNL     1       6.088   6.507 -10.168  0.00  0.00    +0.000 C 
ATOM     25  C   UNL     1       3.174   4.749  -8.588  0.00  0.00    +0.072 C 
BRANCH  17  26
ATOM     26  C   UNL     1       1.551   6.534  -8.987  0.00  0.00    +0.256 C 
ATOM     27  N   UNL     1       1.160   7.208 -10.194  0.00  0.00    -0.208 NA
ATOM     28  O   UNL     1       0.593   6.192  -8.266  0.00  0.00    -0.272 OA
BRANCH  27  29
ATOM     29  C   UNL     1       0.372   6.331 -11.065  0.00  0.00    +0.079 C 
ATOM     30  C   UNL     1       0.232   4.964 -10.468  0.00  0.00    +0.022 C 
ATOM     31  C   UNL     1       1.068   6.282 -12.413  0.00  0.00    +0.022 C 
ATOM     32  C   UNL     1      -0.947   7.044 -11.278  0.00  0.00    +0.022 C 
ENDBRANCH  27  29
ENDBRANCH  17  26
ENDBRANCH  15  16
ENDBRANCH  13  15
ENDBRANCH   1  13
BRANCH   1  33
ATOM     33  C   UNL     1       3.664   4.968  -2.995  0.00  0.00    +0.086 C 
BRANCH  33  34
ATOM     34  S   UNL     1       5.052   5.866  -2.368  0.00  0.00    -0.112 S 
BRANCH  34  35
ATOM     35  C   UNL     1       4.424   7.082  -1.191  0.00  0.00    +0.025 A 
ATOM     36  C   UNL     1       4.716   6.882   0.134  0.00  0.00    +0.006 A 
ATOM     37  C   UNL     1       4.137   7.655   1.109  0.00  0.00    +0.001 A 
ATOM     38  C   UNL     1       3.443   8.786   0.697  0.00  0.00    +0.000 A 
ATOM     39  C   UNL     1       3.475   9.159  -0.640  0.00  0.00    +0.001 A 
ATOM     40  C   UNL     1       4.040   8.354  -1.606  0.00  0.00    +0.006 A 
ENDBRANCH  34  35
ENDBRANCH  33  34
ENDBRANCH   1  33
TORSDOF 10
ENDMDL
MODEL 5
REMARK VINA RESULT:      -8.7      3.899      9.777
REMARK  Name = 
REMARK  10 active torsions:
REMARK  status: ('A' for Active; 'I' for Inactive)
REMARK    1  A    between atoms: C_8  and  C_9
REMARK    2  A    between atoms: N_11  and  C_12
REMARK    3  A    between atoms: C_12  and  C_13
REMARK    4  A    between atoms: C_12  and  C_21
REMARK    5  A    between atoms: C_13  and  S_14
REMARK    6  A    between atoms: S_14  and  C_15
REMARK    7  A    between atoms: C_21  and  C_23
REMARK    8  A    between atoms: C_23  and  N_24
REMARK    9  A    between atoms: C_33  and  C_34
REMARK   10  A    between atoms: N_36  and  C_37
REMARK                            x       y       z     vdW  Elec       q    Type
REMARK                         _______ _______ _______ _____ _____    ______ ____
ROOT
ATOM      1  C   UNL     1      -1.287   6.030  -3.427  0.00  0.00    +0.138 C 
ENDROOT
BRANCH   1   3
ATOM      2  C   UNL     1       0.753   5.577  -1.949  0.00  0.00    +0.265 C 
ATOM      3  N   UNL     1      -0.107   6.495  -2.520  0.00  0.00    -0.200 NA
ATOM      4  O   UNL     1       0.122   4.668  -1.328  0.00  0.00    -0.268 OA
BRANCH   2   7
ATOM      5  C   UNL     1       1.739   7.375   0.001  0.00  0.00    +0.035 C 
ATOM      6  C   UNL     1       2.506   6.536  -0.633  0.00  0.00    +0.021 A 
ATOM      7  C   UNL     1       2.160   5.685  -1.671  0.00  0.00    +0.054 A 
ATOM      8  C   UNL     1       3.031   4.880  -2.337  0.00  0.00    +0.004 A 
ATOM      9  C   UNL     1       4.361   5.010  -2.010  0.00  0.00    +0.003 A 
ATOM     10  C   UNL     1       4.796   6.081  -1.243  0.00  0.00    +0.042 A 
ATOM     11  C   UNL     1       3.870   6.725  -0.438  0.00  0.00    +0.192 A 
ATOM     12  O   UNL     1       4.292   7.908   0.175  0.00  0.00    -0.287 OA
ENDBRANCH   2   7
ENDBRANCH   1   3
BRANCH   1  13
ATOM     13  C   UNL     1      -0.905   7.058  -4.748  0.00  0.00    +0.188 C 
ATOM     14  O   UNL     1      -2.287   7.251  -5.314  0.00  0.00    -0.220 OA
BRANCH  13  15
ATOM     15  C   UNL     1      -0.660   5.734  -5.671  0.00  0.00    +0.108 C 
BRANCH  15  16
ATOM     16  N   UNL     1       0.701   5.713  -5.845  0.00  0.00    -0.264 NA
ATOM     17  C   UNL     1       0.857   7.010  -6.725  0.00  0.00    +0.137 C 
ATOM     18  C   UNL     1       2.493   6.867  -6.840  0.00  0.00    +0.025 C 
ATOM     19  C   UNL     1       2.845   6.283  -5.365  0.00  0.00    +0.003 C 
ATOM     20  C   UNL     1       2.938   4.664  -5.881  0.00  0.00    +0.016 C 
ATOM     21  C   UNL     1       3.502   4.872  -7.378  0.00  0.00    +0.001 C 
ATOM     22  C   UNL     1       4.831   5.501  -7.405  0.00  0.00    +0.000 C 
ATOM     23  C   UNL     1       5.244   5.617  -5.960  0.00  0.00    +0.000 C 
ATOM     24  C   UNL     1       4.409   6.662  -5.408  0.00  0.00    +0.000 C 
ATOM     25  C   UNL     1       1.398   4.658  -6.406  0.00  0.00    +0.072 C 
BRANCH  17  26
ATOM     26  C   UNL     1       0.598   6.224  -8.103  0.00  0.00    +0.256 C 
ATOM     27  N   UNL     1       1.174   6.841  -9.266  0.00  0.00    -0.208 NA
ATOM     28  O   UNL     1      -0.536   5.744  -8.296  0.00  0.00    -0.272 OA
BRANCH  27  29
ATOM     29  C   UNL     1       1.395   5.864 -10.336  0.00  0.00    +0.079 C 
ATOM     30  C   UNL     1       1.192   4.466  -9.839  0.00  0.00    +0.022 C 
ATOM     31  C   UNL     1       2.804   6.071 -10.860  0.00  0.00    +0.022 C 
ATOM     32  C   UNL     1       0.451   6.260 -11.452  0.00  0.00    +0.022 C 
ENDBRANCH  27  29
ENDBRANCH  17  26
ENDBRANCH  15  16
ENDBRANCH  13  15
ENDBRANCH   1  13
BRANCH   1  33
ATOM     33  C   UNL     1      -2.350   7.004  -2.677  0.00  0.00    +0.086 C 
BRANCH  33  34
ATOM     34  S   UNL     1      -2.879   6.203  -1.192  0.00  0.00    -0.112 S 
BRANCH  34  35
ATOM     35  C   UNL     1      -2.222   7.148   0.198  0.00  0.00    +0.025 A 
ATOM     36  C   UNL     1      -1.933   6.457   1.347  0.00  0.00    +0.006 A 
ATOM     37  C   UNL     1      -1.595   7.118   2.503  0.00  0.00    +0.001 A 
ATOM     38  C   UNL     1      -1.326   8.477   2.403  0.00  0.00    +0.000 A 
ATOM     39  C   UNL     1      -1.275   9.075   1.151  0.00  0.00    +0.001 A 
ATOM     40  C   UNL     1      -1.643   8.400   0.008  0.00  0.00    +0.006 A 
ENDBRANCH  34  35
ENDBRANCH  33  34
ENDBRANCH   1  33
TORSDOF 10
ENDMDL
MODEL 6
REMARK VINA RESULT:      -8.7      3.174      9.366
REMARK  Name = 
REMARK  10 active torsions:
REMARK  status: ('A' for Active; 'I' for Inactive)
REMARK    1  A    between atoms: C_8  and  C_9
REMARK    2  A    between atoms: N_11  and  C_12
REMARK    3  A    between atoms: C_12  and  C_13
REMARK    4  A    between atoms: C_12  and  C_21
REMARK    5  A    between atoms: C_13  and  S_14
REMARK    6  A    between atoms: S_14  and  C_15
REMARK    7  A    between atoms: C_21  and  C_23
REMARK    8  A    between atoms: C_23  and  N_24
REMARK    9  A    between atoms: C_33  and  C_34
REMARK   10  A    between atoms: N_36  and  C_37
REMARK                            x       y       z     vdW  Elec       q    Type
REMARK                         _______ _______ _______ _____ _____    ______ ____
ROOT
ATOM      1  C   UNL     1      -0.567   5.496  -4.970  0.00  0.00    +0.138 C 
ENDROOT
BRANCH   1   3
ATOM      2  C   UNL     1       1.360   5.845  -3.322  0.00  0.00    +0.265 C 
ATOM      3  N   UNL     1       0.386   6.399  -4.129  0.00  0.00    -0.200 NA
ATOM      4  O   UNL     1       0.879   4.962  -2.547  0.00  0.00    -0.268 OA
BRANCH   2   7
ATOM      5  C   UNL     1       1.942   6.954  -0.784  0.00  0.00    +0.035 C 
ATOM      6  C   UNL     1       2.853   6.769  -1.696  0.00  0.00    +0.021 A 
ATOM      7  C   UNL     1       2.674   6.332  -3.000  0.00  0.00    +0.054 A 
ATOM      8  C   UNL     1       3.666   6.226  -3.924  0.00  0.00    +0.004 A 
ATOM      9  C   UNL     1       4.908   6.685  -3.549  0.00  0.00    +0.003 A 
ATOM     10  C   UNL     1       5.059   7.446  -2.399  0.00  0.00    +0.042 A 
ATOM     11  C   UNL     1       4.088   7.342  -1.416  0.00  0.00    +0.192 A 
ATOM     12  O   UNL     1       4.169   8.253  -0.360  0.00  0.00    -0.287 OA
ENDBRANCH   2   7
ENDBRANCH   1   3
BRANCH   1  13
ATOM     13  C   UNL     1      -0.387   6.373  -6.436  0.00  0.00    +0.188 C 
ATOM     14  O   UNL     1      -1.385   5.632  -7.286  0.00  0.00    -0.220 OA
BRANCH  13  15
ATOM     15  C   UNL     1       0.811   5.351  -6.868  0.00  0.00    +0.108 C 
BRANCH  15  16
ATOM     16  N   UNL     1       0.817   5.426  -8.238  0.00  0.00    -0.264 NA
ATOM     17  C   UNL     1       1.700   4.161  -8.551  0.00  0.00    +0.137 C 
ATOM     18  C   UNL     1       1.610   4.367 -10.182  0.00  0.00    +0.025 C 
ATOM     19  C   UNL     1       0.091   4.922 -10.329  0.00  0.00    +0.003 C 
ATOM     20  C   UNL     1       0.554   6.557 -10.419  0.00  0.00    +0.016 C 
ATOM     21  C   UNL     1       1.975   6.411 -11.169  0.00  0.00    +0.001 C 
ATOM     22  C   UNL     1       1.853   5.831 -12.515  0.00  0.00    +0.000 C 
ATOM     23  C   UNL     1       0.371   5.691 -12.753  0.00  0.00    +0.000 C 
ATOM     24  C   UNL     1      -0.050   4.601 -11.900  0.00  0.00    +0.000 C 
ATOM     25  C   UNL     1       1.263   6.522  -8.956  0.00  0.00    +0.072 C 
BRANCH  17  26
ATOM     26  C   UNL     1       3.081   4.974  -8.430  0.00  0.00    +0.256 C 
ATOM     27  N   UNL     1       4.113   4.548  -9.334  0.00  0.00    -0.208 NA
ATOM     28  O   UNL     1       3.495   5.255  -7.288  0.00  0.00    -0.272 OA
BRANCH  27  29
ATOM     29  C   UNL     1       5.088   5.615  -9.577  0.00  0.00    +0.079 C 
ATOM     30  C   UNL     1       4.494   6.961  -9.293  0.00  0.00    +0.022 C 
ATOM     31  C   UNL     1       5.542   5.499 -11.020  0.00  0.00    +0.022 C 
ATOM     32  C   UNL     1       6.285   5.280  -8.712  0.00  0.00    +0.022 C 
ENDBRANCH  27  29
ENDBRANCH  17  26
ENDBRANCH  15  16
ENDBRANCH  13  15
ENDBRANCH   1  13
BRANCH   1  33
ATOM     33  C   UNL     1      -1.897   6.245  -4.414  0.00  0.00    +0.086 C 
BRANCH  33  34
ATOM     34  S   UNL     1      -2.488   5.349  -3.010  0.00  0.00    -0.112 S 
BRANCH  34  35
ATOM     35  C   UNL     1      -2.146   6.348  -1.546  0.00  0.00    +0.025 A 
ATOM     36  C   UNL     1      -1.875   5.680  -0.379  0.00  0.00    +0.006 A 
ATOM     37  C   UNL     1      -1.776   6.353   0.814  0.00  0.00    +0.001 A 
ATOM     38  C   UNL     1      -1.718   7.741   0.759  0.00  0.00    +0.000 A 
ATOM     39  C   UNL     1      -1.629   8.373  -0.474  0.00  0.00    +0.001 A 
ATOM     40  C   UNL     1      -1.758   7.680  -1.658  0.00  0.00    +0.006 A 
ENDBRANCH  34  35
ENDBRANCH  33  34
ENDBRANCH   1  33
TORSDOF 10
ENDMDL
MODEL 7
REMARK VINA RESULT:      -8.6      2.665      9.613
REMARK  Name = 
REMARK  10 active torsions:
REMARK  status: ('A' for Active; 'I' for Inactive)
REMARK    1  A    between atoms: C_8  and  C_9
REMARK    2  A    between atoms: N_11  and  C_12
REMARK    3  A    between atoms: C_12  and  C_13
REMARK    4  A    between atoms: C_12  and  C_21
REMARK    5  A    between atoms: C_13  and  S_14
REMARK    6  A    between atoms: S_14  and  C_15
REMARK    7  A    between atoms: C_21  and  C_23
REMARK    8  A    between atoms: C_23  and  N_24
REMARK    9  A    between atoms: C_33  and  C_34
REMARK   10  A    between atoms: N_36  and  C_37
REMARK                            x       y       z     vdW  Elec       q    Type
REMARK                         _______ _______ _______ _____ _____    ______ ____
ROOT
ATOM      1  C   UNL     1       3.456   6.308  -5.943  0.00  0.00    +0.138 C 
ENDROOT
BRANCH   1   3
ATOM      2  C   UNL     1       1.124   6.257  -4.891  0.00  0.00    +0.265 C 
ATOM      3  N   UNL     1       2.190   5.560  -5.425  0.00  0.00    -0.200 NA
ATOM      4  O   UNL     1       1.498   7.061  -3.983  0.00  0.00    -0.268 OA
BRANCH   2   7
ATOM      5  C   UNL     1      -0.349   5.570  -2.575  0.00  0.00    +0.035 C 
ATOM      6  C   UNL     1      -0.908   5.738  -3.739  0.00  0.00    +0.021 A 
ATOM      7  C   UNL     1      -0.285   5.974  -4.955  0.00  0.00    +0.054 A 
ATOM      8  C   UNL     1      -0.928   6.071  -6.150  0.00  0.00    +0.004 A 
ATOM      9  C   UNL     1      -2.280   5.815  -6.143  0.00  0.00    +0.003 A 
ATOM     10  C   UNL     1      -2.881   5.236  -5.034  0.00  0.00    +0.042 A 
ATOM     11  C   UNL     1      -2.243   5.355  -3.810  0.00  0.00    +0.192 A 
ATOM     12  O   UNL     1      -2.773   4.608  -2.755  0.00  0.00    -0.287 OA
ENDBRANCH   2   7
ENDBRANCH   1   3
BRANCH   1  13
ATOM     13  C   UNL     1       3.925   5.095  -7.065  0.00  0.00    +0.188 C 
ATOM     14  O   UNL     1       5.269   5.643  -7.468  0.00  0.00    -0.220 OA
BRANCH  13  15
ATOM     15  C   UNL     1       3.175   5.937  -8.246  0.00  0.00    +0.108 C 
BRANCH  15  16
ATOM     16  N   UNL     1       4.130   6.030  -9.227  0.00  0.00    -0.264 NA
ATOM     17  C   UNL     1       3.490   7.186 -10.085  0.00  0.00    +0.137 C 
ATOM     18  C   UNL     1       4.715   7.197 -11.183  0.00  0.00    +0.025 C 
ATOM     19  C   UNL     1       5.984   6.886 -10.218  0.00  0.00    +0.003 C 
ATOM     20  C   UNL     1       6.030   5.226 -10.588  0.00  0.00    +0.016 C 
ATOM     21  C   UNL     1       5.524   5.259 -12.119  0.00  0.00    +0.001 C 
ATOM     22  C   UNL     1       6.429   6.012 -13.002  0.00  0.00    +0.000 C 
ATOM     23  C   UNL     1       7.603   6.389 -12.136  0.00  0.00    +0.000 C 
ATOM     24  C   UNL     1       7.105   7.415 -11.245  0.00  0.00    +0.000 C 
ATOM     25  C   UNL     1       4.518   4.980 -10.039  0.00  0.00    +0.072 C 
BRANCH  17  26
ATOM     26  C   UNL     1       2.593   6.175 -10.956  0.00  0.00    +0.256 C 
ATOM     27  N   UNL     1       1.761   6.806 -11.942  0.00  0.00    -0.208 NA
ATOM     28  O   UNL     1       2.043   5.225 -10.364  0.00  0.00    -0.272 OA
BRANCH  27  29
ATOM     29  C   UNL     1       1.420   5.880 -13.026  0.00  0.00    +0.079 C 
ATOM     30  C   UNL     1       0.558   4.761 -12.527  0.00  0.00    +0.022 C 
ATOM     31  C   UNL     1       2.721   5.364 -13.612  0.00  0.00    +0.022 C 
ATOM     32  C   UNL     1       0.763   6.727 -14.096  0.00  0.00    +0.022 C 
ENDBRANCH  27  29
ENDBRANCH  17  26
ENDBRANCH  15  16
ENDBRANCH  13  15
ENDBRANCH   1  13
BRANCH   1  33
ATOM     33  C   UNL     1       4.357   5.817  -4.683  0.00  0.00    +0.086 C 
BRANCH  33  34
ATOM     34  S   UNL     1       5.157   7.234  -3.992  0.00  0.00    -0.112 S 
BRANCH  34  35
ATOM     35  C   UNL     1       4.592   7.396  -2.285  0.00  0.00    +0.025 A 
ATOM     36  C   UNL     1       3.907   8.538  -1.956  0.00  0.00    +0.006 A 
ATOM     37  C   UNL     1       3.594   8.822  -0.650  0.00  0.00    +0.001 A 
ATOM     38  C   UNL     1       3.779   7.810   0.284  0.00  0.00    +0.000 A 
ATOM     39  C   UNL     1       4.135   6.539  -0.146  0.00  0.00    +0.001 A 
ATOM     40  C   UNL     1       4.470   6.283  -1.459  0.00  0.00    +0.006 A 
ENDBRANCH  34  35
ENDBRANCH  33  34
ENDBRANCH   1  33
TORSDOF 10
ENDMDL
MODEL 8
REMARK VINA RESULT:      -8.6      3.123      9.942
REMARK  Name = 
REMARK  10 active torsions:
REMARK  status: ('A' for Active; 'I' for Inactive)
REMARK    1  A    between atoms: C_8  and  C_9
REMARK    2  A    between atoms: N_11  and  C_12
REMARK    3  A    between atoms: C_12  and  C_13
REMARK    4  A    between atoms: C_12  and  C_21
REMARK    5  A    between atoms: C_13  and  S_14
REMARK    6  A    between atoms: S_14  and  C_15
REMARK    7  A    between atoms: C_21  and  C_23
REMARK    8  A    between atoms: C_23  and  N_24
REMARK    9  A    between atoms: C_33  and  C_34
REMARK   10  A    between atoms: N_36  and  C_37
REMARK                            x       y       z     vdW  Elec       q    Type
REMARK                         _______ _______ _______ _____ _____    ______ ____
ROOT
ATOM      1  C   UNL     1       3.166   6.128  -4.595  0.00  0.00    +0.138 C 
ENDROOT
BRANCH   1   3
ATOM      2  C   UNL     1       0.775   6.129  -3.683  0.00  0.00    +0.265 C 
ATOM      3  N   UNL     1       1.884   5.407  -4.077  0.00  0.00    -0.200 NA
ATOM      4  O   UNL     1       1.078   7.032  -2.843  0.00  0.00    -0.268 OA
BRANCH   2   7
ATOM      5  C   UNL     1      -0.517   6.054  -6.199  0.00  0.00    +0.035 C 
ATOM      6  C   UNL     1      -1.114   5.715  -5.092  0.00  0.00    +0.021 A 
ATOM      7  C   UNL     1      -0.622   5.806  -3.799  0.00  0.00    +0.054 A 
ATOM      8  C   UNL     1      -1.327   5.497  -2.678  0.00  0.00    +0.004 A 
ATOM      9  C   UNL     1      -2.652   5.171  -2.856  0.00  0.00    +0.003 A 
ATOM     10  C   UNL     1      -3.278   5.407  -4.072  0.00  0.00    +0.042 A 
ATOM     11  C   UNL     1      -2.485   5.514  -5.204  0.00  0.00    +0.192 A 
ATOM     12  O   UNL     1      -3.122   5.934  -6.374  0.00  0.00    -0.287 OA
ENDBRANCH   2   7
ENDBRANCH   1   3
BRANCH   1  13
ATOM     13  C   UNL     1       3.643   4.879  -5.673  0.00  0.00    +0.188 C 
ATOM     14  O   UNL     1       5.037   4.634  -5.159  0.00  0.00    -0.220 OA
BRANCH  13  15
ATOM     15  C   UNL     1       4.175   6.019  -6.713  0.00  0.00    +0.108 C 
BRANCH  15  16
ATOM     16  N   UNL     1       3.284   5.943  -7.754  0.00  0.00    -0.264 NA
ATOM     17  C   UNL     1       3.848   4.659  -8.470  0.00  0.00    +0.137 C 
ATOM     18  C   UNL     1       2.705   4.684  -9.654  0.00  0.00    +0.025 C 
ATOM     19  C   UNL     1       1.417   5.206  -8.814  0.00  0.00    +0.003 C 
ATOM     20  C   UNL     1       1.580   6.826  -9.311  0.00  0.00    +0.016 C 
ATOM     21  C   UNL     1       2.179   6.612 -10.794  0.00  0.00    +0.001 C 
ATOM     22  C   UNL     1       1.259   5.886 -11.682  0.00  0.00    +0.000 C 
ATOM     23  C   UNL     1      -0.006   5.707 -10.881  0.00  0.00    +0.000 C 
ATOM     24  C   UNL     1       0.316   4.714  -9.880  0.00  0.00    +0.000 C 
ATOM     25  C   UNL     1       3.069   6.957  -8.671  0.00  0.00    +0.072 C 
BRANCH  17  26
ATOM     26  C   UNL     1       4.908   5.494  -9.345  0.00  0.00    +0.256 C 
ATOM     27  N   UNL     1       5.114   4.996 -10.677  0.00  0.00    -0.208 NA
ATOM     28  O   UNL     1       5.951   5.882  -8.784  0.00  0.00    -0.272 OA
BRANCH  27  29
ATOM     29  C   UNL     1       5.612   6.046 -11.570  0.00  0.00    +0.079 C 
ATOM     30  C   UNL     1       7.091   5.921 -11.776  0.00  0.00    +0.022 C 
ATOM     31  C   UNL     1       5.246   7.383 -10.953  0.00  0.00    +0.022 C 
ATOM     32  C   UNL     1       4.805   5.916 -12.845  0.00  0.00    +0.022 C 
ENDBRANCH  27  29
ENDBRANCH  17  26
ENDBRANCH  15  16
ENDBRANCH  13  15
ENDBRANCH   1  13
BRANCH   1  33
ATOM     33  C   UNL     1       4.041   5.667  -3.306  0.00  0.00    +0.086 C 
BRANCH  33  34
ATOM     34  S   UNL     1       5.040   7.035  -2.799  0.00  0.00    -0.112 S 
BRANCH  34  35
ATOM     35  C   UNL     1       4.377   7.637  -1.231  0.00  0.00    +0.025 A 
ATOM     36  C   UNL     1       4.888   7.090  -0.082  0.00  0.00    +0.006 A 
ATOM     37  C   UNL     1       4.325   7.361   1.140  0.00  0.00    +0.001 A 
ATOM     38  C   UNL     1       3.385   8.383   1.196  0.00  0.00    +0.000 A 
ATOM     39  C   UNL     1       3.157   9.164   0.071  0.00  0.00    +0.001 A 
ATOM     40  C   UNL     1       3.713   8.858  -1.152  0.00  0.00    +0.006 A 
ENDBRANCH  34  35
ENDBRANCH  33  34
ENDBRANCH   1  33
TORSDOF 10
ENDMDL
MODEL 9
REMARK VINA RESULT:      -8.3      2.378      5.739
REMARK  Name = 
REMARK  10 active torsions:
REMARK  status: ('A' for Active; 'I' for Inactive)
REMARK    1  A    between atoms: C_8  and  C_9
REMARK    2  A    between atoms: N_11  and  C_12
REMARK    3  A    between atoms: C_12  and  C_13
REMARK    4  A    between atoms: C_12  and  C_21
REMARK    5  A    between atoms: C_13  and  S_14
REMARK    6  A    between atoms: S_14  and  C_15
REMARK    7  A    between atoms: C_21  and  C_23
REMARK    8  A    between atoms: C_23  and  N_24
REMARK    9  A    between atoms: C_33  and  C_34
REMARK   10  A    between atoms: N_36  and  C_37
REMARK                            x       y       z     vdW  Elec       q    Type
REMARK                         _______ _______ _______ _____ _____    ______ ____
ROOT
ATOM      1  C   UNL     1       3.683   4.694  -8.414  0.00  0.00    +0.138 C 
ENDROOT
BRANCH   1   3
ATOM      2  C   UNL     1       1.806   5.093 -10.107  0.00  0.00    +0.265 C 
ATOM      3  N   UNL     1       3.151   5.167  -9.801  0.00  0.00    -0.200 NA
ATOM      4  O   UNL     1       1.339   3.933  -9.888  0.00  0.00    -0.268 OA
BRANCH   2   7
ATOM      5  C   UNL     1       2.436   5.602 -12.819  0.00  0.00    +0.035 C 
ATOM      6  C   UNL     1       1.360   6.063 -12.248  0.00  0.00    +0.021 A 
ATOM      7  C   UNL     1       0.997   5.967 -10.914  0.00  0.00    +0.054 A 
ATOM      8  C   UNL     1      -0.112   6.534 -10.369  0.00  0.00    +0.004 A 
ATOM      9  C   UNL     1      -0.860   7.340 -11.197  0.00  0.00    +0.003 A 
ATOM     10  C   UNL     1      -0.357   7.749 -12.424  0.00  0.00    +0.042 A 
ATOM     11  C   UNL     1       0.649   6.991 -13.002  0.00  0.00    +0.192 A 
ATOM     12  O   UNL     1       1.261   7.528 -14.137  0.00  0.00    -0.287 OA
ENDBRANCH   2   7
ENDBRANCH   1   3
BRANCH   1  13
ATOM     13  C   UNL     1       2.971   5.971  -7.512  0.00  0.00    +0.188 C 
ATOM     14  O   UNL     1       4.194   6.464  -6.783  0.00  0.00    -0.220 OA
BRANCH  13  15
ATOM     15  C   UNL     1       2.634   4.905  -6.323  0.00  0.00    +0.108 C 
BRANCH  15  16
ATOM     16  N   UNL     1       1.506   5.426  -5.738  0.00  0.00    -0.264 NA
ATOM     17  C   UNL     1       2.140   6.707  -5.077  0.00  0.00    +0.137 C 
ATOM     18  C   UNL     1       0.710   7.220  -4.443  0.00  0.00    +0.025 C 
ATOM     19  C   UNL     1      -0.315   6.775  -5.622  0.00  0.00    +0.003 C 
ATOM     20  C   UNL     1      -0.797   5.339  -4.846  0.00  0.00    +0.016 C 
ATOM     21  C   UNL     1      -0.693   5.799  -3.303  0.00  0.00    +0.001 C 
ATOM     22  C   UNL     1      -1.610   6.900  -2.973  0.00  0.00    +0.000 C 
ATOM     23  C   UNL     1      -2.427   7.122  -4.220  0.00  0.00    +0.000 C 
ATOM     24  C   UNL     1      -1.520   7.739  -5.164  0.00  0.00    +0.000 C 
ATOM     25  C   UNL     1       0.718   4.746  -4.826  0.00  0.00    +0.072 C 
BRANCH  17  26
ATOM     26  C   UNL     1       2.561   5.926  -3.736  0.00  0.00    +0.256 C 
ATOM     27  N   UNL     1       2.708   6.759  -2.575  0.00  0.00    -0.208 NA
ATOM     28  O   UNL     1       3.424   5.031  -3.828  0.00  0.00    -0.272 OA
BRANCH  27  29
ATOM     29  C   UNL     1       2.537   5.990  -1.339  0.00  0.00    +0.079 C 
ATOM     30  C   UNL     1       1.856   4.683  -1.608  0.00  0.00    +0.022 C 
ATOM     31  C   UNL     1       1.738   6.847  -0.375  0.00  0.00    +0.022 C 
ATOM     32  C   UNL     1       3.925   5.847  -0.751  0.00  0.00    +0.022 C 
ENDBRANCH  27  29
ENDBRANCH  17  26
ENDBRANCH  15  16
ENDBRANCH  13  15
ENDBRANCH   1  13
BRANCH   1  33
ATOM     33  C   UNL     1       5.142   5.368  -8.656  0.00  0.00    +0.086 C 
BRANCH  33  34
ATOM     34  S   UNL     1       5.009   6.497 -10.011  0.00  0.00    -0.112 S 
BRANCH  34  35
ATOM     35  C   UNL     1       6.432   6.220 -11.087  0.00  0.00    +0.025 A 
ATOM     36  C   UNL     1       6.286   6.535 -12.414  0.00  0.00    +0.006 A 
ATOM     37  C   UNL     1       7.251   6.197 -13.331  0.00  0.00    +0.001 A 
ATOM     38  C   UNL     1       8.470   5.749 -12.836  0.00  0.00    +0.000 A 
ATOM     39  C   UNL     1       8.709   5.788 -11.469  0.00  0.00    +0.001 A 
ATOM     40  C   UNL     1       7.717   6.105 -10.566  0.00  0.00    +0.006 A 
ENDBRANCH  34  35
ENDBRANCH  33  34
ENDBRANCH   1  33
TORSDOF 10
ENDMDL
