MODEL 1
REMARK VINA RESULT:      -8.4      0.000      0.000
REMARK  Name = 
REMARK  0 active torsions:
REMARK  status: ('A' for Active; 'I' for Inactive)
REMARK                            x       y       z     vdW  Elec       q    Type
REMARK                         _______ _______ _______ _____ _____    ______ ____
ROOT
ATOM      1  N   UNL     1       0.231   5.197  -9.092  0.00  0.00    +0.144 NA
ATOM      2  C   UNL     1       1.210   5.830  -8.335  0.00  0.00    +0.447 C 
ATOM      3  N   UNL     1       1.235   5.880  -6.905  0.00  0.00    -0.169 N 
ATOM      4  C   UNL     1       2.101   7.177  -6.699  0.00  0.00    +0.204 C 
ATOM      5  C   UNL     1       2.855   6.557  -5.413  0.00  0.00    +0.012 A 
ATOM      6  C   UNL     1       2.184   6.725  -4.206  0.00  0.00    -0.019 A 
ATOM      7  C   UNL     1       1.009   5.947  -3.808  0.00  0.00    +0.055 C 
ATOM      8  C   UNL     1      -0.076   5.894  -4.795  0.00  0.00    +0.011 A 
ATOM      9  C   UNL     1      -1.357   5.918  -4.253  0.00  0.00    -0.001 A 
ATOM     10  C   UNL     1      -2.439   6.124  -5.099  0.00  0.00    -0.000 A 
ATOM     11  C   UNL     1      -2.364   5.498  -6.338  0.00  0.00    +0.003 A 
ATOM     12  C   UNL     1      -1.104   5.537  -6.928  0.00  0.00    +0.031 A 
ATOM     13  C   UNL     1       2.923   7.074  -3.078  0.00  0.00    -0.004 A 
ATOM     14  C   UNL     1       4.167   7.682  -3.199  0.00  0.00    -0.000 A 
ATOM     15  C   UNL     1       4.811   7.606  -4.408  0.00  0.00    -0.000 A 
ATOM     16  C   UNL     1       4.167   7.007  -5.475  0.00  0.00    -0.001 A 
ATOM     17  C   UNL     1       3.244   6.611  -7.730  0.00  0.00    +0.262 C 
ATOM     18  C   UNL     1       0.028   5.749  -6.150  0.00  0.00    +0.109 A 
ATOM     19  N   UNL     1       2.452   5.900  -8.680  0.00  0.00    -0.092 NA
ENDROOT
TORSDOF 0
ENDMDL
MODEL 2
REMARK VINA RESULT:      -8.4      3.432      5.661
REMARK  Name = 
REMARK  0 active torsions:
REMARK  status: ('A' for Active; 'I' for Inactive)
REMARK                            x       y       z     vdW  Elec       q    Type
REMARK                         _______ _______ _______ _____ _____    ______ ____
ROOT
ATOM      1  N   UNL     1       0.529   5.806 -10.625  0.00  0.00    +0.144 NA
ATOM      2  C   UNL     1       1.827   5.929 -11.105  0.00  0.00    +0.447 C 
ATOM      3  N   UNL     1       3.011   5.727 -10.327  0.00  0.00    -0.169 N 
ATOM      4  C   UNL     1       4.027   6.595 -11.156  0.00  0.00    +0.204 C 
ATOM      5  C   UNL     1       5.232   5.548 -10.914  0.00  0.00    +0.012 A 
ATOM      6  C   UNL     1       5.933   5.729  -9.726  0.00  0.00    -0.019 A 
ATOM      7  C   UNL     1       5.424   5.344  -8.408  0.00  0.00    +0.055 C 
ATOM      8  C   UNL     1       4.078   5.832  -8.085  0.00  0.00    +0.011 A 
ATOM      9  C   UNL     1       3.895   6.200  -6.756  0.00  0.00    -0.001 A 
ATOM     10  C   UNL     1       2.749   6.903  -6.406  0.00  0.00    -0.000 A 
ATOM     11  C   UNL     1       1.580   6.508  -7.046  0.00  0.00    +0.003 A 
ATOM     12  C   UNL     1       1.734   6.212  -8.397  0.00  0.00    +0.031 A 
ATOM     13  C   UNL     1       7.320   5.609  -9.748  0.00  0.00    -0.004 A 
ATOM     14  C   UNL     1       8.032   5.766 -10.932  0.00  0.00    -0.000 A 
ATOM     15  C   UNL     1       7.346   5.680 -12.117  0.00  0.00    -0.000 A 
ATOM     16  C   UNL     1       5.972   5.525 -12.088  0.00  0.00    -0.001 A 
ATOM     17  C   UNL     1       3.569   5.854 -12.545  0.00  0.00    +0.262 C 
ATOM     18  C   UNL     1       2.987   5.890  -8.907  0.00  0.00    +0.109 A 
ATOM     19  N   UNL     1       2.180   5.628 -12.309  0.00  0.00    -0.092 NA
ENDROOT
TORSDOF 0
ENDMDL
MODEL 3
REMARK VINA RESULT:      -8.2      3.522      5.921
REMARK  Name = 
REMARK  0 active torsions:
REMARK  status: ('A' for Active; 'I' for Inactive)
REMARK                            x       y       z     vdW  Elec       q    Type
REMARK                         _______ _______ _______ _____ _____    ______ ____
ROOT
ATOM      1  N   UNL     1       0.759   5.354  -7.586  0.00  0.00    +0.144 NA
ATOM      2  C   UNL     1       2.122   5.232  -7.828  0.00  0.00    +0.447 C 
ATOM      3  N   UNL     1       2.767   5.559  -9.063  0.00  0.00    -0.169 N 
ATOM      4  C   UNL     1       4.045   4.649  -8.945  0.00  0.00    +0.204 C 
ATOM      5  C   UNL     1       4.990   5.761  -9.637  0.00  0.00    +0.012 A 
ATOM      6  C   UNL     1       5.005   5.731 -11.027  0.00  0.00    -0.019 A 
ATOM      7  C   UNL     1       3.916   6.230 -11.870  0.00  0.00    +0.055 C 
ATOM      8  C   UNL     1       2.578   5.727 -11.535  0.00  0.00    +0.011 A 
ATOM      9  C   UNL     1       1.754   5.491 -12.630  0.00  0.00    -0.001 A 
ATOM     10  C   UNL     1       0.573   4.785 -12.441  0.00  0.00    -0.000 A 
ATOM     11  C   UNL     1      -0.117   5.067 -11.268  0.00  0.00    +0.003 A 
ATOM     12  C   UNL     1       0.692   5.227 -10.147  0.00  0.00    +0.031 A 
ATOM     13  C   UNL     1       6.223   5.901 -11.682  0.00  0.00    -0.004 A 
ATOM     14  C   UNL     1       7.425   5.650 -11.030  0.00  0.00    -0.000 A 
ATOM     15  C   UNL     1       7.419   5.587  -9.661  0.00  0.00    -0.000 A 
ATOM     16  C   UNL     1       6.214   5.691  -8.989  0.00  0.00    -0.001 A 
ATOM     17  C   UNL     1       4.349   5.224  -7.440  0.00  0.00    +0.262 C 
ATOM     18  C   UNL     1       2.038   5.542 -10.293  0.00  0.00    +0.109 A 
ATOM     19  N   UNL     1       3.031   5.421  -6.932  0.00  0.00    -0.092 NA
ENDROOT
TORSDOF 0
ENDMDL
MODEL 4
REMARK VINA RESULT:      -8.1      1.367      4.597
REMARK  Name = 
REMARK  0 active torsions:
REMARK  status: ('A' for Active; 'I' for Inactive)
REMARK                            x       y       z     vdW  Elec       q    Type
REMARK                         _______ _______ _______ _____ _____    ______ ____
ROOT
ATOM      1  N   UNL     1       4.518   5.385  -7.538  0.00  0.00    +0.144 NA
ATOM      2  C   UNL     1       3.137   5.239  -7.473  0.00  0.00    +0.447 C 
ATOM      3  N   UNL     1       2.331   5.568  -6.337  0.00  0.00    -0.169 N 
ATOM      4  C   UNL     1       1.096   4.633  -6.606  0.00  0.00    +0.204 C 
ATOM      5  C   UNL     1       0.050   5.735  -6.058  0.00  0.00    +0.012 A 
ATOM      6  C   UNL     1      -0.145   5.720  -4.682  0.00  0.00    -0.019 A 
ATOM      7  C   UNL     1       0.816   6.250  -3.712  0.00  0.00    +0.055 C 
ATOM      8  C   UNL     1       2.195   5.769  -3.864  0.00  0.00    +0.011 A 
ATOM      9  C   UNL     1       2.874   5.562  -2.668  0.00  0.00    -0.001 A 
ATOM     10  C   UNL     1       4.082   4.876  -2.693  0.00  0.00    -0.000 A 
ATOM     11  C   UNL     1       4.913   5.158  -3.770  0.00  0.00    +0.003 A 
ATOM     12  C   UNL     1       4.254   5.289  -4.989  0.00  0.00    +0.031 A 
ATOM     13  C   UNL     1      -1.440   5.874  -4.193  0.00  0.00    -0.004 A 
ATOM     14  C   UNL     1      -2.543   5.592  -4.991  0.00  0.00    -0.000 A 
ATOM     15  C   UNL     1      -2.358   5.513  -6.348  0.00  0.00    -0.000 A 
ATOM     16  C   UNL     1      -1.079   5.633  -6.859  0.00  0.00    -0.001 A 
ATOM     17  C   UNL     1       0.980   5.184  -8.146  0.00  0.00    +0.262 C 
ATOM     18  C   UNL     1       2.895   5.580  -5.023  0.00  0.00    +0.109 A 
ATOM     19  N   UNL     1       2.349   5.400  -8.482  0.00  0.00    -0.092 NA
ENDROOT
TORSDOF 0
ENDMDL
MODEL 5
REMARK VINA RESULT:      -8.1      1.957      5.377
REMARK  Name = 
REMARK  0 active torsions:
REMARK  status: ('A' for Active; 'I' for Inactive)
REMARK                            x       y       z     vdW  Elec       q    Type
REMARK                         _______ _______ _______ _____ _____    ______ ____
ROOT
ATOM      1  N   UNL     1       4.739   5.318  -3.923  0.00  0.00    +0.144 NA
ATOM      2  C   UNL     1       3.378   5.601  -3.907  0.00  0.00    +0.447 C 
ATOM      3  N   UNL     1       2.482   5.375  -4.999  0.00  0.00    -0.169 N 
ATOM      4  C   UNL     1       1.363   6.424  -4.648  0.00  0.00    +0.204 C 
ATOM      5  C   UNL     1       0.184   5.442  -5.149  0.00  0.00    +0.012 A 
ATOM      6  C   UNL     1      -0.086   5.502  -6.512  0.00  0.00    -0.019 A 
ATOM      7  C   UNL     1       0.762   4.898  -7.542  0.00  0.00    +0.055 C 
ATOM      8  C   UNL     1       2.188   5.237  -7.463  0.00  0.00    +0.011 A 
ATOM      9  C   UNL     1       2.817   5.398  -8.693  0.00  0.00    -0.001 A 
ATOM     10  C   UNL     1       4.087   5.960  -8.728  0.00  0.00    -0.000 A 
ATOM     11  C   UNL     1       4.945   5.577  -7.704  0.00  0.00    +0.003 A 
ATOM     12  C   UNL     1       4.344   5.488  -6.452  0.00  0.00    +0.031 A 
ATOM     13  C   UNL     1      -1.415   5.486  -6.928  0.00  0.00    -0.004 A 
ATOM     14  C   UNL     1      -2.438   5.861  -6.064  0.00  0.00    -0.000 A 
ATOM     15  C   UNL     1      -2.171   5.896  -4.720  0.00  0.00    -0.000 A 
ATOM     16  C   UNL     1      -0.883   5.640  -4.284  0.00  0.00    -0.001 A 
ATOM     17  C   UNL     1       1.278   5.857  -3.111  0.00  0.00    +0.262 C 
ATOM     18  C   UNL     1       2.967   5.333  -6.344  0.00  0.00    +0.109 A 
ATOM     19  N   UNL     1       2.635   5.500  -2.857  0.00  0.00    -0.092 NA
ENDROOT
TORSDOF 0
ENDMDL
MODEL 6
REMARK VINA RESULT:      -8.1      2.677      5.978
REMARK  Name = 
REMARK  0 active torsions:
REMARK  status: ('A' for Active; 'I' for Inactive)
REMARK                            x       y       z     vdW  Elec       q    Type
REMARK                         _______ _______ _______ _____ _____    ______ ____
ROOT
ATOM      1  N   UNL     1       2.659   5.353  -0.736  0.00  0.00    +0.144 NA
ATOM      2  C   UNL     1       1.501   5.633  -1.453  0.00  0.00    +0.447 C 
ATOM      3  N   UNL     1       1.309   5.347  -2.842  0.00  0.00    -0.169 N 
ATOM      4  C   UNL     1       0.199   6.409  -3.181  0.00  0.00    +0.204 C 
ATOM      5  C   UNL     1      -0.564   5.399  -4.183  0.00  0.00    +0.012 A 
ATOM      6  C   UNL     1      -0.074   5.386  -5.484  0.00  0.00    -0.019 A 
ATOM      7  C   UNL     1       1.173   4.731  -5.884  0.00  0.00    +0.055 C 
ATOM      8  C   UNL     1       2.352   5.078  -5.081  0.00  0.00    +0.011 A 
ATOM      9  C   UNL     1       3.538   5.176  -5.801  0.00  0.00    -0.001 A 
ATOM     10  C   UNL     1       4.650   5.739  -5.188  0.00  0.00    -0.000 A 
ATOM     11  C   UNL     1       4.831   5.412  -3.849  0.00  0.00    +0.003 A 
ATOM     12  C   UNL     1       3.659   5.389  -3.099  0.00  0.00    +0.031 A 
ATOM     13  C   UNL     1      -0.986   5.345  -6.537  0.00  0.00    -0.004 A 
ATOM     14  C   UNL     1      -2.300   5.762  -6.360  0.00  0.00    -0.000 A 
ATOM     15  C   UNL     1      -2.780   5.868  -5.080  0.00  0.00    -0.000 A 
ATOM     16  C   UNL     1      -1.921   5.639  -4.020  0.00  0.00    -0.001 A 
ATOM     17  C   UNL     1      -0.696   5.925  -1.896  0.00  0.00    +0.262 C 
ATOM     18  C   UNL     1       2.428   5.235  -3.725  0.00  0.00    +0.109 A 
ATOM     19  N   UNL     1       0.315   5.585  -0.948  0.00  0.00    -0.092 NA
ENDROOT
TORSDOF 0
ENDMDL
MODEL 7
REMARK VINA RESULT:      -8.1      1.737      4.671
REMARK  Name = 
REMARK  0 active torsions:
REMARK  status: ('A' for Active; 'I' for Inactive)
REMARK                            x       y       z     vdW  Elec       q    Type
REMARK                         _______ _______ _______ _____ _____    ______ ____
ROOT
ATOM      1  N   UNL     1       4.391   5.436  -6.428  0.00  0.00    +0.144 NA
ATOM      2  C   UNL     1       3.274   5.623  -5.622  0.00  0.00    +0.447 C 
ATOM      3  N   UNL     1       1.918   5.480  -6.057  0.00  0.00    -0.169 N 
ATOM      4  C   UNL     1       1.200   6.396  -4.999  0.00  0.00    +0.204 C 
ATOM      5  C   UNL     1      -0.075   5.410  -4.901  0.00  0.00    +0.012 A 
ATOM      6  C   UNL     1      -1.055   5.627  -5.863  0.00  0.00    -0.019 A 
ATOM      7  C   UNL     1      -0.933   5.219  -7.264  0.00  0.00    +0.055 C 
ATOM      8  C   UNL     1       0.301   5.641  -7.938  0.00  0.00    +0.011 A 
ATOM      9  C   UNL     1       0.142   6.001  -9.272  0.00  0.00    -0.001 A 
ATOM     10  C   UNL     1       1.187   6.647  -9.920  0.00  0.00    -0.000 A 
ATOM     11  C   UNL     1       2.464   6.194  -9.609  0.00  0.00    +0.003 A 
ATOM     12  C   UNL     1       2.659   5.905  -8.261  0.00  0.00    +0.031 A 
ATOM     13  C   UNL     1      -2.391   5.576  -5.472  0.00  0.00    -0.004 A 
ATOM     14  C   UNL     1      -2.755   5.766  -4.144  0.00  0.00    -0.000 A 
ATOM     15  C   UNL     1      -1.785   5.645  -3.183  0.00  0.00    -0.000 A 
ATOM     16  C   UNL     1      -0.477   5.422  -3.573  0.00  0.00    -0.001 A 
ATOM     17  C   UNL     1       1.975   5.632  -3.772  0.00  0.00    +0.262 C 
ATOM     18  C   UNL     1       1.573   5.644  -7.435  0.00  0.00    +0.109 A 
ATOM     19  N   UNL     1       3.238   5.337  -4.364  0.00  0.00    -0.092 NA
ENDROOT
TORSDOF 0
ENDMDL
MODEL 8
REMARK VINA RESULT:      -8.1      3.251      7.195
REMARK  Name = 
REMARK  0 active torsions:
REMARK  status: ('A' for Active; 'I' for Inactive)
REMARK                            x       y       z     vdW  Elec       q    Type
REMARK                         _______ _______ _______ _____ _____    ______ ____
ROOT
ATOM      1  N   UNL     1       4.733   5.376  -6.547  0.00  0.00    +0.144 NA
ATOM      2  C   UNL     1       3.675   5.855  -7.309  0.00  0.00    +0.447 C 
ATOM      3  N   UNL     1       3.597   5.787  -8.737  0.00  0.00    -0.169 N 
ATOM      4  C   UNL     1       2.608   6.979  -9.008  0.00  0.00    +0.204 C 
ATOM      5  C   UNL     1       1.872   6.192 -10.210  0.00  0.00    +0.012 A 
ATOM      6  C   UNL     1       2.484   6.321 -11.452  0.00  0.00    -0.019 A 
ATOM      7  C   UNL     1       3.712   5.622 -11.837  0.00  0.00    +0.055 C 
ATOM      8  C   UNL     1       4.830   5.746 -10.894  0.00  0.00    +0.011 A 
ATOM      9  C   UNL     1       6.084   5.841 -11.488  0.00  0.00    -0.001 A 
ATOM     10  C   UNL     1       7.171   6.211 -10.705  0.00  0.00    -0.000 A 
ATOM     11  C   UNL     1       7.195   5.684  -9.419  0.00  0.00    +0.003 A 
ATOM     12  C   UNL     1       5.958   5.658  -8.783  0.00  0.00    +0.031 A 
ATOM     13  C   UNL     1       1.679   6.509 -12.573  0.00  0.00    -0.004 A 
ATOM     14  C   UNL     1       0.388   7.011 -12.449  0.00  0.00    -0.000 A 
ATOM     15  C   UNL     1      -0.205   6.976 -11.213  0.00  0.00    -0.000 A 
ATOM     16  C   UNL     1       0.528   6.525 -10.129  0.00  0.00    -0.001 A 
ATOM     17  C   UNL     1       1.558   6.399  -7.890  0.00  0.00    +0.262 C 
ATOM     18  C   UNL     1       4.785   5.703  -9.528  0.00  0.00    +0.109 A 
ATOM     19  N   UNL     1       2.444   5.841  -6.921  0.00  0.00    -0.092 NA
ENDROOT
TORSDOF 0
ENDMDL
MODEL 9
REMARK VINA RESULT:      -8.0      2.035      2.826
REMARK  Name = 
REMARK  0 active torsions:
REMARK  status: ('A' for Active; 'I' for Inactive)
REMARK                            x       y       z     vdW  Elec       q    Type
REMARK                         _______ _______ _______ _____ _____    ______ ____
ROOT
ATOM      1  N   UNL     1      -2.626   5.538  -6.396  0.00  0.00    +0.144 NA
ATOM      2  C   UNL     1      -1.260   5.646  -6.166  0.00  0.00    +0.447 C 
ATOM      3  N   UNL     1      -0.626   5.458  -4.897  0.00  0.00    -0.169 N 
ATOM      4  C   UNL     1       0.681   6.304  -5.124  0.00  0.00    +0.204 C 
ATOM      5  C   UNL     1       1.589   5.259  -4.292  0.00  0.00    +0.012 A 
ATOM      6  C   UNL     1       1.605   5.466  -2.917  0.00  0.00    -0.019 A 
ATOM      7  C   UNL     1       0.501   5.114  -2.022  0.00  0.00    +0.055 C 
ATOM      8  C   UNL     1      -0.820   5.613  -2.424  0.00  0.00    +0.011 A 
ATOM      9  C   UNL     1      -1.636   6.013  -1.371  0.00  0.00    -0.001 A 
ATOM     10  C   UNL     1      -2.794   6.727  -1.654  0.00  0.00    -0.000 A 
ATOM     11  C   UNL     1      -3.493   6.320  -2.784  0.00  0.00    +0.003 A 
ATOM     12  C   UNL     1      -2.689   5.993  -3.872  0.00  0.00    +0.031 A 
ATOM     13  C   UNL     1       2.817   5.342  -2.241  0.00  0.00    -0.004 A 
ATOM     14  C   UNL     1       4.026   5.469  -2.914  0.00  0.00    -0.000 A 
ATOM     15  C   UNL     1       4.023   5.358  -4.281  0.00  0.00    -0.000 A 
ATOM     16  C   UNL     1       2.815   5.207  -4.939  0.00  0.00    -0.001 A 
ATOM     17  C   UNL     1       0.966   5.533  -6.542  0.00  0.00    +0.262 C 
ATOM     18  C   UNL     1      -1.354   5.655  -3.682  0.00  0.00    +0.109 A 
ATOM     19  N   UNL     1      -0.357   5.316  -7.027  0.00  0.00    -0.092 NA
ENDROOT
TORSDOF 0
ENDMDL
