MODEL 1
REMARK VINA RESULT:      -6.3      0.000      0.000
REMARK  Name = 
REMARK  4 active torsions:
REMARK  status: ('A' for Active; 'I' for Inactive)
REMARK    1  A    between atoms: C_2  and  C_3
REMARK    2  A    between atoms: C_3  and  C_4
REMARK    3  A    between atoms: C_3  and  C_8
REMARK    4  A    between atoms: C_4  and  C_5
REMARK                            x       y       z     vdW  Elec       q    Type
REMARK                         _______ _______ _______ _____ _____    ______ ____
ROOT
ATOM      1  C   UNL     1       3.512   5.803  -9.667  0.00  0.00    +0.053 C 
ENDROOT
BRANCH   1   2
ATOM      2  C   UNL     1       5.032   6.310  -9.800  0.00  0.00    -0.020 A 
ATOM      3  C   UNL     1       6.043   5.526  -9.387  0.00  0.00    -0.003 A 
ATOM      4  C   UNL     1       7.334   5.879  -9.761  0.00  0.00    +0.011 A 
ATOM      5  C   UNL     1       7.490   6.349 -11.060  0.00  0.00    +0.058 A 
ATOM      6 CL   UNL     1       8.947   5.958 -11.925  0.00  0.00    -0.082 Cl
ATOM      7  C   UNL     1       6.507   7.195 -11.524  0.00  0.00    +0.011 A 
ATOM      8  C   UNL     1       5.236   6.994 -10.996  0.00  0.00    -0.003 A 
ENDBRANCH   1   2
BRANCH   1  10
ATOM      9  N   UNL     1       2.709   3.736  -8.665  0.00  0.00    -0.131 NA
ATOM     10  C   UNL     1       3.946   4.353  -9.024  0.00  0.00    +0.114 C 
ENDBRANCH   1  10
BRANCH   1  11
ATOM     11  C   UNL     1       3.265   6.449  -8.176  0.00  0.00    +0.120 C 
BRANCH  11  12
ATOM     12  C   UNL     1       2.019   7.266  -8.311  0.00  0.00    +0.365 C 
ATOM     13  O   UNL     1       2.126   8.563  -7.797  0.00  0.00    -0.246 OA
ATOM     14  O   UNL     1       1.377   7.122  -9.383  0.00  0.00    -0.246 OA
ENDBRANCH  11  12
ENDBRANCH   1  11
TORSDOF 4
ENDMDL
MODEL 2
REMARK VINA RESULT:      -5.8      4.266      5.443
REMARK  Name = 
REMARK  4 active torsions:
REMARK  status: ('A' for Active; 'I' for Inactive)
REMARK    1  A    between atoms: C_2  and  C_3
REMARK    2  A    between atoms: C_3  and  C_4
REMARK    3  A    between atoms: C_3  and  C_8
REMARK    4  A    between atoms: C_4  and  C_5
REMARK                            x       y       z     vdW  Elec       q    Type
REMARK                         _______ _______ _______ _____ _____    ______ ____
ROOT
ATOM      1  C   UNL     1       5.864   6.230 -11.678  0.00  0.00    +0.053 C 
ENDROOT
BRANCH   1   2
ATOM      2  C   UNL     1       5.394   5.448 -10.354  0.00  0.00    -0.020 A 
ATOM      3  C   UNL     1       6.097   5.570  -9.214  0.00  0.00    -0.003 A 
ATOM      4  C   UNL     1       5.518   5.104  -8.040  0.00  0.00    +0.011 A 
ATOM      5  C   UNL     1       4.159   5.355  -7.884  0.00  0.00    +0.058 A 
ATOM      6 CL   UNL     1       3.543   5.692  -6.294  0.00  0.00    -0.082 Cl
ATOM      7  C   UNL     1       3.378   5.201  -9.010  0.00  0.00    +0.011 A 
ATOM      8  C   UNL     1       4.008   5.459 -10.223  0.00  0.00    -0.003 A 
ENDBRANCH   1   2
BRANCH   1  10
ATOM      9  N   UNL     1       6.579   8.550 -11.501  0.00  0.00    -0.131 NA
ATOM     10  C   UNL     1       5.516   7.709 -11.050  0.00  0.00    +0.114 C 
ENDBRANCH   1  10
BRANCH   1  11
ATOM     11  C   UNL     1       7.441   6.355 -11.230  0.00  0.00    +0.120 C 
BRANCH  11  12
ATOM     12  C   UNL     1       8.207   5.685 -12.327  0.00  0.00    +0.365 C 
ATOM     13  O   UNL     1       9.591   5.879 -12.261  0.00  0.00    -0.246 OA
ATOM     14  O   UNL     1       7.801   4.545 -12.668  0.00  0.00    -0.246 OA
ENDBRANCH  11  12
ENDBRANCH   1  11
TORSDOF 4
ENDMDL
MODEL 3
REMARK VINA RESULT:      -5.8      5.556      7.872
REMARK  Name = 
REMARK  4 active torsions:
REMARK  status: ('A' for Active; 'I' for Inactive)
REMARK    1  A    between atoms: C_2  and  C_3
REMARK    2  A    between atoms: C_3  and  C_4
REMARK    3  A    between atoms: C_3  and  C_8
REMARK    4  A    between atoms: C_4  and  C_5
REMARK                            x       y       z     vdW  Elec       q    Type
REMARK                         _______ _______ _______ _____ _____    ______ ____
ROOT
ATOM      1  C   UNL     1       1.154   6.174  -6.139  0.00  0.00    +0.053 C 
ENDROOT
BRANCH   1   2
ATOM      2  C   UNL     1      -0.401   6.445  -5.832  0.00  0.00    -0.020 A 
ATOM      3  C   UNL     1      -1.246   5.411  -5.673  0.00  0.00    -0.003 A 
ATOM      4  C   UNL     1      -2.506   5.676  -5.148  0.00  0.00    +0.011 A 
ATOM      5  C   UNL     1      -2.557   6.601  -4.111  0.00  0.00    +0.058 A 
ATOM      6 CL   UNL     1      -3.715   6.369  -2.836  0.00  0.00    -0.082 Cl
ATOM      7  C   UNL     1      -1.745   7.707  -4.240  0.00  0.00    +0.011 A 
ATOM      8  C   UNL     1      -0.566   7.512  -4.953  0.00  0.00    -0.003 A 
ENDBRANCH   1   2
BRANCH   1  10
ATOM      9  N   UNL     1       2.333   4.048  -6.038  0.00  0.00    -0.131 NA
ATOM     10  C   UNL     1       0.992   4.541  -6.048  0.00  0.00    +0.114 C 
ENDBRANCH   1  10
BRANCH   1  11
ATOM     11  C   UNL     1       0.984   6.152  -7.774  0.00  0.00    +0.120 C 
BRANCH  11  12
ATOM     12  C   UNL     1       2.071   7.042  -8.287  0.00  0.00    +0.365 C 
ATOM     13  O   UNL     1       2.075   8.323  -7.725  0.00  0.00    -0.246 OA
ATOM     14  O   UNL     1       3.187   6.496  -8.484  0.00  0.00    -0.246 OA
ENDBRANCH  11  12
ENDBRANCH   1  11
TORSDOF 4
ENDMDL
MODEL 4
REMARK VINA RESULT:      -5.7      1.863      2.297
REMARK  Name = 
REMARK  4 active torsions:
REMARK  status: ('A' for Active; 'I' for Inactive)
REMARK    1  A    between atoms: C_2  and  C_3
REMARK    2  A    between atoms: C_3  and  C_4
REMARK    3  A    between atoms: C_3  and  C_8
REMARK    4  A    between atoms: C_4  and  C_5
REMARK                            x       y       z     vdW  Elec       q    Type
REMARK                         _______ _______ _______ _____ _____    ______ ____
ROOT
ATOM      1  C   UNL     1       3.704   6.517 -10.006  0.00  0.00    +0.053 C 
ENDROOT
BRANCH   1   2
ATOM      2  C   UNL     1       5.300   6.710 -10.026  0.00  0.00    -0.020 A 
ATOM      3  C   UNL     1       6.107   5.685  -9.703  0.00  0.00    -0.003 A 
ATOM      4  C   UNL     1       7.461   5.809  -9.989  0.00  0.00    +0.011 A 
ATOM      5  C   UNL     1       7.780   6.405 -11.204  0.00  0.00    +0.058 A 
ATOM      6 CL   UNL     1       9.173   5.841 -12.077  0.00  0.00    -0.082 Cl
ATOM      7  C   UNL     1       7.015   7.493 -11.568  0.00  0.00    +0.011 A 
ATOM      8  C   UNL     1       5.703   7.491 -11.107  0.00  0.00    -0.003 A 
ENDBRANCH   1   2
BRANCH   1  10
ATOM      9  N   UNL     1       2.227   6.133 -11.902  0.00  0.00    -0.131 NA
ATOM     10  C   UNL     1       3.625   6.163 -11.609  0.00  0.00    +0.114 C 
ENDBRANCH   1  10
BRANCH   1  11
ATOM     11  C   UNL     1       3.748   4.923  -9.604  0.00  0.00    +0.120 C 
BRANCH  11  12
ATOM     12  C   UNL     1       2.739   4.774  -8.510  0.00  0.00    +0.365 C 
ATOM     13  O   UNL     1       2.496   3.449  -8.132  0.00  0.00    -0.246 OA
ATOM     14  O   UNL     1       2.784   5.635  -7.594  0.00  0.00    -0.246 OA
ENDBRANCH  11  12
ENDBRANCH   1  11
TORSDOF 4
ENDMDL
MODEL 5
REMARK VINA RESULT:      -5.6      5.370      7.487
REMARK  Name = 
REMARK  4 active torsions:
REMARK  status: ('A' for Active; 'I' for Inactive)
REMARK    1  A    between atoms: C_2  and  C_3
REMARK    2  A    between atoms: C_3  and  C_4
REMARK    3  A    between atoms: C_3  and  C_8
REMARK    4  A    between atoms: C_4  and  C_5
REMARK                            x       y       z     vdW  Elec       q    Type
REMARK                         _______ _______ _______ _____ _____    ______ ____
ROOT
ATOM      1  C   UNL     1       1.077   5.518  -7.438  0.00  0.00    +0.053 C 
ENDROOT
BRANCH   1   2
ATOM      2  C   UNL     1      -0.316   5.955  -6.766  0.00  0.00    -0.020 A 
ATOM      3  C   UNL     1      -1.399   5.166  -6.885  0.00  0.00    -0.003 A 
ATOM      4  C   UNL     1      -2.495   5.440  -6.076  0.00  0.00    +0.011 A 
ATOM      5  C   UNL     1      -2.213   5.803  -4.763  0.00  0.00    +0.058 A 
ATOM      6 CL   UNL     1      -3.293   5.292  -3.500  0.00  0.00    -0.082 Cl
ATOM      7  C   UNL     1      -1.141   6.649  -4.582  0.00  0.00    +0.011 A 
ATOM      8  C   UNL     1      -0.117   6.537  -5.517  0.00  0.00    -0.003 A 
ENDBRANCH   1   2
BRANCH   1  10
ATOM      9  N   UNL     1       1.247   4.727  -9.733  0.00  0.00    -0.131 NA
ATOM     10  C   UNL     1       0.505   5.681  -8.971  0.00  0.00    +0.114 C 
ENDBRANCH   1  10
BRANCH   1  11
ATOM     11  C   UNL     1       1.718   7.032  -7.461  0.00  0.00    +0.120 C 
BRANCH  11  12
ATOM     12  C   UNL     1       3.148   6.851  -7.061  0.00  0.00    +0.365 C 
ATOM     13  O   UNL     1       3.482   7.448  -5.841  0.00  0.00    -0.246 OA
ATOM     14  O   UNL     1       3.654   5.727  -7.311  0.00  0.00    -0.246 OA
ENDBRANCH  11  12
ENDBRANCH   1  11
TORSDOF 4
ENDMDL
MODEL 6
REMARK VINA RESULT:      -5.5      1.531      2.111
REMARK  Name = 
REMARK  4 active torsions:
REMARK  status: ('A' for Active; 'I' for Inactive)
REMARK    1  A    between atoms: C_2  and  C_3
REMARK    2  A    between atoms: C_3  and  C_4
REMARK    3  A    between atoms: C_3  and  C_8
REMARK    4  A    between atoms: C_4  and  C_5
REMARK                            x       y       z     vdW  Elec       q    Type
REMARK                         _______ _______ _______ _____ _____    ______ ____
ROOT
ATOM      1  C   UNL     1       3.866   6.273  -8.950  0.00  0.00    +0.053 C 
ENDROOT
BRANCH   1   2
ATOM      2  C   UNL     1       5.057   5.578  -9.776  0.00  0.00    -0.020 A 
ATOM      3  C   UNL     1       5.130   5.729 -11.110  0.00  0.00    -0.003 A 
ATOM      4  C   UNL     1       6.306   5.346 -11.744  0.00  0.00    +0.011 A 
ATOM      5  C   UNL     1       7.489   5.659 -11.085  0.00  0.00    +0.058 A 
ATOM      6 CL   UNL     1       8.883   6.101 -12.025  0.00  0.00    -0.082 Cl
ATOM      7  C   UNL     1       7.491   5.481  -9.718  0.00  0.00    +0.011 A 
ATOM      8  C   UNL     1       6.264   5.652  -9.084  0.00  0.00    -0.003 A 
ENDBRANCH   1   2
BRANCH   1  10
ATOM      9  N   UNL     1       3.143   3.954  -8.803  0.00  0.00    -0.131 NA
ATOM     10  C   UNL     1       2.748   5.171  -9.439  0.00  0.00    +0.114 C 
ENDBRANCH   1  10
BRANCH   1  11
ATOM     11  C   UNL     1       4.145   5.448  -7.556  0.00  0.00    +0.120 C 
BRANCH  11  12
ATOM     12  C   UNL     1       3.723   6.381  -6.465  0.00  0.00    +0.365 C 
ATOM     13  O   UNL     1       4.651   6.504  -5.425  0.00  0.00    -0.246 OA
ATOM     14  O   UNL     1       3.126   7.426  -6.831  0.00  0.00    -0.246 OA
ENDBRANCH  11  12
ENDBRANCH   1  11
TORSDOF 4
ENDMDL
MODEL 7
REMARK VINA RESULT:      -5.3      4.215      5.494
REMARK  Name = 
REMARK  4 active torsions:
REMARK  status: ('A' for Active; 'I' for Inactive)
REMARK    1  A    between atoms: C_2  and  C_3
REMARK    2  A    between atoms: C_3  and  C_4
REMARK    3  A    between atoms: C_3  and  C_8
REMARK    4  A    between atoms: C_4  and  C_5
REMARK                            x       y       z     vdW  Elec       q    Type
REMARK                         _______ _______ _______ _____ _____    ______ ____
ROOT
ATOM      1  C   UNL     1       5.492   5.268 -11.337  0.00  0.00    +0.053 C 
ENDROOT
BRANCH   1   2
ATOM      2  C   UNL     1       4.972   6.001 -10.004  0.00  0.00    -0.020 A 
ATOM      3  C   UNL     1       3.753   6.569  -9.978  0.00  0.00    -0.003 A 
ATOM      4  C   UNL     1       3.238   6.949  -8.745  0.00  0.00    +0.011 A 
ATOM      5  C   UNL     1       3.466   6.074  -7.688  0.00  0.00    +0.058 A 
ATOM      6 CL   UNL     1       2.242   5.893  -6.468  0.00  0.00    -0.082 Cl
ATOM      7  C   UNL     1       4.716   5.496  -7.635  0.00  0.00    +0.011 A 
ATOM      8  C   UNL     1       5.345   5.300  -8.860  0.00  0.00    -0.003 A 
ENDBRANCH   1   2
BRANCH   1  10
ATOM      9  N   UNL     1       4.394   5.341 -13.507  0.00  0.00    -0.131 NA
ATOM     10  C   UNL     1       4.498   6.131 -12.321  0.00  0.00    +0.114 C 
ENDBRANCH   1  10
BRANCH   1  11
ATOM     11  C   UNL     1       6.741   6.303 -11.603  0.00  0.00    +0.120 C 
BRANCH  11  12
ATOM     12  C   UNL     1       7.898   5.426 -11.965  0.00  0.00    +0.365 C 
ATOM     13  O   UNL     1       7.670   4.606 -13.075  0.00  0.00    -0.246 OA
ATOM     14  O   UNL     1       9.039   5.944 -11.855  0.00  0.00    -0.246 OA
ENDBRANCH  11  12
ENDBRANCH   1  11
TORSDOF 4
ENDMDL
MODEL 8
REMARK VINA RESULT:      -5.3      4.136      5.428
REMARK  Name = 
REMARK  4 active torsions:
REMARK  status: ('A' for Active; 'I' for Inactive)
REMARK    1  A    between atoms: C_2  and  C_3
REMARK    2  A    between atoms: C_3  and  C_4
REMARK    3  A    between atoms: C_3  and  C_8
REMARK    4  A    between atoms: C_4  and  C_5
REMARK                            x       y       z     vdW  Elec       q    Type
REMARK                         _______ _______ _______ _____ _____    ______ ____
ROOT
ATOM      1  C   UNL     1       5.785   6.635 -10.937  0.00  0.00    +0.053 C 
ENDROOT
BRANCH   1   2
ATOM      2  C   UNL     1       4.192   6.832 -10.845  0.00  0.00    -0.020 A 
ATOM      3  C   UNL     1       3.383   6.199 -11.713  0.00  0.00    -0.003 A 
ATOM      4  C   UNL     1       2.021   6.179 -11.437  0.00  0.00    +0.011 A 
ATOM      5  C   UNL     1       1.667   5.986 -10.106  0.00  0.00    +0.058 A 
ATOM      6 CL   UNL     1       0.238   5.066  -9.742  0.00  0.00    -0.082 Cl
ATOM      7  C   UNL     1       2.432   6.647  -9.170  0.00  0.00    +0.011 A 
ATOM      8  C   UNL     1       3.761   6.868  -9.521  0.00  0.00    -0.003 A 
ENDBRANCH   1   2
BRANCH   1  10
ATOM      9  N   UNL     1       7.226   5.623  -9.258  0.00  0.00    -0.131 NA
ATOM     10  C   UNL     1       5.843   5.662  -9.614  0.00  0.00    +0.114 C 
ENDBRANCH   1  10
BRANCH   1  11
ATOM     11  C   UNL     1       5.721   5.342 -11.950  0.00  0.00    +0.120 C 
BRANCH  11  12
ATOM     12  C   UNL     1       6.951   5.452 -12.794  0.00  0.00    +0.365 C 
ATOM     13  O   UNL     1       7.443   6.755 -12.922  0.00  0.00    -0.246 OA
ATOM     14  O   UNL     1       7.794   4.527 -12.666  0.00  0.00    -0.246 OA
ENDBRANCH  11  12
ENDBRANCH   1  11
TORSDOF 4
ENDMDL
MODEL 9
REMARK VINA RESULT:      -5.3      6.726      8.243
REMARK  Name = 
REMARK  4 active torsions:
REMARK  status: ('A' for Active; 'I' for Inactive)
REMARK    1  A    between atoms: C_2  and  C_3
REMARK    2  A    between atoms: C_3  and  C_4
REMARK    3  A    between atoms: C_3  and  C_8
REMARK    4  A    between atoms: C_4  and  C_5
REMARK                            x       y       z     vdW  Elec       q    Type
REMARK                         _______ _______ _______ _____ _____    ______ ____
ROOT
ATOM      1  C   UNL     1      -0.464   6.399  -3.090  0.00  0.00    +0.053 C 
ENDROOT
BRANCH   1   2
ATOM      2  C   UNL     1      -0.708   5.622  -4.476  0.00  0.00    -0.020 A 
ATOM      3  C   UNL     1      -1.613   6.082  -5.357  0.00  0.00    -0.003 A 
ATOM      4  C   UNL     1      -1.602   5.548  -6.640  0.00  0.00    +0.011 A 
ATOM      5  C   UNL     1      -0.350   5.317  -7.199  0.00  0.00    +0.058 A 
ATOM      6 CL   UNL     1      -0.136   5.556  -8.907  0.00  0.00    -0.082 Cl
ATOM      7  C   UNL     1       0.609   4.801  -6.354  0.00  0.00    +0.011 A 
ATOM      8  C   UNL     1       0.490   5.156  -5.014  0.00  0.00    -0.003 A 
ENDBRANCH   1   2
BRANCH   1  10
ATOM      9  N   UNL     1      -2.124   5.006  -1.985  0.00  0.00    -0.131 NA
ATOM     10  C   UNL     1      -2.037   6.278  -2.629  0.00  0.00    +0.114 C 
ENDBRANCH   1  10
BRANCH   1  11
ATOM     11  C   UNL     1      -0.055   5.058  -2.232  0.00  0.00    +0.120 C 
BRANCH  11  12
ATOM     12  C   UNL     1       1.305   5.352  -1.681  0.00  0.00    +0.365 C 
ATOM     13  O   UNL     1       1.807   6.609  -2.036  0.00  0.00    -0.246 OA
ATOM     14  O   UNL     1       1.523   4.954  -0.508  0.00  0.00    -0.246 OA
ENDBRANCH  11  12
ENDBRANCH   1  11
TORSDOF 4
ENDMDL
