MODEL 1
REMARK VINA RESULT:      -6.8      0.000      0.000
REMARK  Name = 
REMARK  2 active torsions:
REMARK  status: ('A' for Active; 'I' for Inactive)
REMARK    1  A    between atoms: C_7  and  C_8
REMARK    2  A    between atoms: C_8  and  N_9
REMARK                            x       y       z     vdW  Elec       q    Type
REMARK                         _______ _______ _______ _____ _____    ______ ____
ROOT
ATOM      1  N   UNL     1       0.730   6.018  -7.950  0.00  0.00    -0.265 NA
ATOM      2  C   UNL     1       2.107   6.354  -8.030  0.00  0.00    +0.100 C 
ATOM      3  C   UNL     1       2.638   6.418  -9.420  0.00  0.00    -0.004 A 
ATOM      4  C   UNL     1       1.809   6.472 -10.534  0.00  0.00    +0.006 A 
ATOM      5  S   UNL     1       2.901   5.947 -11.754  0.00  0.00    -0.091 S 
ATOM      6  C   UNL     1       4.363   6.010 -10.852  0.00  0.00    +0.035 A 
ATOM      7  C   UNL     1       0.330   6.373 -10.325  0.00  0.00    +0.050 C 
ATOM      8  C   UNL     1       3.934   6.772  -9.772  0.00  0.00    +0.004 A 
ATOM      9  C   UNL     1       0.151   5.443  -9.130  0.00  0.00    +0.078 C 
ENDROOT
BRANCH   1  10
ATOM     10  C   UNL     1       0.542   5.074  -6.871  0.00  0.00    +0.100 C 
BRANCH  10  13
ATOM     11 CL   UNL     1       1.393   6.794  -4.482  0.00  0.00    -0.083 Cl
ATOM     12  C   UNL     1      -0.254   6.466  -4.936  0.00  0.00    +0.055 A 
ATOM     13  C   UNL     1      -0.518   5.512  -5.911  0.00  0.00    +0.004 A 
ATOM     14  C   UNL     1      -1.857   5.386  -6.261  0.00  0.00    -0.002 A 
ATOM     15  C   UNL     1      -2.783   6.389  -6.043  0.00  0.00    -0.000 A 
ATOM     16  C   UNL     1      -2.453   7.426  -5.181  0.00  0.00    +0.001 A 
ATOM     17  C   UNL     1      -1.218   7.388  -4.571  0.00  0.00    +0.011 A 
ENDBRANCH  10  13
ENDBRANCH   1  10
TORSDOF 2
ENDMDL
MODEL 2
REMARK VINA RESULT:      -6.8      3.202      6.862
REMARK  Name = 
REMARK  2 active torsions:
REMARK  status: ('A' for Active; 'I' for Inactive)
REMARK    1  A    between atoms: C_7  and  C_8
REMARK    2  A    between atoms: C_8  and  N_9
REMARK                            x       y       z     vdW  Elec       q    Type
REMARK                         _______ _______ _______ _____ _____    ______ ____
ROOT
ATOM      1  N   UNL     1       2.688   5.700  -9.248  0.00  0.00    -0.265 NA
ATOM      2  C   UNL     1       2.787   4.994  -8.020  0.00  0.00    +0.100 C 
ATOM      3  C   UNL     1       1.521   4.953  -7.237  0.00  0.00    -0.004 A 
ATOM      4  C   UNL     1       0.289   5.279  -7.792  0.00  0.00    +0.006 A 
ATOM      5  S   UNL     1      -0.610   5.616  -6.366  0.00  0.00    -0.091 S 
ATOM      6  C   UNL     1       0.503   5.022  -5.199  0.00  0.00    +0.035 A 
ATOM      7  C   UNL     1       0.255   5.774  -9.206  0.00  0.00    +0.050 C 
ATOM      8  C   UNL     1       1.340   4.288  -6.032  0.00  0.00    +0.004 A 
ATOM      9  C   UNL     1       1.547   6.559  -9.391  0.00  0.00    +0.078 C 
ENDROOT
BRANCH   1  10
ATOM     10  C   UNL     1       3.870   6.516  -9.414  0.00  0.00    +0.100 C 
BRANCH  10  13
ATOM     11 CL   UNL     1       3.974   5.774 -12.385  0.00  0.00    -0.083 Cl
ATOM     12  C   UNL     1       5.275   5.540 -11.254  0.00  0.00    +0.055 A 
ATOM     13  C   UNL     1       5.044   5.725  -9.897  0.00  0.00    +0.004 A 
ATOM     14  C   UNL     1       6.166   5.597  -9.087  0.00  0.00    -0.002 A 
ATOM     15  C   UNL     1       7.453   5.740  -9.569  0.00  0.00    -0.000 A 
ATOM     16  C   UNL     1       7.661   5.707 -10.940  0.00  0.00    +0.001 A 
ATOM     17  C   UNL     1       6.565   5.513 -11.753  0.00  0.00    +0.011 A 
ENDBRANCH  10  13
ENDBRANCH   1  10
TORSDOF 2
ENDMDL
MODEL 3
REMARK VINA RESULT:      -6.7      3.411      7.079
REMARK  Name = 
REMARK  2 active torsions:
REMARK  status: ('A' for Active; 'I' for Inactive)
REMARK    1  A    between atoms: C_7  and  C_8
REMARK    2  A    between atoms: C_8  and  N_9
REMARK                            x       y       z     vdW  Elec       q    Type
REMARK                         _______ _______ _______ _____ _____    ______ ____
ROOT
ATOM      1  N   UNL     1       4.153   6.104  -7.754  0.00  0.00    -0.265 NA
ATOM      2  C   UNL     1       2.781   6.466  -7.799  0.00  0.00    +0.100 C 
ATOM      3  C   UNL     1       2.153   6.642  -6.461  0.00  0.00    -0.004 A 
ATOM      4  C   UNL     1       2.901   6.767  -5.296  0.00  0.00    +0.006 A 
ATOM      5  S   UNL     1       1.714   6.351  -4.124  0.00  0.00    -0.091 S 
ATOM      6  C   UNL     1       0.322   6.368  -5.132  0.00  0.00    +0.035 A 
ATOM      7  C   UNL     1       4.389   6.631  -5.389  0.00  0.00    +0.050 C 
ATOM      8  C   UNL     1       0.842   7.040  -6.232  0.00  0.00    +0.004 A 
ATOM      9  C   UNL     1       4.634   5.611  -6.495  0.00  0.00    +0.078 C 
ENDROOT
BRANCH   1  10
ATOM     10  C   UNL     1       4.399   5.079  -8.743  0.00  0.00    +0.100 C 
BRANCH  10  13
ATOM     11 CL   UNL     1       3.288   6.342 -11.303  0.00  0.00    -0.083 Cl
ATOM     12  C   UNL     1       4.971   6.294 -10.867  0.00  0.00    +0.055 A 
ATOM     13  C   UNL     1       5.376   5.519  -9.787  0.00  0.00    +0.004 A 
ATOM     14  C   UNL     1       6.725   5.615  -9.469  0.00  0.00    -0.002 A 
ATOM     15  C   UNL     1       7.506   6.692  -9.847  0.00  0.00    -0.000 A 
ATOM     16  C   UNL     1       7.027   7.554 -10.823  0.00  0.00    +0.001 A 
ATOM     17  C   UNL     1       5.797   7.277 -11.381  0.00  0.00    +0.011 A 
ENDBRANCH  10  13
ENDBRANCH   1  10
TORSDOF 2
ENDMDL
MODEL 4
REMARK VINA RESULT:      -6.7      4.301      7.928
REMARK  Name = 
REMARK  2 active torsions:
REMARK  status: ('A' for Active; 'I' for Inactive)
REMARK    1  A    between atoms: C_7  and  C_8
REMARK    2  A    between atoms: C_8  and  N_9
REMARK                            x       y       z     vdW  Elec       q    Type
REMARK                         _______ _______ _______ _____ _____    ______ ____
ROOT
ATOM      1  N   UNL     1       4.649   5.127  -9.496  0.00  0.00    -0.265 NA
ATOM      2  C   UNL     1       5.076   5.458  -8.182  0.00  0.00    +0.100 C 
ATOM      3  C   UNL     1       4.012   5.341  -7.148  0.00  0.00    -0.004 A 
ATOM      4  C   UNL     1       2.819   4.665  -7.377  0.00  0.00    +0.006 A 
ATOM      5  S   UNL     1       1.836   5.352  -6.145  0.00  0.00    -0.091 S 
ATOM      6  C   UNL     1       3.054   6.173  -5.254  0.00  0.00    +0.035 A 
ATOM      7  C   UNL     1       2.567   4.112  -8.746  0.00  0.00    +0.050 C 
ATOM      8  C   UNL     1       4.182   5.560  -5.787  0.00  0.00    +0.004 A 
ATOM      9  C   UNL     1       3.230   5.091  -9.707  0.00  0.00    +0.078 C 
ENDROOT
BRANCH   1  10
ATOM     10  C   UNL     1       5.202   6.089 -10.423  0.00  0.00    +0.100 C 
BRANCH  10  13
ATOM     11 CL   UNL     1       4.574   5.140 -13.267  0.00  0.00    -0.083 Cl
ATOM     12  C   UNL     1       6.172   5.273 -12.592  0.00  0.00    +0.055 A 
ATOM     13  C   UNL     1       6.322   5.518 -11.233  0.00  0.00    +0.004 A 
ATOM     14  C   UNL     1       7.634   5.691 -10.809  0.00  0.00    -0.002 A 
ATOM     15  C   UNL     1       8.654   6.055 -11.669  0.00  0.00    -0.000 A 
ATOM     16  C   UNL     1       8.443   5.952 -13.037  0.00  0.00    +0.001 A 
ATOM     17  C   UNL     1       7.225   5.470 -13.466  0.00  0.00    +0.011 A 
ENDBRANCH  10  13
ENDBRANCH   1  10
TORSDOF 2
ENDMDL
MODEL 5
REMARK VINA RESULT:      -6.6      2.293      2.833
REMARK  Name = 
REMARK  2 active torsions:
REMARK  status: ('A' for Active; 'I' for Inactive)
REMARK    1  A    between atoms: C_7  and  C_8
REMARK    2  A    between atoms: C_8  and  N_9
REMARK                            x       y       z     vdW  Elec       q    Type
REMARK                         _______ _______ _______ _____ _____    ______ ____
ROOT
ATOM      1  N   UNL     1       1.467   6.082  -5.918  0.00  0.00    -0.265 NA
ATOM      2  C   UNL     1       2.742   5.462  -5.983  0.00  0.00    +0.100 C 
ATOM      3  C   UNL     1       3.510   5.776  -7.219  0.00  0.00    -0.004 A 
ATOM      4  C   UNL     1       3.166   6.824  -8.066  0.00  0.00    +0.006 A 
ATOM      5  S   UNL     1       3.971   6.333  -9.503  0.00  0.00    -0.091 S 
ATOM      6  C   UNL     1       4.919   5.054  -8.858  0.00  0.00    +0.035 A 
ATOM      7  C   UNL     1       1.924   7.604  -7.762  0.00  0.00    +0.050 C 
ATOM      8  C   UNL     1       4.797   5.337  -7.503  0.00  0.00    +0.004 A 
ATOM      9  C   UNL     1       0.953   6.600  -7.154  0.00  0.00    +0.078 C 
ENDROOT
BRANCH   1  10
ATOM     10  C   UNL     1       0.507   5.125  -5.416  0.00  0.00    +0.100 C 
BRANCH  10  13
ATOM     11 CL   UNL     1      -2.367   5.474  -6.419  0.00  0.00    -0.083 Cl
ATOM     12  C   UNL     1      -1.845   5.742  -4.781  0.00  0.00    +0.055 A 
ATOM     13  C   UNL     1      -0.487   5.750  -4.489  0.00  0.00    +0.004 A 
ATOM     14  C   UNL     1      -0.178   5.887  -3.141  0.00  0.00    -0.002 A 
ATOM     15  C   UNL     1      -1.074   5.579  -2.135  0.00  0.00    -0.000 A 
ATOM     16  C   UNL     1      -2.414   5.421  -2.459  0.00  0.00    +0.001 A 
ATOM     17  C   UNL     1      -2.784   5.600  -3.775  0.00  0.00    +0.011 A 
ENDBRANCH  10  13
ENDBRANCH   1  10
TORSDOF 2
ENDMDL
MODEL 6
REMARK VINA RESULT:      -6.5      1.557      2.294
REMARK  Name = 
REMARK  2 active torsions:
REMARK  status: ('A' for Active; 'I' for Inactive)
REMARK    1  A    between atoms: C_7  and  C_8
REMARK    2  A    between atoms: C_8  and  N_9
REMARK                            x       y       z     vdW  Elec       q    Type
REMARK                         _______ _______ _______ _____ _____    ______ ____
ROOT
ATOM      1  N   UNL     1       2.325   5.680  -7.628  0.00  0.00    -0.265 NA
ATOM      2  C   UNL     1       2.240   5.549  -9.039  0.00  0.00    +0.100 C 
ATOM      3  C   UNL     1       3.551   5.633  -9.739  0.00  0.00    -0.004 A 
ATOM      4  C   UNL     1       4.764   5.518  -9.069  0.00  0.00    +0.006 A 
ATOM      5  S   UNL     1       5.816   6.257 -10.210  0.00  0.00    -0.091 S 
ATOM      6  C   UNL     1       4.738   6.359 -11.545  0.00  0.00    +0.035 A 
ATOM      7  C   UNL     1       4.742   5.393  -7.577  0.00  0.00    +0.050 C 
ATOM      8  C   UNL     1       3.746   5.488 -11.106  0.00  0.00    +0.004 A 
ATOM      9  C   UNL     1       3.551   6.225  -7.118  0.00  0.00    +0.078 C 
ENDROOT
BRANCH   1  10
ATOM     10  C   UNL     1       1.249   6.530  -7.171  0.00  0.00    +0.100 C 
BRANCH  10  13
ATOM     11 CL   UNL     1       1.461   6.448  -4.116  0.00  0.00    -0.083 Cl
ATOM     12  C   UNL     1       0.103   5.866  -5.035  0.00  0.00    +0.055 A 
ATOM     13  C   UNL     1       0.204   5.769  -6.417  0.00  0.00    +0.004 A 
ATOM     14  C   UNL     1      -0.961   5.376  -7.065  0.00  0.00    -0.002 A 
ATOM     15  C   UNL     1      -2.213   5.515  -6.496  0.00  0.00    -0.000 A 
ATOM     16  C   UNL     1      -2.304   5.765  -5.134  0.00  0.00    +0.001 A 
ATOM     17  C   UNL     1      -1.132   5.843  -4.414  0.00  0.00    +0.011 A 
ENDBRANCH  10  13
ENDBRANCH   1  10
TORSDOF 2
ENDMDL
MODEL 7
REMARK VINA RESULT:      -6.5      3.489      6.708
REMARK  Name = 
REMARK  2 active torsions:
REMARK  status: ('A' for Active; 'I' for Inactive)
REMARK    1  A    between atoms: C_7  and  C_8
REMARK    2  A    between atoms: C_8  and  N_9
REMARK                            x       y       z     vdW  Elec       q    Type
REMARK                         _______ _______ _______ _____ _____    ______ ____
ROOT
ATOM      1  N   UNL     1       2.708   5.901  -9.523  0.00  0.00    -0.265 NA
ATOM      2  C   UNL     1       2.412   4.800  -8.677  0.00  0.00    +0.100 C 
ATOM      3  C   UNL     1       2.169   5.173  -7.256  0.00  0.00    -0.004 A 
ATOM      4  C   UNL     1       1.927   6.483  -6.858  0.00  0.00    +0.006 A 
ATOM      5  S   UNL     1       2.311   6.371  -5.186  0.00  0.00    -0.091 S 
ATOM      6  C   UNL     1       2.428   4.662  -5.050  0.00  0.00    +0.035 A 
ATOM      7  C   UNL     1       2.004   7.564  -7.891  0.00  0.00    +0.050 C 
ATOM      8  C   UNL     1       1.814   4.293  -6.241  0.00  0.00    +0.004 A 
ATOM      9  C   UNL     1       3.088   7.118  -8.865  0.00  0.00    +0.078 C 
ENDROOT
BRANCH   1  10
ATOM     10  C   UNL     1       3.789   5.531 -10.409  0.00  0.00    +0.100 C 
BRANCH  10  13
ATOM     11 CL   UNL     1       5.725   4.585  -8.231  0.00  0.00    -0.083 Cl
ATOM     12  C   UNL     1       6.049   5.866  -9.362  0.00  0.00    +0.055 A 
ATOM     13  C   UNL     1       5.023   6.342 -10.169  0.00  0.00    +0.004 A 
ATOM     14  C   UNL     1       5.404   7.304 -11.097  0.00  0.00    -0.002 A 
ATOM     15  C   UNL     1       6.711   7.453 -11.523  0.00  0.00    -0.000 A 
ATOM     16  C   UNL     1       7.724   6.845 -10.795  0.00  0.00    +0.001 A 
ATOM     17  C   UNL     1       7.371   6.135  -9.668  0.00  0.00    +0.011 A 
ENDBRANCH  10  13
ENDBRANCH   1  10
TORSDOF 2
ENDMDL
MODEL 8
REMARK VINA RESULT:      -6.4      3.325      7.534
REMARK  Name = 
REMARK  2 active torsions:
REMARK  status: ('A' for Active; 'I' for Inactive)
REMARK    1  A    between atoms: C_7  and  C_8
REMARK    2  A    between atoms: C_8  and  N_9
REMARK                            x       y       z     vdW  Elec       q    Type
REMARK                         _______ _______ _______ _____ _____    ______ ____
ROOT
ATOM      1  N   UNL     1       4.293   6.212 -10.707  0.00  0.00    -0.265 NA
ATOM      2  C   UNL     1       4.015   5.790  -9.380  0.00  0.00    +0.100 C 
ATOM      3  C   UNL     1       2.589   5.440  -9.139  0.00  0.00    -0.004 A 
ATOM      4  C   UNL     1       1.687   5.227 -10.175  0.00  0.00    +0.006 A 
ATOM      5  S   UNL     1       0.201   5.455  -9.340  0.00  0.00    -0.091 S 
ATOM      6  C   UNL     1       0.799   5.478  -7.728  0.00  0.00    +0.035 A 
ATOM      7  C   UNL     1       2.154   5.446 -11.581  0.00  0.00    +0.050 C 
ATOM      8  C   UNL     1       2.068   4.955  -7.946  0.00  0.00    +0.004 A 
ATOM      9  C   UNL     1       3.158   6.589 -11.500  0.00  0.00    +0.078 C 
ENDROOT
BRANCH   1  10
ATOM     10  C   UNL     1       5.186   7.349 -10.658  0.00  0.00    +0.100 C 
BRANCH  10  13
ATOM     11 CL   UNL     1       7.493   5.923  -9.233  0.00  0.00    -0.083 Cl
ATOM     12  C   UNL     1       7.447   6.289 -10.934  0.00  0.00    +0.055 A 
ATOM     13  C   UNL     1       6.446   7.115 -11.429  0.00  0.00    +0.004 A 
ATOM     14  C   UNL     1       6.448   7.276 -12.809  0.00  0.00    -0.002 A 
ATOM     15  C   UNL     1       7.051   6.374 -13.665  0.00  0.00    -0.000 A 
ATOM     16  C   UNL     1       7.940   5.446 -13.139  0.00  0.00    +0.001 A 
ATOM     17  C   UNL     1       8.188   5.488 -11.784  0.00  0.00    +0.011 A 
ENDBRANCH  10  13
ENDBRANCH   1  10
TORSDOF 2
ENDMDL
MODEL 9
REMARK VINA RESULT:      -6.3      3.245      7.158
REMARK  Name = 
REMARK  2 active torsions:
REMARK  status: ('A' for Active; 'I' for Inactive)
REMARK    1  A    between atoms: C_7  and  C_8
REMARK    2  A    between atoms: C_8  and  N_9
REMARK                            x       y       z     vdW  Elec       q    Type
REMARK                         _______ _______ _______ _____ _____    ______ ____
ROOT
ATOM      1  N   UNL     1       3.854   5.821  -8.637  0.00  0.00    -0.265 NA
ATOM      2  C   UNL     1       2.444   5.743  -8.781  0.00  0.00    +0.100 C 
ATOM      3  C   UNL     1       1.698   5.748  -7.493  0.00  0.00    -0.004 A 
ATOM      4  C   UNL     1       2.287   6.122  -6.291  0.00  0.00    +0.006 A 
ATOM      5  S   UNL     1       1.203   5.388  -5.177  0.00  0.00    -0.091 S 
ATOM      6  C   UNL     1      -0.053   4.954  -6.268  0.00  0.00    +0.035 A 
ATOM      7  C   UNL     1       3.749   6.446  -6.286  0.00  0.00    +0.050 C 
ATOM      8  C   UNL     1       0.316   5.730  -7.362  0.00  0.00    +0.004 A 
ATOM      9  C   UNL     1       4.371   5.528  -7.331  0.00  0.00    +0.078 C 
ENDROOT
BRANCH   1  10
ATOM     10  C   UNL     1       4.471   4.899  -9.564  0.00  0.00    +0.100 C 
BRANCH  10  13
ATOM     11 CL   UNL     1       7.379   5.829  -9.312  0.00  0.00    -0.083 Cl
ATOM     12  C   UNL     1       6.451   5.851 -10.783  0.00  0.00    +0.055 A 
ATOM     13  C   UNL     1       5.086   5.598 -10.735  0.00  0.00    +0.004 A 
ATOM     14  C   UNL     1       4.453   5.555 -11.972  0.00  0.00    -0.002 A 
ATOM     15  C   UNL     1       5.134   5.314 -13.150  0.00  0.00    -0.000 A 
ATOM     16  C   UNL     1       6.518   5.420 -13.155  0.00  0.00    +0.001 A 
ATOM     17  C   UNL     1       7.141   5.781 -11.980  0.00  0.00    +0.011 A 
ENDBRANCH  10  13
ENDBRANCH   1  10
TORSDOF 2
ENDMDL
