MODEL 1
REMARK VINA RESULT:      -7.7      0.000      0.000
REMARK  Name = 
REMARK  7 active torsions:
REMARK  status: ('A' for Active; 'I' for Inactive)
REMARK    1  A    between atoms: N_2  and  C_3
REMARK    2  A    between atoms: C_3  and  C_4
REMARK    3  A    between atoms: C_4  and  C_5
REMARK    4  A    between atoms: C_5  and  O_6
REMARK    5  A    between atoms: C_5  and  C_17
REMARK    6  A    between atoms: O_6  and  C_7
REMARK    7  A    between atoms: C_10  and  C_11
REMARK                            x       y       z     vdW  Elec       q    Type
REMARK                         _______ _______ _______ _____ _____    ______ ____
ROOT
ATOM      1  C   UNL     1       2.524   5.557  -7.040  0.00  0.00    +0.190 C 
ENDROOT
BRANCH   1   2
ATOM      2  C   UNL     1       3.789   5.851  -6.020  0.00  0.00    +0.017 A 
ATOM      3  C   UNL     1       3.641   7.129  -5.480  0.00  0.00    -0.001 A 
ATOM      4  C   UNL     1       4.569   7.476  -4.506  0.00  0.00    -0.000 A 
ATOM      5  C   UNL     1       5.037   6.482  -3.677  0.00  0.00    -0.000 A 
ATOM      6  C   UNL     1       4.858   5.164  -4.067  0.00  0.00    -0.000 A 
ATOM      7  C   UNL     1       3.914   4.872  -5.045  0.00  0.00    -0.001 A 
ENDBRANCH   1   2
BRANCH   1   8
ATOM      8  C   UNL     1       1.957   4.286  -6.091  0.00  0.00    +0.067 C 
BRANCH   8   9
ATOM      9  C   UNL     1       0.472   4.634  -6.023  0.00  0.00    +0.093 C 
BRANCH   9  11
ATOM     10  C   UNL     1       0.498   5.375  -3.776  0.00  0.00    +0.107 C 
ATOM     11  N   UNL     1       0.211   5.706  -5.082  0.00  0.00    -0.216 NA
ENDBRANCH   9  11
ENDBRANCH   8   9
ENDBRANCH   1   8
BRANCH   1  12
ATOM     12  O   UNL     1       3.400   4.568  -7.892  0.00  0.00    -0.475 OA
BRANCH  12  13
ATOM     13  C   UNL     1       4.277   5.209  -8.745  0.00  0.00    +0.139 A 
ATOM     14  C   UNL     1       5.625   5.056  -8.603  0.00  0.00    +0.037 A 
ATOM     15  C   UNL     1       6.460   5.802  -9.378  0.00  0.00    +0.007 A 
ATOM     16  C   UNL     1       5.970   6.705 -10.274  0.00  0.00    +0.072 A 
ATOM     17  C   UNL     1       4.628   6.954 -10.332  0.00  0.00    +0.007 A 
ATOM     18  C   UNL     1       3.761   6.154  -9.609  0.00  0.00    +0.037 A 
BRANCH  16  19
ATOM     19  C   UNL     1       6.900   7.435 -11.152  0.00  0.00    +0.419 C 
ATOM     20  F   UNL     1       8.016   7.743 -10.386  0.00  0.00    -0.166 F 
ATOM     21  F   UNL     1       7.333   6.714 -12.227  0.00  0.00    -0.166 F 
ATOM     22  F   UNL     1       6.351   8.637 -11.564  0.00  0.00    -0.166 F 
ENDBRANCH  16  19
ENDBRANCH  12  13
ENDBRANCH   1  12
TORSDOF 7
ENDMDL
MODEL 2
REMARK VINA RESULT:      -7.6      0.464      1.428
REMARK  Name = 
REMARK  7 active torsions:
REMARK  status: ('A' for Active; 'I' for Inactive)
REMARK    1  A    between atoms: N_2  and  C_3
REMARK    2  A    between atoms: C_3  and  C_4
REMARK    3  A    between atoms: C_4  and  C_5
REMARK    4  A    between atoms: C_5  and  O_6
REMARK    5  A    between atoms: C_5  and  C_17
REMARK    6  A    between atoms: O_6  and  C_7
REMARK    7  A    between atoms: C_10  and  C_11
REMARK                            x       y       z     vdW  Elec       q    Type
REMARK                         _______ _______ _______ _____ _____    ______ ____
ROOT
ATOM      1  C   UNL     1       2.694   5.632  -6.958  0.00  0.00    +0.190 C 
ENDROOT
BRANCH   1   2
ATOM      2  C   UNL     1       3.928   5.957  -5.910  0.00  0.00    +0.017 A 
ATOM      3  C   UNL     1       3.720   7.219  -5.353  0.00  0.00    -0.001 A 
ATOM      4  C   UNL     1       4.617   7.585  -4.357  0.00  0.00    -0.000 A 
ATOM      5  C   UNL     1       5.109   6.597  -3.536  0.00  0.00    -0.000 A 
ATOM      6  C   UNL     1       4.989   5.279  -3.950  0.00  0.00    -0.000 A 
ATOM      7  C   UNL     1       4.075   4.967  -4.950  0.00  0.00    -0.001 A 
ENDBRANCH   1   2
BRANCH   1   8
ATOM      8  C   UNL     1       2.221   4.266  -6.094  0.00  0.00    +0.067 C 
BRANCH   8   9
ATOM      9  C   UNL     1       0.708   4.471  -6.059  0.00  0.00    +0.093 C 
BRANCH   9  11
ATOM     10  C   UNL     1       0.572   5.335  -3.861  0.00  0.00    +0.107 C 
ATOM     11  N   UNL     1       0.332   5.574  -5.196  0.00  0.00    -0.216 NA
ENDBRANCH   9  11
ENDBRANCH   8   9
ENDBRANCH   1   8
BRANCH   1  12
ATOM     12  O   UNL     1       3.646   4.765  -7.861  0.00  0.00    -0.475 OA
BRANCH  12  13
ATOM     13  C   UNL     1       4.397   5.516  -8.744  0.00  0.00    +0.139 A 
ATOM     14  C   UNL     1       3.791   6.322  -9.664  0.00  0.00    +0.037 A 
ATOM     15  C   UNL     1       4.556   6.947 -10.600  0.00  0.00    +0.007 A 
ATOM     16  C   UNL     1       5.907   6.764 -10.642  0.00  0.00    +0.072 A 
ATOM     17  C   UNL     1       6.503   5.862  -9.807  0.00  0.00    +0.007 A 
ATOM     18  C   UNL     1       5.755   5.277  -8.801  0.00  0.00    +0.037 A 
BRANCH  16  19
ATOM     19  C   UNL     1       6.712   7.519 -11.618  0.00  0.00    +0.419 C 
ATOM     20  F   UNL     1       6.147   7.292 -12.865  0.00  0.00    -0.166 F 
ATOM     21  F   UNL     1       6.714   8.869 -11.412  0.00  0.00    -0.166 F 
ATOM     22  F   UNL     1       8.008   7.035 -11.670  0.00  0.00    -0.166 F 
ENDBRANCH  16  19
ENDBRANCH  12  13
ENDBRANCH   1  12
TORSDOF 7
ENDMDL
MODEL 3
REMARK VINA RESULT:      -7.4      2.743      4.047
REMARK  Name = 
REMARK  7 active torsions:
REMARK  status: ('A' for Active; 'I' for Inactive)
REMARK    1  A    between atoms: N_2  and  C_3
REMARK    2  A    between atoms: C_3  and  C_4
REMARK    3  A    between atoms: C_4  and  C_5
REMARK    4  A    between atoms: C_5  and  O_6
REMARK    5  A    between atoms: C_5  and  C_17
REMARK    6  A    between atoms: O_6  and  C_7
REMARK    7  A    between atoms: C_10  and  C_11
REMARK                            x       y       z     vdW  Elec       q    Type
REMARK                         _______ _______ _______ _____ _____    ______ ____
ROOT
ATOM      1  C   UNL     1       1.259   5.899  -9.293  0.00  0.00    +0.190 C 
ENDROOT
BRANCH   1   2
ATOM      2  C   UNL     1       0.666   5.552  -7.791  0.00  0.00    +0.017 A 
ATOM      3  C   UNL     1       1.123   6.519  -6.896  0.00  0.00    -0.001 A 
ATOM      4  C   UNL     1       0.607   6.429  -5.608  0.00  0.00    -0.000 A 
ATOM      5  C   UNL     1      -0.684   5.980  -5.460  0.00  0.00    -0.000 A 
ATOM      6  C   UNL     1      -1.272   5.307  -6.520  0.00  0.00    -0.000 A 
ATOM      7  C   UNL     1      -0.716   5.433  -7.788  0.00  0.00    -0.001 A 
ENDBRANCH   1   2
BRANCH   1   8
ATOM      8  C   UNL     1       0.060   4.995 -10.057  0.00  0.00    +0.067 C 
BRANCH   8   9
ATOM      9  C   UNL     1       0.248   5.452 -11.502  0.00  0.00    +0.093 C 
BRANCH   9  11
ATOM     10  C   UNL     1      -0.707   7.612 -11.638  0.00  0.00    +0.107 C 
ATOM     11  N   UNL     1       0.462   6.883 -11.593  0.00  0.00    -0.216 NA
ENDBRANCH   9  11
ENDBRANCH   8   9
ENDBRANCH   1   8
BRANCH   1  12
ATOM     12  O   UNL     1       2.209   4.647  -9.242  0.00  0.00    -0.475 OA
BRANCH  12  13
ATOM     13  C   UNL     1       3.539   4.962  -9.435  0.00  0.00    +0.139 A 
ATOM     14  C   UNL     1       4.414   4.969  -8.387  0.00  0.00    +0.037 A 
ATOM     15  C   UNL     1       5.686   5.408  -8.592  0.00  0.00    +0.007 A 
ATOM     16  C   UNL     1       6.089   5.853  -9.817  0.00  0.00    +0.072 A 
ATOM     17  C   UNL     1       5.187   5.967 -10.836  0.00  0.00    +0.007 A 
ATOM     18  C   UNL     1       3.912   5.456 -10.669  0.00  0.00    +0.037 A 
BRANCH  16  19
ATOM     19  C   UNL     1       7.495   6.244 -10.021  0.00  0.00    +0.419 C 
ATOM     20  F   UNL     1       7.481   7.411 -10.772  0.00  0.00    -0.166 F 
ATOM     21  F   UNL     1       8.170   6.512  -8.865  0.00  0.00    -0.166 F 
ATOM     22  F   UNL     1       8.170   5.293 -10.767  0.00  0.00    -0.166 F 
ENDBRANCH  16  19
ENDBRANCH  12  13
ENDBRANCH   1  12
TORSDOF 7
ENDMDL
MODEL 4
REMARK VINA RESULT:      -7.3      2.627      4.745
REMARK  Name = 
REMARK  7 active torsions:
REMARK  status: ('A' for Active; 'I' for Inactive)
REMARK    1  A    between atoms: N_2  and  C_3
REMARK    2  A    between atoms: C_3  and  C_4
REMARK    3  A    between atoms: C_4  and  C_5
REMARK    4  A    between atoms: C_5  and  O_6
REMARK    5  A    between atoms: C_5  and  C_17
REMARK    6  A    between atoms: O_6  and  C_7
REMARK    7  A    between atoms: C_10  and  C_11
REMARK                            x       y       z     vdW  Elec       q    Type
REMARK                         _______ _______ _______ _____ _____    ______ ____
ROOT
ATOM      1  C   UNL     1       1.362   5.024  -9.435  0.00  0.00    +0.190 C 
ENDROOT
BRANCH   1   2
ATOM      2  C   UNL     1       0.578   5.579 -10.778  0.00  0.00    +0.017 A 
ATOM      3  C   UNL     1       0.145   6.882 -10.536  0.00  0.00    -0.001 A 
ATOM      4  C   UNL     1      -0.430   7.530 -11.623  0.00  0.00    -0.000 A 
ATOM      5  C   UNL     1       0.054   7.240 -12.877  0.00  0.00    -0.000 A 
ATOM      6  C   UNL     1       0.806   6.087 -13.040  0.00  0.00    -0.000 A 
ATOM      7  C   UNL     1       1.360   5.480 -11.919  0.00  0.00    -0.001 A 
ENDBRANCH   1   2
BRANCH   1   8
ATOM      8  C   UNL     1       0.100   5.481  -8.418  0.00  0.00    +0.067 C 
BRANCH   8   9
ATOM      9  C   UNL     1       0.742   5.237  -7.054  0.00  0.00    +0.093 C 
BRANCH   9  11
ATOM     10  C   UNL     1      -1.520   5.481  -6.402  0.00  0.00    +0.107 C 
ATOM     11  N   UNL     1      -0.251   5.123  -6.003  0.00  0.00    -0.216 NA
ENDBRANCH   9  11
ENDBRANCH   8   9
ENDBRANCH   1   8
BRANCH   1  12
ATOM     12  O   UNL     1       2.068   6.414  -9.232  0.00  0.00    -0.475 OA
BRANCH  12  13
ATOM     13  C   UNL     1       3.437   6.362  -9.399  0.00  0.00    +0.139 A 
ATOM     14  C   UNL     1       4.041   7.039 -10.419  0.00  0.00    +0.037 A 
ATOM     15  C   UNL     1       5.375   6.862 -10.630  0.00  0.00    +0.007 A 
ATOM     16  C   UNL     1       6.104   6.011  -9.853  0.00  0.00    +0.072 A 
ATOM     17  C   UNL     1       5.483   5.237  -8.914  0.00  0.00    +0.007 A 
ATOM     18  C   UNL     1       4.146   5.458  -8.635  0.00  0.00    +0.037 A 
BRANCH  16  19
ATOM     19  C   UNL     1       7.559   5.907 -10.059  0.00  0.00    +0.419 C 
ATOM     20  F   UNL     1       8.048   5.087  -9.052  0.00  0.00    -0.166 F 
ATOM     21  F   UNL     1       7.912   5.340 -11.251  0.00  0.00    -0.166 F 
ATOM     22  F   UNL     1       8.170   7.139  -9.908  0.00  0.00    -0.166 F 
ENDBRANCH  16  19
ENDBRANCH  12  13
ENDBRANCH   1  12
TORSDOF 7
ENDMDL
MODEL 5
REMARK VINA RESULT:      -7.3      2.365      4.300
REMARK  Name = 
REMARK  7 active torsions:
REMARK  status: ('A' for Active; 'I' for Inactive)
REMARK    1  A    between atoms: N_2  and  C_3
REMARK    2  A    between atoms: C_3  and  C_4
REMARK    3  A    between atoms: C_4  and  C_5
REMARK    4  A    between atoms: C_5  and  O_6
REMARK    5  A    between atoms: C_5  and  C_17
REMARK    6  A    between atoms: O_6  and  C_7
REMARK    7  A    between atoms: C_10  and  C_11
REMARK                            x       y       z     vdW  Elec       q    Type
REMARK                         _______ _______ _______ _____ _____    ______ ____
ROOT
ATOM      1  C   UNL     1       1.321   5.500  -4.886  0.00  0.00    +0.190 C 
ENDROOT
BRANCH   1   2
ATOM      2  C   UNL     1      -0.311   5.746  -4.932  0.00  0.00    +0.017 A 
ATOM      3  C   UNL     1      -0.571   7.080  -4.620  0.00  0.00    -0.001 A 
ATOM      4  C   UNL     1      -1.900   7.470  -4.736  0.00  0.00    -0.000 A 
ATOM      5  C   UNL     1      -2.662   6.883  -5.720  0.00  0.00    -0.000 A 
ATOM      6  C   UNL     1      -2.204   5.706  -6.291  0.00  0.00    -0.000 A 
ATOM      7  C   UNL     1      -0.864   5.364  -6.146  0.00  0.00    -0.001 A 
ENDBRANCH   1   2
BRANCH   1   8
ATOM      8  C   UNL     1       1.475   6.300  -3.412  0.00  0.00    +0.067 C 
BRANCH   8   9
ATOM      9  C   UNL     1       2.711   5.604  -2.847  0.00  0.00    +0.093 C 
BRANCH   9  11
ATOM     10  C   UNL     1       3.670   7.764  -2.948  0.00  0.00    +0.107 C 
ATOM     11  N   UNL     1       3.906   6.408  -3.010  0.00  0.00    -0.216 NA
ENDBRANCH   9  11
ENDBRANCH   8   9
ENDBRANCH   1   8
BRANCH   1  12
ATOM     12  O   UNL     1       1.577   6.838  -5.671  0.00  0.00    -0.475 OA
BRANCH  12  13
ATOM     13  C   UNL     1       2.507   6.709  -6.684  0.00  0.00    +0.139 A 
ATOM     14  C   UNL     1       2.293   7.284  -7.904  0.00  0.00    +0.037 A 
ATOM     15  C   UNL     1       3.167   7.029  -8.916  0.00  0.00    +0.007 A 
ATOM     16  C   UNL     1       4.234   6.199  -8.733  0.00  0.00    +0.072 A 
ATOM     17  C   UNL     1       4.383   5.523  -7.555  0.00  0.00    +0.007 A 
ATOM     18  C   UNL     1       3.550   5.826  -6.493  0.00  0.00    +0.037 A 
BRANCH  16  19
ATOM     19  C   UNL     1       5.203   6.011  -9.826  0.00  0.00    +0.419 C 
ATOM     20  F   UNL     1       5.367   7.247 -10.435  0.00  0.00    -0.166 F 
ATOM     21  F   UNL     1       6.436   5.596  -9.411  0.00  0.00    -0.166 F 
ATOM     22  F   UNL     1       4.702   5.151 -10.788  0.00  0.00    -0.166 F 
ENDBRANCH  16  19
ENDBRANCH  12  13
ENDBRANCH   1  12
TORSDOF 7
ENDMDL
MODEL 6
REMARK VINA RESULT:      -7.2      4.546      6.514
REMARK  Name = 
REMARK  7 active torsions:
REMARK  status: ('A' for Active; 'I' for Inactive)
REMARK    1  A    between atoms: N_2  and  C_3
REMARK    2  A    between atoms: C_3  and  C_4
REMARK    3  A    between atoms: C_4  and  C_5
REMARK    4  A    between atoms: C_5  and  O_6
REMARK    5  A    between atoms: C_5  and  C_17
REMARK    6  A    between atoms: O_6  and  C_7
REMARK    7  A    between atoms: C_10  and  C_11
REMARK                            x       y       z     vdW  Elec       q    Type
REMARK                         _______ _______ _______ _____ _____    ______ ____
ROOT
ATOM      1  C   UNL     1       3.931   5.265  -9.909  0.00  0.00    +0.190 C 
ENDROOT
BRANCH   1   2
ATOM      2  C   UNL     1       5.441   5.738 -10.380  0.00  0.00    +0.017 A 
ATOM      3  C   UNL     1       5.377   7.058 -10.826  0.00  0.00    -0.001 A 
ATOM      4  C   UNL     1       6.599   7.638 -11.145  0.00  0.00    -0.000 A 
ATOM      5  C   UNL     1       7.702   7.263 -10.414  0.00  0.00    -0.000 A 
ATOM      6  C   UNL     1       7.631   6.096  -9.670  0.00  0.00    -0.000 A 
ATOM      7  C   UNL     1       6.382   5.559  -9.377  0.00  0.00    -0.001 A 
ENDBRANCH   1   2
BRANCH   1   8
ATOM      8  C   UNL     1       3.188   6.475 -10.815  0.00  0.00    +0.067 C 
BRANCH   8   9
ATOM      9  C   UNL     1       2.080   5.672 -11.493  0.00  0.00    +0.093 C 
BRANCH   9  11
ATOM     10  C   UNL     1       0.127   4.646 -10.636  0.00  0.00    +0.107 C 
ATOM     11  N   UNL     1       0.806   5.831 -10.817  0.00  0.00    -0.216 NA
ENDBRANCH   9  11
ENDBRANCH   8   9
ENDBRANCH   1   8
BRANCH   1  12
ATOM     12  O   UNL     1       3.993   6.205  -8.651  0.00  0.00    -0.475 OA
BRANCH  12  13
ATOM     13  C   UNL     1       2.879   6.111  -7.841  0.00  0.00    +0.139 A 
ATOM     14  C   UNL     1       2.287   4.904  -7.606  0.00  0.00    +0.037 A 
ATOM     15  C   UNL     1       1.118   4.866  -6.909  0.00  0.00    +0.007 A 
ATOM     16  C   UNL     1       0.527   6.010  -6.462  0.00  0.00    +0.072 A 
ATOM     17  C   UNL     1       1.046   7.228  -6.802  0.00  0.00    +0.007 A 
ATOM     18  C   UNL     1       2.270   7.285  -7.442  0.00  0.00    +0.037 A 
BRANCH  16  19
ATOM     19  C   UNL     1      -0.694   5.925  -5.643  0.00  0.00    +0.419 C 
ATOM     20  F   UNL     1      -0.389   5.125  -4.551  0.00  0.00    -0.166 F 
ATOM     21  F   UNL     1      -1.124   7.127  -5.158  0.00  0.00    -0.166 F 
ATOM     22  F   UNL     1      -1.711   5.291  -6.335  0.00  0.00    -0.166 F 
ENDBRANCH  16  19
ENDBRANCH  12  13
ENDBRANCH   1  12
TORSDOF 7
ENDMDL
MODEL 7
REMARK VINA RESULT:      -7.2      5.184      7.861
REMARK  Name = 
REMARK  7 active torsions:
REMARK  status: ('A' for Active; 'I' for Inactive)
REMARK    1  A    between atoms: N_2  and  C_3
REMARK    2  A    between atoms: C_3  and  C_4
REMARK    3  A    between atoms: C_4  and  C_5
REMARK    4  A    between atoms: C_5  and  O_6
REMARK    5  A    between atoms: C_5  and  C_17
REMARK    6  A    between atoms: O_6  and  C_7
REMARK    7  A    between atoms: C_10  and  C_11
REMARK                            x       y       z     vdW  Elec       q    Type
REMARK                         _______ _______ _______ _____ _____    ______ ____
ROOT
ATOM      1  C   UNL     1       2.136   5.553  -8.168  0.00  0.00    +0.190 C 
ENDROOT
BRANCH   1   2
ATOM      2  C   UNL     1       0.922   5.644  -9.284  0.00  0.00    +0.017 A 
ATOM      3  C   UNL     1       1.064   6.830 -10.003  0.00  0.00    -0.001 A 
ATOM      4  C   UNL     1       0.181   6.992 -11.064  0.00  0.00    -0.000 A 
ATOM      5  C   UNL     1      -0.213   5.869 -11.754  0.00  0.00    -0.000 A 
ATOM      6  C   UNL     1      -0.020   4.632 -11.159  0.00  0.00    -0.000 A 
ATOM      7  C   UNL     1       0.877   4.525 -10.102  0.00  0.00    -0.001 A 
ENDBRANCH   1   2
BRANCH   1   8
ATOM      8  C   UNL     1       2.842   4.230  -8.935  0.00  0.00    +0.067 C 
BRANCH   8   9
ATOM      9  C   UNL     1       4.319   4.600  -8.821  0.00  0.00    +0.093 C 
BRANCH   9  11
ATOM     10  C   UNL     1       4.420   5.358 -11.060  0.00  0.00    +0.107 C 
ATOM     11  N   UNL     1       4.683   5.659  -9.742  0.00  0.00    -0.216 NA
ENDBRANCH   9  11
ENDBRANCH   8   9
ENDBRANCH   1   8
BRANCH   1  12
ATOM     12  O   UNL     1       1.274   4.602  -7.260  0.00  0.00    -0.475 OA
BRANCH  12  13
ATOM     13  C   UNL     1       0.448   5.280  -6.386  0.00  0.00    +0.139 A 
ATOM     14  C   UNL     1      -0.908   5.237  -6.533  0.00  0.00    +0.037 A 
ATOM     15  C   UNL     1      -1.684   6.020  -5.734  0.00  0.00    +0.007 A 
ATOM     16  C   UNL     1      -1.127   6.852  -4.808  0.00  0.00    +0.072 A 
ATOM     17  C   UNL     1       0.230   6.994  -4.743  0.00  0.00    +0.007 A 
ATOM     18  C   UNL     1       1.034   6.154  -5.492  0.00  0.00    +0.037 A 
BRANCH  16  19
ATOM     19  C   UNL     1      -2.000   7.624  -3.907  0.00  0.00    +0.419 C 
ATOM     20  F   UNL     1      -3.280   7.106  -4.047  0.00  0.00    -0.166 F 
ATOM     21  F   UNL     1      -1.664   7.523  -2.587  0.00  0.00    -0.166 F 
ATOM     22  F   UNL     1      -2.059   8.952  -4.292  0.00  0.00    -0.166 F 
ENDBRANCH  16  19
ENDBRANCH  12  13
ENDBRANCH   1  12
TORSDOF 7
ENDMDL
MODEL 8
REMARK VINA RESULT:      -7.2      5.622      8.271
REMARK  Name = 
REMARK  7 active torsions:
REMARK  status: ('A' for Active; 'I' for Inactive)
REMARK    1  A    between atoms: N_2  and  C_3
REMARK    2  A    between atoms: C_3  and  C_4
REMARK    3  A    between atoms: C_4  and  C_5
REMARK    4  A    between atoms: C_5  and  O_6
REMARK    5  A    between atoms: C_5  and  C_17
REMARK    6  A    between atoms: O_6  and  C_7
REMARK    7  A    between atoms: C_10  and  C_11
REMARK                            x       y       z     vdW  Elec       q    Type
REMARK                         _______ _______ _______ _____ _____    ______ ____
ROOT
ATOM      1  C   UNL     1       1.098   6.279  -7.840  0.00  0.00    +0.190 C 
ENDROOT
BRANCH   1   2
ATOM      2  C   UNL     1       0.392   5.918  -9.288  0.00  0.00    +0.017 A 
ATOM      3  C   UNL     1       0.695   6.930 -10.198  0.00  0.00    -0.001 A 
ATOM      4  C   UNL     1       0.268   6.707 -11.501  0.00  0.00    -0.000 A 
ATOM      5  C   UNL     1       0.260   5.412 -11.965  0.00  0.00    -0.000 A 
ATOM      6  C   UNL     1       0.317   4.383 -11.039  0.00  0.00    -0.000 A 
ATOM      7  C   UNL     1       0.754   4.661  -9.748  0.00  0.00    -0.001 A 
ENDBRANCH   1   2
BRANCH   1   8
ATOM      8  C   UNL     1       2.447   5.328  -8.175  0.00  0.00    +0.067 C 
BRANCH   8   9
ATOM      9  C   UNL     1       3.554   6.202  -7.592  0.00  0.00    +0.093 C 
BRANCH   9  11
ATOM     10  C   UNL     1       3.602   7.142  -5.421  0.00  0.00    +0.107 C 
ATOM     11  N   UNL     1       3.031   7.196  -6.674  0.00  0.00    -0.216 NA
ENDBRANCH   9  11
ENDBRANCH   8   9
ENDBRANCH   1   8
BRANCH   1  12
ATOM     12  O   UNL     1       0.378   5.064  -7.149  0.00  0.00    -0.475 OA
BRANCH  12  13
ATOM     13  C   UNL     1      -0.366   5.424  -6.043  0.00  0.00    +0.139 A 
ATOM     14  C   UNL     1       0.186   5.405  -4.795  0.00  0.00    +0.037 A 
ATOM     15  C   UNL     1      -0.612   5.642  -3.717  0.00  0.00    +0.007 A 
ATOM     16  C   UNL     1      -1.946   5.878  -3.866  0.00  0.00    +0.072 A 
ATOM     17  C   UNL     1      -2.527   5.774  -5.098  0.00  0.00    +0.007 A 
ATOM     18  C   UNL     1      -1.724   5.610  -6.212  0.00  0.00    +0.037 A 
BRANCH  16  19
ATOM     19  C   UNL     1      -2.762   6.209  -2.685  0.00  0.00    +0.419 C 
ATOM     20  F   UNL     1      -2.450   5.275  -1.707  0.00  0.00    -0.166 F 
ATOM     21  F   UNL     1      -2.506   7.445  -2.162  0.00  0.00    -0.166 F 
ATOM     22  F   UNL     1      -4.111   6.069  -2.960  0.00  0.00    -0.166 F 
ENDBRANCH  16  19
ENDBRANCH  12  13
ENDBRANCH   1  12
TORSDOF 7
ENDMDL
MODEL 9
REMARK VINA RESULT:      -7.1      3.989      6.300
REMARK  Name = 
REMARK  7 active torsions:
REMARK  status: ('A' for Active; 'I' for Inactive)
REMARK    1  A    between atoms: N_2  and  C_3
REMARK    2  A    between atoms: C_3  and  C_4
REMARK    3  A    between atoms: C_4  and  C_5
REMARK    4  A    between atoms: C_5  and  O_6
REMARK    5  A    between atoms: C_5  and  C_17
REMARK    6  A    between atoms: O_6  and  C_7
REMARK    7  A    between atoms: C_10  and  C_11
REMARK                            x       y       z     vdW  Elec       q    Type
REMARK                         _______ _______ _______ _____ _____    ______ ____
ROOT
ATOM      1  C   UNL     1       3.919   5.290  -9.669  0.00  0.00    +0.190 C 
ENDROOT
BRANCH   1   2
ATOM      2  C   UNL     1       5.266   5.884 -10.416  0.00  0.00    +0.017 A 
ATOM      3  C   UNL     1       5.041   7.220 -10.746  0.00  0.00    -0.001 A 
ATOM      4  C   UNL     1       6.135   7.894 -11.277  0.00  0.00    -0.000 A 
ATOM      5  C   UNL     1       7.388   7.549 -10.825  0.00  0.00    -0.000 A 
ATOM      6  C   UNL     1       7.537   6.339 -10.165  0.00  0.00    -0.000 A 
ATOM      7  C   UNL     1       6.410   5.708  -9.651  0.00  0.00    -0.001 A 
ENDBRANCH   1   2
BRANCH   1   8
ATOM      8  C   UNL     1       2.893   5.937 -10.838  0.00  0.00    +0.067 C 
BRANCH   8   9
ATOM      9  C   UNL     1       1.547   5.407 -10.349  0.00  0.00    +0.093 C 
BRANCH   9  11
ATOM     10  C   UNL     1      -0.078   6.929 -11.150  0.00  0.00    +0.107 C 
ATOM     11  N   UNL     1       0.620   6.481 -10.049  0.00  0.00    -0.216 NA
ENDBRANCH   9  11
ENDBRANCH   8   9
ENDBRANCH   1   8
BRANCH   1  12
ATOM     12  O   UNL     1       3.790   6.591  -8.795  0.00  0.00    -0.475 OA
BRANCH  12  13
ATOM     13  C   UNL     1       3.549   6.333  -7.460  0.00  0.00    +0.139 A 
ATOM     14  C   UNL     1       2.583   7.017  -6.781  0.00  0.00    +0.037 A 
ATOM     15  C   UNL     1       2.461   6.829  -5.438  0.00  0.00    +0.007 A 
ATOM     16  C   UNL     1       3.296   5.985  -4.766  0.00  0.00    +0.072 A 
ATOM     17  C   UNL     1       4.343   5.395  -5.417  0.00  0.00    +0.007 A 
ATOM     18  C   UNL     1       4.437   5.515  -6.791  0.00  0.00    +0.037 A 
BRANCH  16  19
ATOM     19  C   UNL     1       3.082   5.745  -3.329  0.00  0.00    +0.419 C 
ATOM     20  F   UNL     1       3.956   4.733  -2.957  0.00  0.00    -0.166 F 
ATOM     21  F   UNL     1       3.353   6.826  -2.539  0.00  0.00    -0.166 F 
ATOM     22  F   UNL     1       1.801   5.280  -3.090  0.00  0.00    -0.166 F 
ENDBRANCH  16  19
ENDBRANCH  12  13
ENDBRANCH   1  12
TORSDOF 7
ENDMDL
