MODEL 1
REMARK VINA RESULT:      -8.8      0.000      0.000
REMARK  Name = 
REMARK  0 active torsions:
REMARK  status: ('A' for Active; 'I' for Inactive)
REMARK                            x       y       z     vdW  Elec       q    Type
REMARK                         _______ _______ _______ _____ _____    ______ ____
ROOT
ATOM      1 CL   UNL     1      -1.803   8.372  -4.068  0.00  0.00    -0.082 Cl
ATOM      2  C   UNL     1      -1.303   6.931  -4.946  0.00  0.00    +0.058 A 
ATOM      3  C   UNL     1       0.028   6.710  -5.277  0.00  0.00    +0.022 A 
ATOM      4  C   UNL     1       0.348   6.015  -6.433  0.00  0.00    +0.117 A 
ATOM      5  C   UNL     1       1.774   6.224  -6.718  0.00  0.00    +0.327 C 
ATOM      6  N   UNL     1       2.348   5.893  -7.822  0.00  0.00    -0.037 NA
ATOM      7  C   UNL     1       1.849   5.633  -9.132  0.00  0.00    +0.227 A 
ATOM      8  C   UNL     1       0.545   5.260  -9.430  0.00  0.00    +0.188 A 
ATOM      9  O   UNL     1      -0.498   5.014  -8.530  0.00  0.00    -0.449 OA
ATOM     10  C   UNL     1       0.111   5.454 -10.735  0.00  0.00    +0.041 A 
ATOM     11  C   UNL     1       0.795   6.265 -11.629  0.00  0.00    +0.003 A 
ATOM     12  C   UNL     1       2.164   6.374 -11.419  0.00  0.00    +0.004 A 
ATOM     13  C   UNL     1       2.630   6.206 -10.127  0.00  0.00    +0.050 A 
ATOM     14  N   UNL     1       2.587   6.126  -5.542  0.00  0.00    -0.188 N 
ATOM     15  C   UNL     1       2.750   4.769  -5.025  0.00  0.00    +0.221 C 
ATOM     16  C   UNL     1       4.038   4.634  -4.228  0.00  0.00    +0.140 C 
ATOM     17  N   UNL     1       4.293   5.896  -3.567  0.00  0.00    -0.209 NA
ATOM     18  C   UNL     1       3.054   6.604  -3.258  0.00  0.00    +0.140 C 
ATOM     19  C   UNL     1       2.496   7.181  -4.552  0.00  0.00    +0.221 C 
ATOM     20  C   UNL     1      -0.631   5.373  -7.185  0.00  0.00    +0.153 A 
ATOM     21  C   UNL     1      -1.960   5.517  -6.803  0.00  0.00    +0.039 A 
ATOM     22  C   UNL     1      -2.222   6.107  -5.581  0.00  0.00    +0.015 A 
ENDROOT
TORSDOF 0
ENDMDL
MODEL 2
REMARK VINA RESULT:      -8.6      3.308      5.349
REMARK  Name = 
REMARK  0 active torsions:
REMARK  status: ('A' for Active; 'I' for Inactive)
REMARK                            x       y       z     vdW  Elec       q    Type
REMARK                         _______ _______ _______ _____ _____    ______ ____
ROOT
ATOM      1 CL   UNL     1      -0.674   7.880 -11.553  0.00  0.00    -0.082 Cl
ATOM      2  C   UNL     1       0.490   6.560 -11.589  0.00  0.00    +0.058 A 
ATOM      3  C   UNL     1       1.315   6.292 -10.504  0.00  0.00    +0.022 A 
ATOM      4  C   UNL     1       2.580   5.765 -10.708  0.00  0.00    +0.117 A 
ATOM      5  C   UNL     1       3.347   5.905  -9.463  0.00  0.00    +0.327 C 
ATOM      6  N   UNL     1       4.616   5.708  -9.367  0.00  0.00    -0.037 NA
ATOM      7  C   UNL     1       5.669   5.697 -10.329  0.00  0.00    +0.227 A 
ATOM      8  C   UNL     1       5.503   5.477 -11.690  0.00  0.00    +0.188 A 
ATOM      9  O   UNL     1       4.317   5.175 -12.367  0.00  0.00    -0.449 OA
ATOM     10  C   UNL     1       6.522   5.908 -12.530  0.00  0.00    +0.041 A 
ATOM     11  C   UNL     1       7.504   6.794 -12.111  0.00  0.00    +0.003 A 
ATOM     12  C   UNL     1       7.805   6.762 -10.755  0.00  0.00    +0.004 A 
ATOM     13  C   UNL     1       6.807   6.358  -9.885  0.00  0.00    +0.050 A 
ATOM     14  N   UNL     1       2.576   5.561  -8.305  0.00  0.00    -0.188 N 
ATOM     15  C   UNL     1       2.321   4.132  -8.146  0.00  0.00    +0.221 C 
ATOM     16  C   UNL     1       2.079   3.773  -6.688  0.00  0.00    +0.140 C 
ATOM     17  N   UNL     1       1.416   4.892  -6.053  0.00  0.00    -0.209 NA
ATOM     18  C   UNL     1       0.589   5.637  -6.998  0.00  0.00    +0.140 C 
ATOM     19  C   UNL     1       1.506   6.451  -7.901  0.00  0.00    +0.221 C 
ATOM     20  C   UNL     1       2.986   5.327 -11.965  0.00  0.00    +0.153 A 
ATOM     21  C   UNL     1       2.125   5.511 -13.041  0.00  0.00    +0.039 A 
ATOM     22  C   UNL     1       0.832   5.920 -12.773  0.00  0.00    +0.015 A 
ENDROOT
TORSDOF 0
ENDMDL
MODEL 3
REMARK VINA RESULT:      -8.6      2.950      5.673
REMARK  Name = 
REMARK  0 active torsions:
REMARK  status: ('A' for Active; 'I' for Inactive)
REMARK                            x       y       z     vdW  Elec       q    Type
REMARK                         _______ _______ _______ _____ _____    ______ ____
ROOT
ATOM      1 CL   UNL     1       5.838   7.622  -4.118  0.00  0.00    -0.082 Cl
ATOM      2  C   UNL     1       4.586   6.389  -4.017  0.00  0.00    +0.058 A 
ATOM      3  C   UNL     1       3.682   6.189  -5.051  0.00  0.00    +0.022 A 
ATOM      4  C   UNL     1       2.396   5.752  -4.773  0.00  0.00    +0.117 A 
ATOM      5  C   UNL     1       1.569   5.956  -5.970  0.00  0.00    +0.327 C 
ATOM      6  N   UNL     1       0.286   5.851  -5.991  0.00  0.00    -0.037 NA
ATOM      7  C   UNL     1      -0.706   5.909  -4.968  0.00  0.00    +0.227 A 
ATOM      8  C   UNL     1      -0.476   5.668  -3.620  0.00  0.00    +0.188 A 
ATOM      9  O   UNL     1       0.723   5.276  -3.015  0.00  0.00    -0.449 OA
ATOM     10  C   UNL     1      -1.410   6.164  -2.719  0.00  0.00    +0.041 A 
ATOM     11  C   UNL     1      -2.348   7.121  -3.076  0.00  0.00    +0.003 A 
ATOM     12  C   UNL     1      -2.731   7.121  -4.412  0.00  0.00    +0.004 A 
ATOM     13  C   UNL     1      -1.818   6.652  -5.341  0.00  0.00    +0.050 A 
ATOM     14  N   UNL     1       2.244   5.565  -7.173  0.00  0.00    -0.188 N 
ATOM     15  C   UNL     1       2.385   4.123  -7.352  0.00  0.00    +0.221 C 
ATOM     16  C   UNL     1       2.514   3.759  -8.823  0.00  0.00    +0.140 C 
ATOM     17  N   UNL     1       3.216   4.832  -9.492  0.00  0.00    -0.209 NA
ATOM     18  C   UNL     1       4.150   5.508  -8.596  0.00  0.00    +0.140 C 
ATOM     19  C   UNL     1       3.349   6.380  -7.638  0.00  0.00    +0.221 C 
ATOM     20  C   UNL     1       2.035   5.335  -3.496  0.00  0.00    +0.153 A 
ATOM     21  C   UNL     1       2.969   5.449  -2.472  0.00  0.00    +0.039 A 
ATOM     22  C   UNL     1       4.270   5.767  -2.816  0.00  0.00    +0.015 A 
ENDROOT
TORSDOF 0
ENDMDL
MODEL 4
REMARK VINA RESULT:      -8.5      3.195      4.909
REMARK  Name = 
REMARK  0 active torsions:
REMARK  status: ('A' for Active; 'I' for Inactive)
REMARK                            x       y       z     vdW  Elec       q    Type
REMARK                         _______ _______ _______ _____ _____    ______ ____
ROOT
ATOM      1 CL   UNL     1       4.497   6.070  -0.431  0.00  0.00    -0.082 Cl
ATOM      2  C   UNL     1       3.837   6.796  -1.892  0.00  0.00    +0.058 A 
ATOM      3  C   UNL     1       2.739   6.247  -2.541  0.00  0.00    +0.022 A 
ATOM      4  C   UNL     1       2.617   6.365  -3.917  0.00  0.00    +0.117 A 
ATOM      5  C   UNL     1       1.585   5.424  -4.372  0.00  0.00    +0.327 C 
ATOM      6  N   UNL     1       1.366   5.129  -5.606  0.00  0.00    -0.037 NA
ATOM      7  C   UNL     1       2.164   5.241  -6.783  0.00  0.00    +0.227 A 
ATOM      8  C   UNL     1       3.240   6.106  -6.939  0.00  0.00    +0.188 A 
ATOM      9  O   UNL     1       3.711   7.054  -6.025  0.00  0.00    -0.449 OA
ATOM     10  C   UNL     1       4.152   5.808  -7.943  0.00  0.00    +0.041 A 
ATOM     11  C   UNL     1       4.201   4.564  -8.555  0.00  0.00    +0.003 A 
ATOM     12  C   UNL     1       3.001   3.865  -8.595  0.00  0.00    +0.004 A 
ATOM     13  C   UNL     1       2.075   4.121  -7.599  0.00  0.00    +0.050 A 
ATOM     14  N   UNL     1       0.432   5.423  -3.520  0.00  0.00    -0.188 N 
ATOM     15  C   UNL     1      -0.410   6.611  -3.633  0.00  0.00    +0.221 C 
ATOM     16  C   UNL     1      -1.845   6.310  -3.229  0.00  0.00    +0.140 C 
ATOM     17  N   UNL     1      -1.818   5.310  -2.185  0.00  0.00    -0.209 NA
ATOM     18  C   UNL     1      -0.605   5.402  -1.378  0.00  0.00    +0.140 C 
ATOM     19  C   UNL     1       0.556   4.850  -2.195  0.00  0.00    +0.221 C 
ATOM     20  C   UNL     1       3.477   7.175  -4.651  0.00  0.00    +0.153 A 
ATOM     21  C   UNL     1       4.526   7.802  -3.989  0.00  0.00    +0.039 A 
ATOM     22  C   UNL     1       4.535   7.761  -2.607  0.00  0.00    +0.015 A 
ENDROOT
TORSDOF 0
ENDMDL
MODEL 5
REMARK VINA RESULT:      -8.2      1.798      2.270
REMARK  Name = 
REMARK  0 active torsions:
REMARK  status: ('A' for Active; 'I' for Inactive)
REMARK                            x       y       z     vdW  Elec       q    Type
REMARK                         _______ _______ _______ _____ _____    ______ ____
ROOT
ATOM      1 CL   UNL     1      -1.375   8.269  -4.605  0.00  0.00    -0.082 Cl
ATOM      2  C   UNL     1      -0.544   6.764  -4.981  0.00  0.00    +0.058 A 
ATOM      3  C   UNL     1       0.814   6.606  -4.737  0.00  0.00    +0.022 A 
ATOM      4  C   UNL     1       1.574   5.784  -5.553  0.00  0.00    +0.117 A 
ATOM      5  C   UNL     1       2.994   6.064  -5.300  0.00  0.00    +0.327 C 
ATOM      6  N   UNL     1       3.960   5.628  -6.030  0.00  0.00    -0.037 NA
ATOM      7  C   UNL     1       4.019   5.149  -7.372  0.00  0.00    +0.227 A 
ATOM      8  C   UNL     1       2.942   4.635  -8.083  0.00  0.00    +0.188 A 
ATOM      9  O   UNL     1       1.636   4.435  -7.626  0.00  0.00    -0.449 OA
ATOM     10  C   UNL     1       3.051   4.610  -9.467  0.00  0.00    +0.041 A 
ATOM     11  C   UNL     1       4.014   5.340 -10.148  0.00  0.00    +0.003 A 
ATOM     12  C   UNL     1       5.189   5.585  -9.450  0.00  0.00    +0.004 A 
ATOM     13  C   UNL     1       5.116   5.638  -8.068  0.00  0.00    +0.050 A 
ATOM     14  N   UNL     1       3.283   6.196  -3.902  0.00  0.00    -0.188 N 
ATOM     15  C   UNL     1       3.257   4.943  -3.153  0.00  0.00    +0.221 C 
ATOM     16  C   UNL     1       4.132   5.024  -1.911  0.00  0.00    +0.140 C 
ATOM     17  N   UNL     1       4.084   6.382  -1.415  0.00  0.00    -0.209 NA
ATOM     18  C   UNL     1       2.810   7.025  -1.722  0.00  0.00    +0.140 C 
ATOM     19  C   UNL     1       2.792   7.369  -3.206  0.00  0.00    +0.221 C 
ATOM     20  C   UNL     1       0.980   4.967  -6.510  0.00  0.00    +0.153 A 
ATOM     21  C   UNL     1      -0.395   5.056  -6.697  0.00  0.00    +0.039 A 
ATOM     22  C   UNL     1      -1.126   5.788  -5.780  0.00  0.00    +0.015 A 
ENDROOT
TORSDOF 0
ENDMDL
MODEL 6
REMARK VINA RESULT:      -8.2      3.433      6.345
REMARK  Name = 
REMARK  0 active torsions:
REMARK  status: ('A' for Active; 'I' for Inactive)
REMARK                            x       y       z     vdW  Elec       q    Type
REMARK                         _______ _______ _______ _____ _____    ______ ____
ROOT
ATOM      1 CL   UNL     1       1.159   4.473 -13.875  0.00  0.00    -0.082 Cl
ATOM      2  C   UNL     1       1.365   5.660 -12.591  0.00  0.00    +0.058 A 
ATOM      3  C   UNL     1       2.545   5.741 -11.863  0.00  0.00    +0.022 A 
ATOM      4  C   UNL     1       2.516   6.147 -10.538  0.00  0.00    +0.117 A 
ATOM      5  C   UNL     1       3.809   5.816  -9.924  0.00  0.00    +0.327 C 
ATOM      6  N   UNL     1       4.046   5.867  -8.660  0.00  0.00    -0.037 NA
ATOM      7  C   UNL     1       3.195   5.851  -7.515  0.00  0.00    +0.227 A 
ATOM      8  C   UNL     1       1.852   6.207  -7.514  0.00  0.00    +0.188 A 
ATOM      9  O   UNL     1       1.098   6.692  -8.587  0.00  0.00    -0.449 OA
ATOM     10  C   UNL     1       1.075   5.746  -6.459  0.00  0.00    +0.041 A 
ATOM     11  C   UNL     1       1.497   4.727  -5.618  0.00  0.00    +0.003 A 
ATOM     12  C   UNL     1       2.872   4.606  -5.460  0.00  0.00    +0.004 A 
ATOM     13  C   UNL     1       3.678   5.036  -6.500  0.00  0.00    +0.050 A 
ATOM     14  N   UNL     1       4.916   6.137 -10.777  0.00  0.00    -0.188 N 
ATOM     15  C   UNL     1       5.191   7.565 -10.907  0.00  0.00    +0.221 C 
ATOM     16  C   UNL     1       6.647   7.817 -11.265  0.00  0.00    +0.140 C 
ATOM     17  N   UNL     1       7.101   6.723 -12.097  0.00  0.00    -0.209 NA
ATOM     18  C   UNL     1       6.013   6.158 -12.889  0.00  0.00    +0.140 C 
ATOM     19  C   UNL     1       5.126   5.333 -11.965  0.00  0.00    +0.221 C 
ATOM     20  C   UNL     1       1.354   6.648  -9.962  0.00  0.00    +0.153 A 
ATOM     21  C   UNL     1       0.186   6.653 -10.718  0.00  0.00    +0.039 A 
ATOM     22  C   UNL     1       0.288   6.362 -12.065  0.00  0.00    +0.015 A 
ENDROOT
TORSDOF 0
ENDMDL
MODEL 7
REMARK VINA RESULT:      -8.1      3.510      6.948
REMARK  Name = 
REMARK  0 active torsions:
REMARK  status: ('A' for Active; 'I' for Inactive)
REMARK                            x       y       z     vdW  Elec       q    Type
REMARK                         _______ _______ _______ _____ _____    ______ ____
ROOT
ATOM      1 CL   UNL     1       6.122   7.854 -11.827  0.00  0.00    -0.082 Cl
ATOM      2  C   UNL     1       5.651   6.576 -10.712  0.00  0.00    +0.058 A 
ATOM      3  C   UNL     1       4.346   6.464 -10.250  0.00  0.00    +0.022 A 
ATOM      4  C   UNL     1       4.100   5.956  -8.984  0.00  0.00    +0.117 A 
ATOM      5  C   UNL     1       2.710   6.266  -8.622  0.00  0.00    +0.327 C 
ATOM      6  N   UNL     1       2.219   6.122  -7.441  0.00  0.00    -0.037 NA
ATOM      7  C   UNL     1       2.817   6.031  -6.149  0.00  0.00    +0.227 A 
ATOM      8  C   UNL     1       4.129   5.648  -5.903  0.00  0.00    +0.188 A 
ATOM      9  O   UNL     1       5.085   5.231  -6.834  0.00  0.00    -0.449 OA
ATOM     10  C   UNL     1       4.675   6.008  -4.677  0.00  0.00    +0.041 A 
ATOM     11  C   UNL     1       4.095   6.968  -3.861  0.00  0.00    +0.003 A 
ATOM     12  C   UNL     1       2.717   7.105  -3.978  0.00  0.00    +0.004 A 
ATOM     13  C   UNL     1       2.140   6.775  -5.192  0.00  0.00    +0.050 A 
ATOM     14  N   UNL     1       1.800   6.036  -9.705  0.00  0.00    -0.188 N 
ATOM     15  C   UNL     1       1.551   4.628 -10.003  0.00  0.00    +0.221 C 
ATOM     16  C   UNL     1       0.198   4.436 -10.671  0.00  0.00    +0.140 C 
ATOM     17  N   UNL     1      -0.070   5.601 -11.487  0.00  0.00    -0.209 NA
ATOM     18  C   UNL     1       1.160   6.202 -11.991  0.00  0.00    +0.140 C 
ATOM     19  C   UNL     1       1.843   6.934 -10.843  0.00  0.00    +0.221 C 
ATOM     20  C   UNL     1       5.117   5.387  -8.224  0.00  0.00    +0.153 A 
ATOM     21  C   UNL     1       6.415   5.416  -8.724  0.00  0.00    +0.039 A 
ATOM     22  C   UNL     1       6.593   5.813 -10.036  0.00  0.00    +0.015 A 
ENDROOT
TORSDOF 0
ENDMDL
MODEL 8
REMARK VINA RESULT:      -7.8      3.602      5.383
REMARK  Name = 
REMARK  0 active torsions:
REMARK  status: ('A' for Active; 'I' for Inactive)
REMARK                            x       y       z     vdW  Elec       q    Type
REMARK                         _______ _______ _______ _____ _____    ______ ____
ROOT
ATOM      1 CL   UNL     1       8.068   4.996  -9.370  0.00  0.00    -0.082 Cl
ATOM      2  C   UNL     1       6.673   6.030  -9.656  0.00  0.00    +0.058 A 
ATOM      3  C   UNL     1       5.475   5.833  -8.981  0.00  0.00    +0.022 A 
ATOM      4  C   UNL     1       4.273   6.145  -9.596  0.00  0.00    +0.117 A 
ATOM      5  C   UNL     1       3.185   5.530  -8.823  0.00  0.00    +0.327 C 
ATOM      6  N   UNL     1       1.965   5.449  -9.228  0.00  0.00    -0.037 NA
ATOM      7  C   UNL     1       1.368   5.517 -10.521  0.00  0.00    +0.227 A 
ATOM      8  C   UNL     1       1.940   6.122 -11.633  0.00  0.00    +0.188 A 
ATOM      9  O   UNL     1       3.153   6.816 -11.697  0.00  0.00    -0.449 OA
ATOM     10  C   UNL     1       1.454   5.748 -12.879  0.00  0.00    +0.041 A 
ATOM     11  C   UNL     1       0.680   4.611 -13.061  0.00  0.00    +0.003 A 
ATOM     12  C   UNL     1      -0.081   4.219 -11.968  0.00  0.00    +0.004 A 
ATOM     13  C   UNL     1       0.383   4.557 -10.708  0.00  0.00    +0.050 A 
ATOM     14  N   UNL     1       3.361   5.691  -7.410  0.00  0.00    -0.188 N 
ATOM     15  C   UNL     1       3.128   7.046  -6.917  0.00  0.00    +0.221 C 
ATOM     16  C   UNL     1       2.721   7.038  -5.452  0.00  0.00    +0.140 C 
ATOM     17  N   UNL     1       3.400   5.938  -4.802  0.00  0.00    -0.209 NA
ATOM     18  C   UNL     1       4.684   5.648  -5.433  0.00  0.00    +0.140 C 
ATOM     19  C   UNL     1       4.420   4.946  -6.759  0.00  0.00    +0.221 C 
ATOM     20  C   UNL     1       4.238   6.819 -10.813  0.00  0.00    +0.153 A 
ATOM     21  C   UNL     1       5.440   7.099 -11.451  0.00  0.00    +0.039 A 
ATOM     22  C   UNL     1       6.611   6.887 -10.747  0.00  0.00    +0.015 A 
ENDROOT
TORSDOF 0
ENDMDL
MODEL 9
REMARK VINA RESULT:      -7.8      3.496      7.030
REMARK  Name = 
REMARK  0 active torsions:
REMARK  status: ('A' for Active; 'I' for Inactive)
REMARK                            x       y       z     vdW  Elec       q    Type
REMARK                         _______ _______ _______ _____ _____    ______ ____
ROOT
ATOM      1 CL   UNL     1       5.901   8.043 -11.250  0.00  0.00    -0.082 Cl
ATOM      2  C   UNL     1       5.101   6.549 -10.773  0.00  0.00    +0.058 A 
ATOM      3  C   UNL     1       3.761   6.323 -11.059  0.00  0.00    +0.022 A 
ATOM      4  C   UNL     1       2.990   5.552 -10.203  0.00  0.00    +0.117 A 
ATOM      5  C   UNL     1       1.575   5.759 -10.541  0.00  0.00    +0.327 C 
ATOM      6  N   UNL     1       0.591   5.358  -9.816  0.00  0.00    -0.037 NA
ATOM      7  C   UNL     1       0.486   5.000  -8.439  0.00  0.00    +0.227 A 
ATOM      8  C   UNL     1       1.545   4.591  -7.638  0.00  0.00    +0.188 A 
ATOM      9  O   UNL     1       2.876   4.396  -8.019  0.00  0.00    -0.449 OA
ATOM     10  C   UNL     1       1.374   4.687  -6.263  0.00  0.00    +0.041 A 
ATOM     11  C   UNL     1       0.359   5.442  -5.694  0.00  0.00    +0.003 A 
ATOM     12  C   UNL     1      -0.790   5.582  -6.461  0.00  0.00    +0.004 A 
ATOM     13  C   UNL     1      -0.656   5.512  -7.837  0.00  0.00    +0.050 A 
ATOM     14  N   UNL     1       1.346   5.754 -11.956  0.00  0.00    -0.188 N 
ATOM     15  C   UNL     1       1.445   4.439 -12.585  0.00  0.00    +0.221 C 
ATOM     16  C   UNL     1       0.625   4.377 -13.864  0.00  0.00    +0.140 C 
ATOM     17  N   UNL     1       0.653   5.685 -14.481  0.00  0.00    -0.209 NA
ATOM     18  C   UNL     1       1.892   6.398 -14.181  0.00  0.00    +0.140 C 
ATOM     19  C   UNL     1       1.832   6.875 -12.736  0.00  0.00    +0.221 C 
ATOM     20  C   UNL     1       3.565   4.847  -9.150  0.00  0.00    +0.153 A 
ATOM     21  C   UNL     1       4.927   5.000  -8.915  0.00  0.00    +0.039 A 
ATOM     22  C   UNL     1       5.676   5.671  -9.863  0.00  0.00    +0.015 A 
ENDROOT
TORSDOF 0
ENDMDL
