MODEL 1
REMARK VINA RESULT:      -9.8      0.000      0.000
REMARK  Name = 
REMARK  3 active torsions:
REMARK  status: ('A' for Active; 'I' for Inactive)
REMARK    1  A    between atoms: N_10  and  N_11
REMARK    2  A    between atoms: C_12  and  C_14
REMARK    3  A    between atoms: C_19  and  S_20
REMARK                            x       y       z     vdW  Elec       q    Type
REMARK                         _______ _______ _______ _____ _____    ______ ____
ROOT
ATOM      1  N   UNL     1       2.259   5.000  -7.697  0.00  0.00    -0.106 NA
ATOM      2  C   UNL     1       2.834   5.626  -8.846  0.00  0.00    +0.283 C 
ATOM      3  O   UNL     1       2.284   6.685  -9.225  0.00  0.00    -0.267 OA
ENDROOT
BRANCH   1   6
ATOM      4  C   UNL     1       3.560   6.229  -5.399  0.00  0.00    +0.024 C 
ATOM      5  C   UNL     1       2.135   5.393  -5.162  0.00  0.00    +0.099 C 
ATOM      6  N   UNL     1       1.655   5.707  -6.656  0.00  0.00    -0.219 N 
ATOM      7  C   UNL     1       0.244   5.858  -6.451  0.00  0.00    +0.063 A 
ATOM      8  C   UNL     1       0.078   6.608  -5.310  0.00  0.00    -0.006 A 
ATOM      9  C   UNL     1      -1.178   7.072  -4.942  0.00  0.00    -0.003 A 
ATOM     10  C   UNL     1      -2.285   6.440  -5.491  0.00  0.00    -0.000 A 
ATOM     11  C   UNL     1      -2.164   5.566  -6.565  0.00  0.00    +0.001 A 
ATOM     12  C   UNL     1      -0.894   5.406  -7.108  0.00  0.00    +0.016 A 
ATOM     13  C   UNL     1       1.372   6.769  -4.600  0.00  0.00    +0.049 C 
ENDBRANCH   1   6
BRANCH   2  14
ATOM     14  C   UNL     1       4.170   5.326  -9.341  0.00  0.00    +0.058 A 
ATOM     15  C   UNL     1       4.440   5.280 -10.700  0.00  0.00    +0.025 A 
ATOM     16  C   UNL     1       5.698   5.525 -11.186  0.00  0.00    +0.136 A 
ATOM     17  C   UNL     1       6.727   5.877 -10.321  0.00  0.00    +0.076 A 
ATOM     18 CL   UNL     1       8.055   6.860 -10.888  0.00  0.00    -0.081 Cl
ATOM     19  C   UNL     1       6.565   5.519  -8.994  0.00  0.00    +0.013 A 
ATOM     20  C   UNL     1       5.287   5.390  -8.515  0.00  0.00    +0.006 A 
BRANCH  16  21
ATOM     21  S   UNL     1       6.041   5.419 -12.890  0.00  0.00    +0.094 S 
ATOM     22  O   UNL     1       7.320   4.697 -13.161  0.00  0.00    -0.150 OA
ATOM     23  O   UNL     1       4.914   4.641 -13.530  0.00  0.00    -0.150 OA
ATOM     24  N   UNL     1       6.117   7.013 -13.576  0.00  0.00    +0.039 NA
ENDBRANCH  16  21
ENDBRANCH   2  14
TORSDOF 3
ENDMDL
MODEL 2
REMARK VINA RESULT:      -9.4      4.593      8.556
REMARK  Name = 
REMARK  3 active torsions:
REMARK  status: ('A' for Active; 'I' for Inactive)
REMARK    1  A    between atoms: N_10  and  N_11
REMARK    2  A    between atoms: C_12  and  C_14
REMARK    3  A    between atoms: C_19  and  S_20
REMARK                            x       y       z     vdW  Elec       q    Type
REMARK                         _______ _______ _______ _____ _____    ______ ____
ROOT
ATOM      1  N   UNL     1       2.639   4.904  -8.051  0.00  0.00    -0.106 NA
ATOM      2  C   UNL     1       2.164   5.498  -6.840  0.00  0.00    +0.283 C 
ATOM      3  O   UNL     1       2.810   6.486  -6.425  0.00  0.00    -0.267 OA
ENDROOT
BRANCH   1   6
ATOM      4  C   UNL     1       1.358   6.172 -10.340  0.00  0.00    +0.024 C 
ATOM      5  C   UNL     1       2.786   5.340 -10.578  0.00  0.00    +0.099 C 
ATOM      6  N   UNL     1       3.252   5.629  -9.075  0.00  0.00    -0.219 N 
ATOM      7  C   UNL     1       4.664   5.784  -9.265  0.00  0.00    +0.063 A 
ATOM      8  C   UNL     1       4.840   6.553 -10.391  0.00  0.00    -0.006 A 
ATOM      9  C   UNL     1       6.100   7.023 -10.740  0.00  0.00    -0.003 A 
ATOM     10  C   UNL     1       7.202   6.382 -10.192  0.00  0.00    -0.000 A 
ATOM     11  C   UNL     1       7.071   5.490  -9.134  0.00  0.00    +0.001 A 
ATOM     12  C   UNL     1       5.797   5.322  -8.604  0.00  0.00    +0.016 A 
ATOM     13  C   UNL     1       3.553   6.726 -11.110  0.00  0.00    +0.049 C 
ENDBRANCH   1   6
BRANCH   2  14
ATOM     14  C   UNL     1       0.830   5.269  -6.303  0.00  0.00    +0.058 A 
ATOM     15  C   UNL     1       0.600   5.250  -4.935  0.00  0.00    +0.025 A 
ATOM     16  C   UNL     1      -0.629   5.562  -4.415  0.00  0.00    +0.136 A 
ATOM     17  C   UNL     1      -1.666   5.955  -5.253  0.00  0.00    +0.076 A 
ATOM     18 CL   UNL     1      -2.926   7.008  -4.657  0.00  0.00    -0.081 Cl
ATOM     19  C   UNL     1      -1.562   5.576  -6.580  0.00  0.00    +0.013 A 
ATOM     20  C   UNL     1      -0.307   5.379  -7.095  0.00  0.00    +0.006 A 
BRANCH  16  21
ATOM     21  S   UNL     1      -0.925   5.490  -2.700  0.00  0.00    +0.094 S 
ATOM     22  O   UNL     1       0.109   4.685  -1.985  0.00  0.00    -0.150 OA
ATOM     23  O   UNL     1      -0.871   6.906  -2.173  0.00  0.00    -0.150 OA
ATOM     24  N   UNL     1      -2.497   4.813  -2.402  0.00  0.00    +0.039 NA
ENDBRANCH  16  21
ENDBRANCH   2  14
TORSDOF 3
ENDMDL
MODEL 3
REMARK VINA RESULT:      -8.9      1.041      2.883
REMARK  Name = 
REMARK  3 active torsions:
REMARK  status: ('A' for Active; 'I' for Inactive)
REMARK    1  A    between atoms: N_10  and  N_11
REMARK    2  A    between atoms: C_12  and  C_14
REMARK    3  A    between atoms: C_19  and  S_20
REMARK                            x       y       z     vdW  Elec       q    Type
REMARK                         _______ _______ _______ _____ _____    ______ ____
ROOT
ATOM      1  N   UNL     1       2.742   5.154  -7.661  0.00  0.00    -0.106 NA
ATOM      2  C   UNL     1       3.411   5.925  -8.662  0.00  0.00    +0.283 C 
ATOM      3  O   UNL     1       3.080   7.130  -8.737  0.00  0.00    -0.267 OA
ENDROOT
BRANCH   1   6
ATOM      4  C   UNL     1       0.003   5.387  -6.698  0.00  0.00    +0.024 C 
ATOM      5  C   UNL     1       1.049   6.666  -6.458  0.00  0.00    +0.099 C 
ATOM      6  N   UNL     1       2.312   5.682  -6.442  0.00  0.00    -0.219 N 
ATOM      7  C   UNL     1       3.139   6.335  -5.470  0.00  0.00    +0.063 A 
ATOM      8  C   UNL     1       2.322   6.715  -4.432  0.00  0.00    -0.006 A 
ATOM      9  C   UNL     1       2.858   7.221  -3.255  0.00  0.00    -0.003 A 
ATOM     10  C   UNL     1       4.156   7.712  -3.297  0.00  0.00    -0.000 A 
ATOM     11  C   UNL     1       4.989   7.471  -4.382  0.00  0.00    +0.001 A 
ATOM     12  C   UNL     1       4.489   6.657  -5.393  0.00  0.00    +0.016 A 
ATOM     13  C   UNL     1       0.894   6.536  -4.799  0.00  0.00    +0.049 C 
ENDBRANCH   1   6
BRANCH   2  14
ATOM     14  C   UNL     1       4.650   5.508  -9.302  0.00  0.00    +0.058 A 
ATOM     15  C   UNL     1       4.759   5.442 -10.683  0.00  0.00    +0.025 A 
ATOM     16  C   UNL     1       5.971   5.575 -11.310  0.00  0.00    +0.136 A 
ATOM     17  C   UNL     1       7.119   5.830 -10.569  0.00  0.00    +0.076 A 
ATOM     18 CL   UNL     1       8.456   6.692 -11.290  0.00  0.00    -0.081 Cl
ATOM     19  C   UNL     1       7.077   5.484  -9.230  0.00  0.00    +0.013 A 
ATOM     20  C   UNL     1       5.854   5.469  -8.609  0.00  0.00    +0.006 A 
BRANCH  16  21
ATOM     21  S   UNL     1       6.108   5.444 -13.041  0.00  0.00    +0.094 S 
ATOM     22  O   UNL     1       7.351   4.728 -13.453  0.00  0.00    -0.150 OA
ATOM     23  O   UNL     1       4.918   4.649 -13.529  0.00  0.00    -0.150 OA
ATOM     24  N   UNL     1       6.086   7.028 -13.755  0.00  0.00    +0.039 NA
ENDBRANCH  16  21
ENDBRANCH   2  14
TORSDOF 3
ENDMDL
MODEL 4
REMARK VINA RESULT:      -8.9      5.007      8.279
REMARK  Name = 
REMARK  3 active torsions:
REMARK  status: ('A' for Active; 'I' for Inactive)
REMARK    1  A    between atoms: N_10  and  N_11
REMARK    2  A    between atoms: C_12  and  C_14
REMARK    3  A    between atoms: C_19  and  S_20
REMARK                            x       y       z     vdW  Elec       q    Type
REMARK                         _______ _______ _______ _____ _____    ______ ____
ROOT
ATOM      1  N   UNL     1       2.040   4.892  -7.705  0.00  0.00    -0.106 NA
ATOM      2  C   UNL     1       1.435   5.779  -6.761  0.00  0.00    +0.283 C 
ATOM      3  O   UNL     1       1.804   6.974  -6.818  0.00  0.00    -0.267 OA
ENDROOT
BRANCH   1   6
ATOM      4  C   UNL     1       4.753   5.023  -8.759  0.00  0.00    +0.024 C 
ATOM      5  C   UNL     1       3.694   6.266  -9.111  0.00  0.00    +0.099 C 
ATOM      6  N   UNL     1       2.437   5.284  -8.985  0.00  0.00    -0.219 N 
ATOM      7  C   UNL     1       1.581   5.824 -10.001  0.00  0.00    +0.063 A 
ATOM      8  C   UNL     1       2.370   6.089 -11.096  0.00  0.00    -0.006 A 
ATOM      9  C   UNL     1       1.801   6.462 -12.307  0.00  0.00    -0.003 A 
ATOM     10  C   UNL     1       0.503   6.953 -12.286  0.00  0.00    -0.000 A 
ATOM     11  C   UNL     1      -0.301   6.831 -11.159  0.00  0.00    +0.001 A 
ATOM     12  C   UNL     1       0.229   6.134 -10.078  0.00  0.00    +0.016 A 
ATOM     13  C   UNL     1       3.807   5.955 -10.748  0.00  0.00    +0.049 C 
ENDBRANCH   1   6
BRANCH   2  14
ATOM     14  C   UNL     1       0.211   5.468  -6.038  0.00  0.00    +0.058 A 
ATOM     15  C   UNL     1       0.185   5.428  -4.651  0.00  0.00    +0.025 A 
ATOM     16  C   UNL     1      -0.970   5.663  -3.952  0.00  0.00    +0.136 A 
ATOM     17  C   UNL     1      -2.139   5.998  -4.623  0.00  0.00    +0.076 A 
ATOM     18 CL   UNL     1      -3.358   6.971  -3.835  0.00  0.00    -0.081 Cl
ATOM     19  C   UNL     1      -2.210   5.633  -5.957  0.00  0.00    +0.013 A 
ATOM     20  C   UNL     1      -1.035   5.515  -6.653  0.00  0.00    +0.006 A 
BRANCH  16  21
ATOM     21  S   UNL     1      -1.005   5.565  -2.214  0.00  0.00    +0.094 S 
ATOM     22  O   UNL     1      -0.972   6.913  -1.574  0.00  0.00    -0.150 OA
ATOM     23  O   UNL     1      -2.301   4.889  -1.827  0.00  0.00    -0.150 OA
ATOM     24  N   UNL     1       0.340   4.621  -1.649  0.00  0.00    +0.039 NA
ENDBRANCH  16  21
ENDBRANCH   2  14
TORSDOF 3
ENDMDL
MODEL 5
REMARK VINA RESULT:      -8.4      1.930      2.375
REMARK  Name = 
REMARK  3 active torsions:
REMARK  status: ('A' for Active; 'I' for Inactive)
REMARK    1  A    between atoms: N_10  and  N_11
REMARK    2  A    between atoms: C_12  and  C_14
REMARK    3  A    between atoms: C_19  and  S_20
REMARK                            x       y       z     vdW  Elec       q    Type
REMARK                         _______ _______ _______ _____ _____    ______ ____
ROOT
ATOM      1  N   UNL     1       3.244   7.061  -7.049  0.00  0.00    -0.106 NA
ATOM      2  C   UNL     1       3.660   6.092  -8.014  0.00  0.00    +0.283 C 
ATOM      3  O   UNL     1       3.602   4.896  -7.649  0.00  0.00    -0.267 OA
ENDROOT
BRANCH   1   6
ATOM      4  C   UNL     1       3.484   7.214  -4.150  0.00  0.00    +0.024 C 
ATOM      5  C   UNL     1       2.630   5.945  -4.819  0.00  0.00    +0.099 C 
ATOM      6  N   UNL     1       2.248   6.825  -6.100  0.00  0.00    -0.219 N 
ATOM      7  C   UNL     1       0.929   6.332  -6.372  0.00  0.00    +0.063 A 
ATOM      8  C   UNL     1       0.279   6.228  -5.164  0.00  0.00    -0.006 A 
ATOM      9  C   UNL     1      -1.079   5.940  -5.112  0.00  0.00    -0.003 A 
ATOM     10  C   UNL     1      -1.660   5.365  -6.234  0.00  0.00    -0.000 A 
ATOM     11  C   UNL     1      -0.996   5.323  -7.453  0.00  0.00    +0.001 A 
ATOM     12  C   UNL     1       0.247   5.942  -7.518  0.00  0.00    +0.016 A 
ATOM     13  C   UNL     1       1.230   6.423  -4.041  0.00  0.00    +0.049 C 
ENDBRANCH   1   6
BRANCH   2  14
ATOM     14  C   UNL     1       3.776   6.375  -9.438  0.00  0.00    +0.058 A 
ATOM     15  C   UNL     1       5.016   6.459 -10.055  0.00  0.00    +0.025 A 
ATOM     16  C   UNL     1       5.165   6.199 -11.392  0.00  0.00    +0.136 A 
ATOM     17  C   UNL     1       4.076   5.793 -12.153  0.00  0.00    +0.076 A 
ATOM     18 CL   UNL     1       4.315   4.796 -13.568  0.00  0.00    -0.081 Cl
ATOM     19  C   UNL     1       2.824   6.111 -11.656  0.00  0.00    +0.013 A 
ATOM     20  C   UNL     1       2.691   6.256 -10.299  0.00  0.00    +0.006 A 
BRANCH  16  21
ATOM     21  S   UNL     1       6.715   6.353 -12.171  0.00  0.00    +0.094 S 
ATOM     22  O   UNL     1       6.634   7.150 -13.430  0.00  0.00    -0.150 OA
ATOM     23  O   UNL     1       7.633   7.076 -11.211  0.00  0.00    -0.150 OA
ATOM     24  N   UNL     1       7.358   4.777 -12.521  0.00  0.00    +0.039 NA
ENDBRANCH  16  21
ENDBRANCH   2  14
TORSDOF 3
ENDMDL
MODEL 6
REMARK VINA RESULT:      -8.3      4.679      8.404
REMARK  Name = 
REMARK  3 active torsions:
REMARK  status: ('A' for Active; 'I' for Inactive)
REMARK    1  A    between atoms: N_10  and  N_11
REMARK    2  A    between atoms: C_12  and  C_14
REMARK    3  A    between atoms: C_19  and  S_20
REMARK                            x       y       z     vdW  Elec       q    Type
REMARK                         _______ _______ _______ _____ _____    ______ ____
ROOT
ATOM      1  N   UNL     1       1.900   6.382  -7.115  0.00  0.00    -0.106 NA
ATOM      2  C   UNL     1       0.739   5.613  -7.437  0.00  0.00    +0.283 C 
ATOM      3  O   UNL     1       0.837   4.864  -8.435  0.00  0.00    -0.267 OA
ENDROOT
BRANCH   1   6
ATOM      4  C   UNL     1       3.661   5.015  -5.241  0.00  0.00    +0.024 C 
ATOM      5  C   UNL     1       4.297   6.218  -6.208  0.00  0.00    +0.099 C 
ATOM      6  N   UNL     1       3.204   5.940  -7.343  0.00  0.00    -0.219 N 
ATOM      7  C   UNL     1       3.982   6.189  -8.521  0.00  0.00    +0.063 A 
ATOM      8  C   UNL     1       5.208   5.595  -8.331  0.00  0.00    -0.006 A 
ATOM      9  C   UNL     1       6.126   5.514  -9.370  0.00  0.00    -0.003 A 
ATOM     10  C   UNL     1       5.964   6.379 -10.443  0.00  0.00    -0.000 A 
ATOM     11  C   UNL     1       4.795   7.109 -10.616  0.00  0.00    +0.001 A 
ATOM     12  C   UNL     1       3.768   6.882  -9.707  0.00  0.00    +0.016 A 
ATOM     13  C   UNL     1       5.355   5.142  -6.925  0.00  0.00    +0.049 C 
ENDBRANCH   1   6
BRANCH   2  14
ATOM     14  C   UNL     1      -0.353   5.379  -6.503  0.00  0.00    +0.058 A 
ATOM     15  C   UNL     1      -0.132   5.336  -5.134  0.00  0.00    +0.025 A 
ATOM     16  C   UNL     1      -1.125   5.643  -4.241  0.00  0.00    +0.136 A 
ATOM     17  C   UNL     1      -2.372   6.057  -4.694  0.00  0.00    +0.076 A 
ATOM     18 CL   UNL     1      -3.364   7.103  -3.708  0.00  0.00    -0.081 Cl
ATOM     19  C   UNL     1      -2.705   5.701  -5.990  0.00  0.00    +0.013 A 
ATOM     20  C   UNL     1      -1.684   5.509  -6.885  0.00  0.00    +0.006 A 
BRANCH  16  21
ATOM     21  S   UNL     1      -0.855   5.541  -2.524  0.00  0.00    +0.094 S 
ATOM     22  O   UNL     1       0.277   4.627  -2.187  0.00  0.00    -0.150 OA
ATOM     23  O   UNL     1      -0.504   6.929  -2.039  0.00  0.00    -0.150 OA
ATOM     24  N   UNL     1      -2.300   4.992  -1.731  0.00  0.00    +0.039 NA
ENDBRANCH  16  21
ENDBRANCH   2  14
TORSDOF 3
ENDMDL
MODEL 7
REMARK VINA RESULT:      -8.2      4.664      8.396
REMARK  Name = 
REMARK  3 active torsions:
REMARK  status: ('A' for Active; 'I' for Inactive)
REMARK    1  A    between atoms: N_10  and  N_11
REMARK    2  A    between atoms: C_12  and  C_14
REMARK    3  A    between atoms: C_19  and  S_20
REMARK                            x       y       z     vdW  Elec       q    Type
REMARK                         _______ _______ _______ _____ _____    ______ ____
ROOT
ATOM      1  N   UNL     1       3.944   4.838  -7.705  0.00  0.00    -0.106 NA
ATOM      2  C   UNL     1       3.994   5.329  -6.363  0.00  0.00    +0.283 C 
ATOM      3  O   UNL     1       4.736   6.317  -6.169  0.00  0.00    -0.267 OA
ENDROOT
BRANCH   1   6
ATOM      4  C   UNL     1       1.811   5.934  -9.358  0.00  0.00    +0.024 C 
ATOM      5  C   UNL     1       3.171   5.320 -10.107  0.00  0.00    +0.099 C 
ATOM      6  N   UNL     1       4.075   5.656  -8.829  0.00  0.00    -0.219 N 
ATOM      7  C   UNL     1       5.307   6.015  -9.468  0.00  0.00    +0.063 A 
ATOM      8  C   UNL     1       4.989   6.815 -10.540  0.00  0.00    -0.006 A 
ATOM      9  C   UNL     1       5.983   7.466 -11.260  0.00  0.00    -0.003 A 
ATOM     10  C   UNL     1       7.280   6.984 -11.147  0.00  0.00    -0.000 A 
ATOM     11  C   UNL     1       7.633   6.071 -10.161  0.00  0.00    +0.001 A 
ATOM     12  C   UNL     1       6.646   5.714  -9.250  0.00  0.00    +0.016 A 
ATOM     13  C   UNL     1       3.524   6.808 -10.780  0.00  0.00    +0.049 C 
ENDBRANCH   1   6
BRANCH   2  14
ATOM     14  C   UNL     1       2.999   5.002  -5.352  0.00  0.00    +0.058 A 
ATOM     15  C   UNL     1       3.256   5.192  -4.002  0.00  0.00    +0.025 A 
ATOM     16  C   UNL     1       2.242   5.404  -3.105  0.00  0.00    +0.136 A 
ATOM     17  C   UNL     1       0.925   5.484  -3.542  0.00  0.00    +0.076 A 
ATOM     18 CL   UNL     1      -0.243   6.425  -2.648  0.00  0.00    -0.081 Cl
ATOM     19  C   UNL     1       0.645   4.895  -4.763  0.00  0.00    +0.013 A 
ATOM     20  C   UNL     1       1.663   4.800  -5.678  0.00  0.00    +0.006 A 
BRANCH  16  21
ATOM     21  S   UNL     1       2.568   5.594  -1.405  0.00  0.00    +0.094 S 
ATOM     22  O   UNL     1       2.371   7.002  -0.949  0.00  0.00    -0.150 OA
ATOM     23  O   UNL     1       1.594   4.714  -0.657  0.00  0.00    -0.150 OA
ATOM     24  N   UNL     1       4.196   5.094  -1.058  0.00  0.00    +0.039 NA
ENDBRANCH  16  21
ENDBRANCH   2  14
TORSDOF 3
ENDMDL
MODEL 8
REMARK VINA RESULT:      -7.9      4.256      7.843
REMARK  Name = 
REMARK  3 active torsions:
REMARK  status: ('A' for Active; 'I' for Inactive)
REMARK    1  A    between atoms: N_10  and  N_11
REMARK    2  A    between atoms: C_12  and  C_14
REMARK    3  A    between atoms: C_19  and  S_20
REMARK                            x       y       z     vdW  Elec       q    Type
REMARK                         _______ _______ _______ _____ _____    ______ ____
ROOT
ATOM      1  N   UNL     1       0.906   6.649  -9.258  0.00  0.00    -0.106 NA
ATOM      2  C   UNL     1       0.107   5.533  -8.859  0.00  0.00    +0.283 C 
ATOM      3  O   UNL     1       0.115   4.549  -9.633  0.00  0.00    -0.267 OA
ENDROOT
BRANCH   1   6
ATOM      4  C   UNL     1       1.263   6.819 -12.145  0.00  0.00    +0.024 C 
ATOM      5  C   UNL     1       2.080   5.631 -11.304  0.00  0.00    +0.099 C 
ATOM      6  N   UNL     1       2.097   6.525  -9.977  0.00  0.00    -0.219 N 
ATOM      7  C   UNL     1       3.372   6.160  -9.432  0.00  0.00    +0.063 A 
ATOM      8  C   UNL     1       4.267   6.139 -10.476  0.00  0.00    -0.006 A 
ATOM      9  C   UNL     1       5.628   5.986 -10.241  0.00  0.00    -0.003 A 
ATOM     10  C   UNL     1       6.016   5.455  -9.019  0.00  0.00    -0.000 A 
ATOM     11  C   UNL     1       5.119   5.330  -7.965  0.00  0.00    +0.001 A 
ATOM     12  C   UNL     1       3.835   5.823  -8.166  0.00  0.00    +0.016 A 
ATOM     13  C   UNL     1       3.557   6.255 -11.775  0.00  0.00    +0.049 C 
ENDBRANCH   1   6
BRANCH   2  14
ATOM     14  C   UNL     1      -0.382   5.341  -7.501  0.00  0.00    +0.058 A 
ATOM     15  C   UNL     1       0.485   5.331  -6.419  0.00  0.00    +0.025 A 
ATOM     16  C   UNL     1       0.061   5.677  -5.163  0.00  0.00    +0.136 A 
ATOM     17  C   UNL     1      -1.247   6.096  -4.955  0.00  0.00    +0.076 A 
ATOM     18 CL   UNL     1      -1.623   7.184  -3.640  0.00  0.00    -0.081 Cl
ATOM     19  C   UNL     1      -2.175   5.712  -5.907  0.00  0.00    +0.013 A 
ATOM     20  C   UNL     1      -1.728   5.481  -7.182  0.00  0.00    +0.006 A 
BRANCH  16  21
ATOM     21  S   UNL     1       1.143   5.616  -3.800  0.00  0.00    +0.094 S 
ATOM     22  O   UNL     1       2.389   4.851  -4.105  0.00  0.00    -0.150 OA
ATOM     23  O   UNL     1       1.531   7.039  -3.467  0.00  0.00    -0.150 OA
ATOM     24  N   UNL     1       0.338   4.895  -2.439  0.00  0.00    +0.039 NA
ENDBRANCH  16  21
ENDBRANCH   2  14
TORSDOF 3
ENDMDL
MODEL 9
REMARK VINA RESULT:      -7.9      4.727      8.391
REMARK  Name = 
REMARK  3 active torsions:
REMARK  status: ('A' for Active; 'I' for Inactive)
REMARK    1  A    between atoms: N_10  and  N_11
REMARK    2  A    between atoms: C_12  and  C_14
REMARK    3  A    between atoms: C_19  and  S_20
REMARK                            x       y       z     vdW  Elec       q    Type
REMARK                         _______ _______ _______ _____ _____    ______ ____
ROOT
ATOM      1  N   UNL     1       1.076   6.730  -8.143  0.00  0.00    -0.106 NA
ATOM      2  C   UNL     1       0.927   5.783  -7.083  0.00  0.00    +0.283 C 
ATOM      3  O   UNL     1       1.113   4.584  -7.390  0.00  0.00    -0.267 OA
ENDROOT
BRANCH   1   6
ATOM      4  C   UNL     1       0.485   6.785 -10.995  0.00  0.00    +0.024 C 
ATOM      5  C   UNL     1       1.534   5.622 -10.415  0.00  0.00    +0.099 C 
ATOM      6  N   UNL     1       1.973   6.567  -9.200  0.00  0.00    -0.219 N 
ATOM      7  C   UNL     1       3.357   6.212  -9.080  0.00  0.00    +0.063 A 
ATOM      8  C   UNL     1       3.869   6.141 -10.355  0.00  0.00    -0.006 A 
ATOM      9  C   UNL     1       5.234   5.985 -10.564  0.00  0.00    -0.003 A 
ATOM     10  C   UNL     1       5.996   5.498  -9.511  0.00  0.00    -0.000 A 
ATOM     11  C   UNL     1       5.486   5.422  -8.221  0.00  0.00    +0.001 A 
ATOM     12  C   UNL     1       4.204   5.920  -8.018  0.00  0.00    +0.016 A 
ATOM     13  C   UNL     1       2.779   6.214 -11.360  0.00  0.00    +0.049 C 
ENDBRANCH   1   6
BRANCH   2  14
ATOM     14  C   UNL     1       0.944   6.147  -5.673  0.00  0.00    +0.058 A 
ATOM     15  C   UNL     1      -0.233   6.331  -4.963  0.00  0.00    +0.025 A 
ATOM     16  C   UNL     1      -0.283   6.150  -3.606  0.00  0.00    +0.136 A 
ATOM     17  C   UNL     1       0.844   5.725  -2.913  0.00  0.00    +0.076 A 
ATOM     18 CL   UNL     1       0.675   4.819  -1.429  0.00  0.00    -0.081 Cl
ATOM     19  C   UNL     1       2.064   5.948  -3.528  0.00  0.00    +0.013 A 
ATOM     20  C   UNL     1       2.090   6.013  -4.897  0.00  0.00    +0.006 A 
BRANCH  16  21
ATOM     21  S   UNL     1      -1.753   6.429  -2.715  0.00  0.00    +0.094 S 
ATOM     22  O   UNL     1      -1.511   7.200  -1.459  0.00  0.00    -0.150 OA
ATOM     23  O   UNL     1      -2.670   7.242  -3.600  0.00  0.00    -0.150 OA
ATOM     24  N   UNL     1      -2.505   4.911  -2.328  0.00  0.00    +0.039 NA
ENDBRANCH  16  21
ENDBRANCH   2  14
TORSDOF 3
ENDMDL
