MODEL 1
REMARK VINA RESULT:      -8.1      0.000      0.000
REMARK  Name = 
REMARK  12 active torsions:
REMARK  status: ('A' for Active; 'I' for Inactive)
REMARK    1  A    between atoms: C_2  and  C_3
REMARK    2  A    between atoms: C_3  and  C_4
REMARK    3  A    between atoms: C_4  and  C_5
REMARK    4  A    between atoms: C_5  and  C_6
REMARK    5  A    between atoms: C_6  and  N_7
REMARK    6  A    between atoms: C_6  and  C_20
REMARK    7  A    between atoms: N_7  and  C_8
REMARK    8  A    between atoms: C_8  and  C_9
REMARK    9  A    between atoms: C_8  and  C_17
REMARK   10  A    between atoms: C_9  and  C_10
REMARK   11  A    between atoms: C_10  and  C_11
REMARK   12  A    between atoms: CA_26  and  C_27
REMARK                            x       y       z     vdW  Elec       q    Type
REMARK                         _______ _______ _______ _____ _____    ______ ____
ROOT
ATOM      1  CA  UNL     1       0.583   6.098  -6.872  0.00  0.00    +0.149 C 
ENDROOT
BRANCH   1   2
ATOM      2  C   UNL     1       1.488   5.184  -5.849  0.00  0.00    +0.242 C 
ATOM      3  N   UNL     1       2.334   6.107  -5.132  0.00  0.00    -0.270 N 
ATOM      4  CA  UNL     1       2.824   5.448  -3.754  0.00  0.00    +0.179 C 
ATOM      5  CB  UNL     1       4.024   4.594  -4.552  0.00  0.00    +0.033 C 
ATOM      6  CG  UNL     1       4.664   5.689  -5.326  0.00  0.00    +0.024 C 
ATOM      7  CD  UNL     1       3.545   6.597  -5.724  0.00  0.00    +0.094 C 
ATOM      8  O   UNL     1       2.061   4.221  -6.381  0.00  0.00    -0.273 OA
BRANCH   4   9
ATOM      9  C   UNL     1       3.823   6.710  -3.400  0.00  0.00    +0.382 C 
ATOM     10  OXT UNL     1       2.979   7.781  -3.070  0.00  0.00    -0.244 OA
ATOM     11  O   UNL     1       4.614   6.414  -2.452  0.00  0.00    -0.244 OA
ENDBRANCH   4   9
ENDBRANCH   1   2
BRANCH   1  12
ATOM     12  N   UNL     1       1.120   5.300  -8.160  0.00  0.00    -0.200 NA
BRANCH  12  13
ATOM     13  CA  UNL     1       1.505   6.573  -9.055  0.00  0.00    +0.176 C 
BRANCH  13  14
ATOM     14  C   UNL     1       0.238   6.302 -10.067  0.00  0.00    +0.380 C 
ATOM     15  OXT UNL     1       0.369   5.128 -10.804  0.00  0.00    -0.244 OA
ATOM     16  O   UNL     1       0.175   7.360 -10.769  0.00  0.00    -0.244 OA
ENDBRANCH  13  14
BRANCH  13  17
ATOM     17  C   UNL     1       2.538   5.655 -10.002  0.00  0.00    +0.034 C 
BRANCH  17  18
ATOM     18  C   UNL     1       3.746   5.678  -9.067  0.00  0.00    +0.028 C 
BRANCH  18  19
ATOM     19  C   UNL     1       4.964   5.929  -9.899  0.00  0.00    -0.022 A 
ATOM     20  C   UNL     1       6.181   5.599  -9.320  0.00  0.00    -0.004 A 
ATOM     21  C   UNL     1       7.378   6.140  -9.764  0.00  0.00    -0.000 A 
ATOM     22  C   UNL     1       7.315   7.214 -10.635  0.00  0.00    -0.000 A 
ATOM     23  C   UNL     1       6.116   7.556 -11.218  0.00  0.00    -0.000 A 
ATOM     24  C   UNL     1       4.950   7.084 -10.657  0.00  0.00    -0.004 A 
ENDBRANCH  18  19
ENDBRANCH  17  18
ENDBRANCH  13  17
ENDBRANCH  12  13
ENDBRANCH   1  12
BRANCH   1  25
ATOM     25  CB  UNL     1      -0.762   5.109  -6.721  0.00  0.00    +0.027 C 
BRANCH  25  26
ATOM     26  CG  UNL     1      -1.791   5.943  -6.041  0.00  0.00    +0.003 C 
BRANCH  26  27
ATOM     27  CD  UNL     1      -1.751   5.934  -4.552  0.00  0.00    +0.021 C 
BRANCH  27  29
ATOM     28  NZ  UNL     1      -2.714   4.811  -2.608  0.00  0.00    -0.131 NA
ATOM     29  CE  UNL     1      -2.956   5.336  -3.893  0.00  0.00    +0.109 C 
ENDBRANCH  27  29
ENDBRANCH  26  27
ENDBRANCH  25  26
ENDBRANCH   1  25
TORSDOF 12
ENDMDL
MODEL 2
REMARK VINA RESULT:      -7.7      3.291      7.156
REMARK  Name = 
REMARK  12 active torsions:
REMARK  status: ('A' for Active; 'I' for Inactive)
REMARK    1  A    between atoms: C_2  and  C_3
REMARK    2  A    between atoms: C_3  and  C_4
REMARK    3  A    between atoms: C_4  and  C_5
REMARK    4  A    between atoms: C_5  and  C_6
REMARK    5  A    between atoms: C_6  and  N_7
REMARK    6  A    between atoms: C_6  and  C_20
REMARK    7  A    between atoms: N_7  and  C_8
REMARK    8  A    between atoms: C_8  and  C_9
REMARK    9  A    between atoms: C_8  and  C_17
REMARK   10  A    between atoms: C_9  and  C_10
REMARK   11  A    between atoms: C_10  and  C_11
REMARK   12  A    between atoms: CA_26  and  C_27
REMARK                            x       y       z     vdW  Elec       q    Type
REMARK                         _______ _______ _______ _____ _____    ______ ____
ROOT
ATOM      1  CA  UNL     1       3.364   5.552 -10.733  0.00  0.00    +0.149 C 
ENDROOT
BRANCH   1   2
ATOM      2  C   UNL     1       4.522   6.639 -11.158  0.00  0.00    +0.242 C 
ATOM      3  N   UNL     1       5.743   5.884 -11.304  0.00  0.00    -0.270 N 
ATOM      4  CA  UNL     1       6.774   6.680 -12.241  0.00  0.00    +0.179 C 
ATOM      5  CB  UNL     1       7.243   7.649 -10.957  0.00  0.00    +0.033 C 
ATOM      6  CG  UNL     1       7.541   6.613  -9.934  0.00  0.00    +0.024 C 
ATOM      7  CD  UNL     1       6.527   5.537 -10.154  0.00  0.00    +0.094 C 
ATOM      8  O   UNL     1       4.585   7.642 -10.431  0.00  0.00    -0.273 OA
BRANCH   4   9
ATOM      9  C   UNL     1       7.985   5.592 -11.989  0.00  0.00    +0.382 C 
ATOM     10  OXT UNL     1       7.640   4.460 -12.741  0.00  0.00    -0.244 OA
ATOM     11  O   UNL     1       9.109   6.072 -12.332  0.00  0.00    -0.244 OA
ENDBRANCH   4   9
ENDBRANCH   1   2
BRANCH   1  12
ATOM     12  N   UNL     1       2.854   6.476  -9.521  0.00  0.00    -0.200 NA
BRANCH  12  13
ATOM     13  CA  UNL     1       2.926   5.368  -8.365  0.00  0.00    +0.176 C 
BRANCH  13  14
ATOM     14  C   UNL     1       1.383   5.692  -7.896  0.00  0.00    +0.380 C 
ATOM     15  OXT UNL     1       1.237   6.957  -7.334  0.00  0.00    -0.244 OA
ATOM     16  O   UNL     1       1.093   4.732  -7.115  0.00  0.00    -0.244 OA
ENDBRANCH  13  14
BRANCH  13  17
ATOM     17  C   UNL     1       3.554   6.477  -7.276  0.00  0.00    +0.034 C 
BRANCH  17  18
ATOM     18  C   UNL     1       4.630   5.578  -6.669  0.00  0.00    +0.028 C 
BRANCH  18  19
ATOM     19  C   UNL     1       4.765   5.939  -5.223  0.00  0.00    -0.022 A 
ATOM     20  C   UNL     1       4.432   4.948  -4.310  0.00  0.00    -0.004 A 
ATOM     21  C   UNL     1       4.106   5.239  -2.994  0.00  0.00    -0.000 A 
ATOM     22  C   UNL     1       3.870   6.564  -2.668  0.00  0.00    -0.000 A 
ATOM     23  C   UNL     1       4.193   7.559  -3.561  0.00  0.00    -0.000 A 
ATOM     24  C   UNL     1       4.388   7.223  -4.883  0.00  0.00    -0.004 A 
ENDBRANCH  18  19
ENDBRANCH  17  18
ENDBRANCH  13  17
ENDBRANCH  12  13
ENDBRANCH   1  12
BRANCH   1  25
ATOM     25  CB  UNL     1       2.238   6.189 -11.799  0.00  0.00    +0.027 C 
BRANCH  25  26
ATOM     26  CG  UNL     1       1.024   5.342 -11.645  0.00  0.00    +0.003 C 
BRANCH  26  27
ATOM     27  CD  UNL     1       0.553   4.655 -12.879  0.00  0.00    +0.021 C 
BRANCH  27  29
ATOM     28  NZ  UNL     1       0.652   5.712 -15.078  0.00  0.00    -0.131 NA
ATOM     29  CE  UNL     1       1.347   4.958 -14.112  0.00  0.00    +0.109 C 
ENDBRANCH  27  29
ENDBRANCH  26  27
ENDBRANCH  25  26
ENDBRANCH   1  25
TORSDOF 12
ENDMDL
MODEL 3
REMARK VINA RESULT:      -7.6      2.500      4.467
REMARK  Name = 
REMARK  12 active torsions:
REMARK  status: ('A' for Active; 'I' for Inactive)
REMARK    1  A    between atoms: C_2  and  C_3
REMARK    2  A    between atoms: C_3  and  C_4
REMARK    3  A    between atoms: C_4  and  C_5
REMARK    4  A    between atoms: C_5  and  C_6
REMARK    5  A    between atoms: C_6  and  N_7
REMARK    6  A    between atoms: C_6  and  C_20
REMARK    7  A    between atoms: N_7  and  C_8
REMARK    8  A    between atoms: C_8  and  C_9
REMARK    9  A    between atoms: C_8  and  C_17
REMARK   10  A    between atoms: C_9  and  C_10
REMARK   11  A    between atoms: C_10  and  C_11
REMARK   12  A    between atoms: CA_26  and  C_27
REMARK                            x       y       z     vdW  Elec       q    Type
REMARK                         _______ _______ _______ _____ _____    ______ ____
ROOT
ATOM      1  CA  UNL     1       1.111   5.111  -5.752  0.00  0.00    +0.149 C 
ENDROOT
BRANCH   1   2
ATOM      2  C   UNL     1       0.387   6.318  -4.904  0.00  0.00    +0.242 C 
ATOM      3  N   UNL     1      -0.900   5.805  -4.501  0.00  0.00    -0.270 N 
ATOM      4  CA  UNL     1      -1.446   6.620  -3.231  0.00  0.00    +0.179 C 
ATOM      5  CB  UNL     1      -1.981   7.864  -4.218  0.00  0.00    +0.033 C 
ATOM      6  CG  UNL     1      -2.762   7.093  -5.221  0.00  0.00    +0.024 C 
ATOM      7  CD  UNL     1      -2.008   5.817  -5.413  0.00  0.00    +0.094 C 
ATOM      8  O   UNL     1       0.380   7.421  -5.470  0.00  0.00    -0.273 OA
BRANCH   4   9
ATOM      9  C   UNL     1      -2.902   5.849  -3.247  0.00  0.00    +0.382 C 
ATOM     10  OXT UNL     1      -2.669   4.586  -2.685  0.00  0.00    -0.244 OA
ATOM     11  O   UNL     1      -3.774   6.508  -2.600  0.00  0.00    -0.244 OA
ENDBRANCH   4   9
ENDBRANCH   1   2
BRANCH   1  12
ATOM     12  N   UNL     1       0.945   5.904  -7.140  0.00  0.00    -0.200 NA
BRANCH  12  13
ATOM     13  CA  UNL     1       2.494   5.939  -7.552  0.00  0.00    +0.176 C 
BRANCH  13  14
ATOM     14  C   UNL     1       2.248   7.223  -8.549  0.00  0.00    +0.380 C 
ATOM     15  OXT UNL     1       2.155   8.433  -7.868  0.00  0.00    -0.244 OA
ATOM     16  O   UNL     1       1.205   6.906  -9.204  0.00  0.00    -0.244 OA
ENDBRANCH  13  14
BRANCH  13  17
ATOM     17  C   UNL     1       2.238   4.845  -8.795  0.00  0.00    +0.034 C 
BRANCH  17  18
ATOM     18  C   UNL     1       3.605   4.166  -8.754  0.00  0.00    +0.028 C 
BRANCH  18  19
ATOM     19  C   UNL     1       4.609   5.123  -9.315  0.00  0.00    -0.022 A 
ATOM     20  C   UNL     1       4.605   5.279 -10.693  0.00  0.00    -0.004 A 
ATOM     21  C   UNL     1       5.700   5.778 -11.381  0.00  0.00    -0.000 A 
ATOM     22  C   UNL     1       6.898   5.884 -10.695  0.00  0.00    -0.000 A 
ATOM     23  C   UNL     1       6.921   5.731  -9.327  0.00  0.00    -0.000 A 
ATOM     24  C   UNL     1       5.852   5.117  -8.712  0.00  0.00    -0.004 A 
ENDBRANCH  18  19
ENDBRANCH  17  18
ENDBRANCH  13  17
ENDBRANCH  12  13
ENDBRANCH   1  12
BRANCH   1  25
ATOM     25  CB  UNL     1       2.651   5.723  -5.494  0.00  0.00    +0.027 C 
BRANCH  25  26
ATOM     26  CG  UNL     1       3.214   4.916  -4.378  0.00  0.00    +0.003 C 
BRANCH  26  27
ATOM     27  CD  UNL     1       3.652   5.685  -3.180  0.00  0.00    +0.021 C 
BRANCH  27  29
ATOM     28  NZ  UNL     1       3.068   5.116  -0.877  0.00  0.00    -0.131 NA
ATOM     29  CE  UNL     1       3.928   4.857  -1.964  0.00  0.00    +0.109 C 
ENDBRANCH  27  29
ENDBRANCH  26  27
ENDBRANCH  25  26
ENDBRANCH   1  25
TORSDOF 12
ENDMDL
MODEL 4
REMARK VINA RESULT:      -7.6      2.176      7.981
REMARK  Name = 
REMARK  12 active torsions:
REMARK  status: ('A' for Active; 'I' for Inactive)
REMARK    1  A    between atoms: C_2  and  C_3
REMARK    2  A    between atoms: C_3  and  C_4
REMARK    3  A    between atoms: C_4  and  C_5
REMARK    4  A    between atoms: C_5  and  C_6
REMARK    5  A    between atoms: C_6  and  N_7
REMARK    6  A    between atoms: C_6  and  C_20
REMARK    7  A    between atoms: N_7  and  C_8
REMARK    8  A    between atoms: C_8  and  C_9
REMARK    9  A    between atoms: C_8  and  C_17
REMARK   10  A    between atoms: C_9  and  C_10
REMARK   11  A    between atoms: C_10  and  C_11
REMARK   12  A    between atoms: CA_26  and  C_27
REMARK                            x       y       z     vdW  Elec       q    Type
REMARK                         _______ _______ _______ _____ _____    ______ ____
ROOT
ATOM      1  CA  UNL     1       4.047   5.973  -8.415  0.00  0.00    +0.149 C 
ENDROOT
BRANCH   1   2
ATOM      2  C   UNL     1       3.028   5.012  -9.275  0.00  0.00    +0.242 C 
ATOM      3  N   UNL     1       2.359   5.879 -10.213  0.00  0.00    -0.270 N 
ATOM      4  CA  UNL     1       1.798   5.025 -11.450  0.00  0.00    +0.179 C 
ATOM      5  CB  UNL     1       0.458   4.555 -10.560  0.00  0.00    +0.033 C 
ATOM      6  CG  UNL     1      -0.012   5.875 -10.067  0.00  0.00    +0.024 C 
ATOM      7  CD  UNL     1       1.230   6.664  -9.804  0.00  0.00    +0.094 C 
ATOM      8  O   UNL     1       2.295   4.284  -8.588  0.00  0.00    -0.273 OA
BRANCH   4   9
ATOM      9  C   UNL     1       1.025   6.320 -12.113  0.00  0.00    +0.382 C 
ATOM     10  OXT UNL     1       2.022   7.068 -12.756  0.00  0.00    -0.244 OA
ATOM     11  O   UNL     1       0.114   5.947 -12.914  0.00  0.00    -0.244 OA
ENDBRANCH   4   9
ENDBRANCH   1   2
BRANCH   1  12
ATOM     12  N   UNL     1       3.638   5.269  -7.028  0.00  0.00    -0.200 NA
BRANCH  12  13
ATOM     13  CA  UNL     1       3.243   6.599  -6.224  0.00  0.00    +0.176 C 
BRANCH  13  14
ATOM     14  C   UNL     1       4.546   6.443  -5.233  0.00  0.00    +0.380 C 
ATOM     15  OXT UNL     1       4.430   5.381  -4.341  0.00  0.00    -0.244 OA
ATOM     16  O   UNL     1       4.651   7.584  -4.683  0.00  0.00    -0.244 OA
ENDBRANCH  13  14
BRANCH  13  17
ATOM     17  C   UNL     1       2.265   5.731  -5.175  0.00  0.00    +0.034 C 
BRANCH  17  18
ATOM     18  C   UNL     1       1.321   6.867  -4.790  0.00  0.00    +0.028 C 
BRANCH  18  19
ATOM     19  C   UNL     1       0.067   6.713  -5.593  0.00  0.00    -0.022 A 
ATOM     20  C   UNL     1      -1.090   7.232  -5.030  0.00  0.00    -0.004 A 
ATOM     21  C   UNL     1      -2.352   6.815  -5.425  0.00  0.00    -0.000 A 
ATOM     22  C   UNL     1      -2.437   5.684  -6.219  0.00  0.00    -0.000 A 
ATOM     23  C   UNL     1      -1.299   5.155  -6.785  0.00  0.00    -0.000 A 
ATOM     24  C   UNL     1      -0.074   5.516  -6.267  0.00  0.00    -0.004 A 
ENDBRANCH  18  19
ENDBRANCH  17  18
ENDBRANCH  13  17
ENDBRANCH  12  13
ENDBRANCH   1  12
BRANCH   1  25
ATOM     25  CB  UNL     1       5.356   4.951  -8.640  0.00  0.00    +0.027 C 
BRANCH  25  26
ATOM     26  CG  UNL     1       6.407   5.790  -9.278  0.00  0.00    +0.003 C 
BRANCH  26  27
ATOM     27  CD  UNL     1       6.430   5.777 -10.767  0.00  0.00    +0.021 C 
BRANCH  27  29
ATOM     28  NZ  UNL     1       7.691   4.703 -12.562  0.00  0.00    -0.131 NA
ATOM     29  CE  UNL     1       7.761   5.458 -11.374  0.00  0.00    +0.109 C 
ENDBRANCH  27  29
ENDBRANCH  26  27
ENDBRANCH  25  26
ENDBRANCH   1  25
TORSDOF 12
ENDMDL
MODEL 5
REMARK VINA RESULT:      -7.6      3.439      7.751
REMARK  Name = 
REMARK  12 active torsions:
REMARK  status: ('A' for Active; 'I' for Inactive)
REMARK    1  A    between atoms: C_2  and  C_3
REMARK    2  A    between atoms: C_3  and  C_4
REMARK    3  A    between atoms: C_4  and  C_5
REMARK    4  A    between atoms: C_5  and  C_6
REMARK    5  A    between atoms: C_6  and  N_7
REMARK    6  A    between atoms: C_6  and  C_20
REMARK    7  A    between atoms: N_7  and  C_8
REMARK    8  A    between atoms: C_8  and  C_9
REMARK    9  A    between atoms: C_8  and  C_17
REMARK   10  A    between atoms: C_9  and  C_10
REMARK   11  A    between atoms: C_10  and  C_11
REMARK   12  A    between atoms: CA_26  and  C_27
REMARK                            x       y       z     vdW  Elec       q    Type
REMARK                         _______ _______ _______ _____ _____    ______ ____
ROOT
ATOM      1  CA  UNL     1       3.476   5.504 -11.133  0.00  0.00    +0.149 C 
ENDROOT
BRANCH   1   2
ATOM      2  C   UNL     1       4.665   6.621 -11.335  0.00  0.00    +0.242 C 
ATOM      3  N   UNL     1       5.896   5.877 -11.448  0.00  0.00    -0.270 N 
ATOM      4  CA  UNL     1       7.005   6.758 -12.200  0.00  0.00    +0.179 C 
ATOM      5  CB  UNL     1       7.353   7.587 -10.785  0.00  0.00    +0.033 C 
ATOM      6  CG  UNL     1       7.560   6.449  -9.852  0.00  0.00    +0.024 C 
ATOM      7  CD  UNL     1       6.574   5.408 -10.273  0.00  0.00    +0.094 C 
ATOM      8  O   UNL     1       4.659   7.543 -10.506  0.00  0.00    -0.273 OA
BRANCH   4   9
ATOM      9  C   UNL     1       8.192   5.642 -11.953  0.00  0.00    +0.382 C 
ATOM     10  OXT UNL     1       7.821   4.522 -12.710  0.00  0.00    -0.244 OA
ATOM     11  O   UNL     1       9.326   6.098 -12.294  0.00  0.00    -0.244 OA
ENDBRANCH   4   9
ENDBRANCH   1   2
BRANCH   1  12
ATOM     12  N   UNL     1       2.549   6.545 -10.333  0.00  0.00    -0.200 NA
BRANCH  12  13
ATOM     13  CA  UNL     1       2.690   5.883  -8.880  0.00  0.00    +0.176 C 
BRANCH  13  14
ATOM     14  C   UNL     1       2.137   4.437  -9.434  0.00  0.00    +0.380 C 
ATOM     15  OXT UNL     1       0.773   4.444  -9.711  0.00  0.00    -0.244 OA
ATOM     16  O   UNL     1       2.488   3.610  -8.535  0.00  0.00    -0.244 OA
ENDBRANCH  13  14
BRANCH  13  17
ATOM     17  C   UNL     1       1.147   6.379  -8.452  0.00  0.00    +0.034 C 
BRANCH  17  18
ATOM     18  C   UNL     1       1.432   6.687  -6.984  0.00  0.00    +0.028 C 
BRANCH  18  19
ATOM     19  C   UNL     1       0.236   6.267  -6.188  0.00  0.00    -0.022 A 
ATOM     20  C   UNL     1      -0.747   5.573  -6.877  0.00  0.00    -0.004 A 
ATOM     21  C   UNL     1      -2.051   5.488  -6.414  0.00  0.00    -0.000 A 
ATOM     22  C   UNL     1      -2.420   6.325  -5.374  0.00  0.00    -0.000 A 
ATOM     23  C   UNL     1      -1.458   7.022  -4.679  0.00  0.00    -0.000 A 
ATOM     24  C   UNL     1      -0.212   7.175  -5.248  0.00  0.00    -0.004 A 
ENDBRANCH  18  19
ENDBRANCH  17  18
ENDBRANCH  13  17
ENDBRANCH  12  13
ENDBRANCH   1  12
BRANCH   1  25
ATOM     25  CB  UNL     1       2.753   5.864 -12.601  0.00  0.00    +0.027 C 
BRANCH  25  26
ATOM     26  CG  UNL     1       1.555   6.679 -12.262  0.00  0.00    +0.003 C 
BRANCH  26  27
ATOM     27  CD  UNL     1       0.629   6.970 -13.391  0.00  0.00    +0.021 C 
BRANCH  27  29
ATOM     28  NZ  UNL     1       1.370   6.894 -15.718  0.00  0.00    -0.131 NA
ATOM     29  CE  UNL     1       0.866   6.158 -14.627  0.00  0.00    +0.109 C 
ENDBRANCH  27  29
ENDBRANCH  26  27
ENDBRANCH  25  26
ENDBRANCH   1  25
TORSDOF 12
ENDMDL
MODEL 6
REMARK VINA RESULT:      -7.6      2.767      5.307
REMARK  Name = 
REMARK  12 active torsions:
REMARK  status: ('A' for Active; 'I' for Inactive)
REMARK    1  A    between atoms: C_2  and  C_3
REMARK    2  A    between atoms: C_3  and  C_4
REMARK    3  A    between atoms: C_4  and  C_5
REMARK    4  A    between atoms: C_5  and  C_6
REMARK    5  A    between atoms: C_6  and  N_7
REMARK    6  A    between atoms: C_6  and  C_20
REMARK    7  A    between atoms: N_7  and  C_8
REMARK    8  A    between atoms: C_8  and  C_9
REMARK    9  A    between atoms: C_8  and  C_17
REMARK   10  A    between atoms: C_9  and  C_10
REMARK   11  A    between atoms: C_10  and  C_11
REMARK   12  A    between atoms: CA_26  and  C_27
REMARK                            x       y       z     vdW  Elec       q    Type
REMARK                         _______ _______ _______ _____ _____    ______ ____
ROOT
ATOM      1  CA  UNL     1       1.170   5.123  -5.625  0.00  0.00    +0.149 C 
ENDROOT
BRANCH   1   2
ATOM      2  C   UNL     1       0.449   6.326  -4.767  0.00  0.00    +0.242 C 
ATOM      3  N   UNL     1      -0.872   5.847  -4.441  0.00  0.00    -0.270 N 
ATOM      4  CA  UNL     1      -1.447   6.638  -3.170  0.00  0.00    +0.179 C 
ATOM      5  CB  UNL     1      -1.893   7.933  -4.135  0.00  0.00    +0.033 C 
ATOM      6  CG  UNL     1      -2.653   7.225  -5.198  0.00  0.00    +0.024 C 
ATOM      7  CD  UNL     1      -1.935   5.930  -5.402  0.00  0.00    +0.094 C 
ATOM      8  O   UNL     1       0.507   7.447  -5.294  0.00  0.00    -0.273 OA
BRANCH   4   9
ATOM      9  C   UNL     1      -2.927   5.922  -3.278  0.00  0.00    +0.382 C 
ATOM     10  OXT UNL     1      -2.749   4.610  -2.815  0.00  0.00    -0.244 OA
ATOM     11  O   UNL     1      -3.792   6.557  -2.599  0.00  0.00    -0.244 OA
ENDBRANCH   4   9
ENDBRANCH   1   2
BRANCH   1  12
ATOM     12  N   UNL     1       1.416   6.087  -6.887  0.00  0.00    -0.200 NA
BRANCH  12  13
ATOM     13  CA  UNL     1       1.481   4.948  -8.014  0.00  0.00    +0.176 C 
BRANCH  13  14
ATOM     14  C   UNL     1       2.623   5.781  -8.855  0.00  0.00    +0.380 C 
ATOM     15  OXT UNL     1       3.923   5.444  -8.491  0.00  0.00    -0.244 OA
ATOM     16  O   UNL     1       2.320   7.000  -8.658  0.00  0.00    -0.244 OA
ENDBRANCH  13  14
BRANCH  13  17
ATOM     17  C   UNL     1       0.235   5.664  -8.877  0.00  0.00    +0.034 C 
BRANCH  17  18
ATOM     18  C   UNL     1       0.206   4.681 -10.046  0.00  0.00    +0.028 C 
BRANCH  18  19
ATOM     19  C   UNL     1      -0.050   5.463 -11.295  0.00  0.00    -0.022 A 
ATOM     20  C   UNL     1       0.726   5.132 -12.397  0.00  0.00    -0.004 A 
ATOM     21  C   UNL     1       0.907   6.004 -13.459  0.00  0.00    -0.000 A 
ATOM     22  C   UNL     1       0.504   7.318 -13.289  0.00  0.00    -0.000 A 
ATOM     23  C   UNL     1      -0.265   7.664 -12.202  0.00  0.00    -0.000 A 
ATOM     24  C   UNL     1      -0.310   6.808 -11.123  0.00  0.00    -0.004 A 
ENDBRANCH  18  19
ENDBRANCH  17  18
ENDBRANCH  13  17
ENDBRANCH  12  13
ENDBRANCH   1  12
BRANCH   1  25
ATOM     25  CB  UNL     1       2.685   5.443  -4.983  0.00  0.00    +0.027 C 
BRANCH  25  26
ATOM     26  CG  UNL     1       2.528   5.301  -3.510  0.00  0.00    +0.003 C 
BRANCH  26  27
ATOM     27  CD  UNL     1       3.780   5.414  -2.712  0.00  0.00    +0.021 C 
BRANCH  27  29
ATOM     28  NZ  UNL     1       3.127   5.893  -0.408  0.00  0.00    -0.131 NA
ATOM     29  CE  UNL     1       3.670   4.943  -1.295  0.00  0.00    +0.109 C 
ENDBRANCH  27  29
ENDBRANCH  26  27
ENDBRANCH  25  26
ENDBRANCH   1  25
TORSDOF 12
ENDMDL
MODEL 7
REMARK VINA RESULT:      -7.4      2.847      7.640
REMARK  Name = 
REMARK  12 active torsions:
REMARK  status: ('A' for Active; 'I' for Inactive)
REMARK    1  A    between atoms: C_2  and  C_3
REMARK    2  A    between atoms: C_3  and  C_4
REMARK    3  A    between atoms: C_4  and  C_5
REMARK    4  A    between atoms: C_5  and  C_6
REMARK    5  A    between atoms: C_6  and  N_7
REMARK    6  A    between atoms: C_6  and  C_20
REMARK    7  A    between atoms: N_7  and  C_8
REMARK    8  A    between atoms: C_8  and  C_9
REMARK    9  A    between atoms: C_8  and  C_17
REMARK   10  A    between atoms: C_9  and  C_10
REMARK   11  A    between atoms: C_10  and  C_11
REMARK   12  A    between atoms: CA_26  and  C_27
REMARK                            x       y       z     vdW  Elec       q    Type
REMARK                         _______ _______ _______ _____ _____    ______ ____
ROOT
ATOM      1  CA  UNL     1       2.834   6.797  -3.441  0.00  0.00    +0.149 C 
ENDROOT
BRANCH   1   2
ATOM      2  C   UNL     1       3.032   5.918  -4.815  0.00  0.00    +0.242 C 
ATOM      3  N   UNL     1       2.353   6.648  -5.857  0.00  0.00    -0.270 N 
ATOM      4  CA  UNL     1       2.935   6.230  -7.292  0.00  0.00    +0.179 C 
ATOM      5  CB  UNL     1       1.987   4.848  -7.311  0.00  0.00    +0.033 C 
ATOM      6  CG  UNL     1       0.658   5.431  -6.992  0.00  0.00    +0.024 C 
ATOM      7  CD  UNL     1       0.932   6.533  -6.020  0.00  0.00    +0.094 C 
ATOM      8  O   UNL     1       2.740   4.717  -4.712  0.00  0.00    -0.273 OA
BRANCH   4   9
ATOM      9  C   UNL     1       1.817   7.125  -8.108  0.00  0.00    +0.382 C 
ATOM     10  OXT UNL     1       2.178   8.463  -7.900  0.00  0.00    -0.244 OA
ATOM     11  O   UNL     1       1.799   6.819  -9.341  0.00  0.00    -0.244 OA
ENDBRANCH   4   9
ENDBRANCH   1   2
BRANCH   1  12
ATOM     12  N   UNL     1       2.138   5.564  -2.679  0.00  0.00    -0.200 NA
BRANCH  12  13
ATOM     13  CA  UNL     1       0.970   6.391  -1.958  0.00  0.00    +0.176 C 
BRANCH  13  14
ATOM     14  C   UNL     1       1.273   5.655  -0.519  0.00  0.00    +0.380 C 
ATOM     15  OXT UNL     1       1.825   6.513   0.428  0.00  0.00    -0.244 OA
ATOM     16  O   UNL     1       2.013   4.669  -0.830  0.00  0.00    -0.244 OA
ENDBRANCH  13  14
BRANCH  13  17
ATOM     17  C   UNL     1      -0.171   5.238  -2.378  0.00  0.00    +0.034 C 
BRANCH  17  18
ATOM     18  C   UNL     1      -1.413   6.010  -1.935  0.00  0.00    +0.028 C 
BRANCH  18  19
ATOM     19  C   UNL     1      -2.227   6.306  -3.156  0.00  0.00    -0.022 A 
ATOM     20  C   UNL     1      -2.370   5.267  -4.064  0.00  0.00    -0.004 A 
ATOM     21  C   UNL     1      -2.717   5.489  -5.388  0.00  0.00    -0.000 A 
ATOM     22  C   UNL     1      -2.670   6.791  -5.856  0.00  0.00    -0.000 A 
ATOM     23  C   UNL     1      -2.527   7.834  -4.969  0.00  0.00    -0.000 A 
ATOM     24  C   UNL     1      -2.063   7.565  -3.700  0.00  0.00    -0.004 A 
ENDBRANCH  18  19
ENDBRANCH  17  18
ENDBRANCH  13  17
ENDBRANCH  12  13
ENDBRANCH   1  12
BRANCH   1  25
ATOM     25  CB  UNL     1       4.355   6.405  -2.855  0.00  0.00    +0.027 C 
BRANCH  25  26
ATOM     26  CG  UNL     1       4.617   7.375  -1.757  0.00  0.00    +0.003 C 
BRANCH  26  27
ATOM     27  CD  UNL     1       3.875   8.663  -1.840  0.00  0.00    +0.021 C 
BRANCH  27  29
ATOM     28  NZ  UNL     1       3.492  10.726  -0.589  0.00  0.00    -0.131 NA
ATOM     29  CE  UNL     1       3.606   9.323  -0.523  0.00  0.00    +0.109 C 
ENDBRANCH  27  29
ENDBRANCH  26  27
ENDBRANCH  25  26
ENDBRANCH   1  25
TORSDOF 12
ENDMDL
MODEL 8
REMARK VINA RESULT:      -7.2      2.679      5.739
REMARK  Name = 
REMARK  12 active torsions:
REMARK  status: ('A' for Active; 'I' for Inactive)
REMARK    1  A    between atoms: C_2  and  C_3
REMARK    2  A    between atoms: C_3  and  C_4
REMARK    3  A    between atoms: C_4  and  C_5
REMARK    4  A    between atoms: C_5  and  C_6
REMARK    5  A    between atoms: C_6  and  N_7
REMARK    6  A    between atoms: C_6  and  C_20
REMARK    7  A    between atoms: N_7  and  C_8
REMARK    8  A    between atoms: C_8  and  C_9
REMARK    9  A    between atoms: C_8  and  C_17
REMARK   10  A    between atoms: C_9  and  C_10
REMARK   11  A    between atoms: C_10  and  C_11
REMARK   12  A    between atoms: CA_26  and  C_27
REMARK                            x       y       z     vdW  Elec       q    Type
REMARK                         _______ _______ _______ _____ _____    ______ ____
ROOT
ATOM      1  CA  UNL     1       1.037   6.131  -7.693  0.00  0.00    +0.149 C 
ENDROOT
BRANCH   1   2
ATOM      2  C   UNL     1       0.192   5.413  -6.480  0.00  0.00    +0.242 C 
ATOM      3  N   UNL     1      -0.169   6.469  -5.566  0.00  0.00    -0.270 N 
ATOM      4  CA  UNL     1      -1.434   6.027  -4.685  0.00  0.00    +0.179 C 
ATOM      5  CB  UNL     1      -0.450   5.145  -3.655  0.00  0.00    +0.033 C 
ATOM      6  CG  UNL     1       0.583   6.164  -3.334  0.00  0.00    +0.024 C 
ATOM      7  CD  UNL     1       0.773   6.945  -4.594  0.00  0.00    +0.094 C 
ATOM      8  O   UNL     1       0.744   4.423  -5.977  0.00  0.00    -0.273 OA
BRANCH   4   9
ATOM      9  C   UNL     1      -1.369   7.380  -3.746  0.00  0.00    +0.382 C 
ATOM     10  OXT UNL     1      -1.773   8.436  -4.575  0.00  0.00    -0.244 OA
ATOM     11  O   UNL     1      -2.112   7.262  -2.723  0.00  0.00    -0.244 OA
ENDBRANCH   4   9
ENDBRANCH   1   2
BRANCH   1  12
ATOM     12  N   UNL     1       2.178   5.000  -7.651  0.00  0.00    -0.200 NA
BRANCH  12  13
ATOM     13  CA  UNL     1       3.447   5.974  -7.758  0.00  0.00    +0.176 C 
BRANCH  13  14
ATOM     14  C   UNL     1       4.292   4.855  -8.617  0.00  0.00    +0.380 C 
ATOM     15  OXT UNL     1       5.670   5.029  -8.534  0.00  0.00    -0.244 OA
ATOM     16  O   UNL     1       3.819   4.951  -9.794  0.00  0.00    -0.244 OA
ENDBRANCH  13  14
BRANCH  13  17
ATOM     17  C   UNL     1       4.062   5.412  -6.304  0.00  0.00    +0.034 C 
BRANCH  17  18
ATOM     18  C   UNL     1       4.293   6.769  -5.643  0.00  0.00    +0.028 C 
BRANCH  18  19
ATOM     19  C   UNL     1       4.631   6.526  -4.205  0.00  0.00    -0.022 A 
ATOM     20  C   UNL     1       4.259   5.294  -3.687  0.00  0.00    -0.004 A 
ATOM     21  C   UNL     1       4.120   5.080  -2.325  0.00  0.00    -0.000 A 
ATOM     22  C   UNL     1       4.112   6.190  -1.497  0.00  0.00    -0.000 A 
ATOM     23  C   UNL     1       4.478   7.420  -1.994  0.00  0.00    -0.000 A 
ATOM     24  C   UNL     1       4.481   7.607  -3.359  0.00  0.00    -0.004 A 
ENDBRANCH  18  19
ENDBRANCH  17  18
ENDBRANCH  13  17
ENDBRANCH  12  13
ENDBRANCH   1  12
BRANCH   1  25
ATOM     25  CB  UNL     1       0.179   5.333  -8.893  0.00  0.00    +0.027 C 
BRANCH  25  26
ATOM     26  CG  UNL     1       0.285   6.201 -10.098  0.00  0.00    +0.003 C 
BRANCH  26  27
ATOM     27  CD  UNL     1      -0.086   5.562 -11.390  0.00  0.00    +0.021 C 
BRANCH  27  29
ATOM     28  NZ  UNL     1       0.738   4.486 -13.423  0.00  0.00    -0.131 NA
ATOM     29  CE  UNL     1       1.061   5.297 -12.315  0.00  0.00    +0.109 C 
ENDBRANCH  27  29
ENDBRANCH  26  27
ENDBRANCH  25  26
ENDBRANCH   1  25
TORSDOF 12
ENDMDL
MODEL 9
REMARK VINA RESULT:      -7.2      1.705      2.299
REMARK  Name = 
REMARK  12 active torsions:
REMARK  status: ('A' for Active; 'I' for Inactive)
REMARK    1  A    between atoms: C_2  and  C_3
REMARK    2  A    between atoms: C_3  and  C_4
REMARK    3  A    between atoms: C_4  and  C_5
REMARK    4  A    between atoms: C_5  and  C_6
REMARK    5  A    between atoms: C_6  and  N_7
REMARK    6  A    between atoms: C_6  and  C_20
REMARK    7  A    between atoms: N_7  and  C_8
REMARK    8  A    between atoms: C_8  and  C_9
REMARK    9  A    between atoms: C_8  and  C_17
REMARK   10  A    between atoms: C_9  and  C_10
REMARK   11  A    between atoms: C_10  and  C_11
REMARK   12  A    between atoms: CA_26  and  C_27
REMARK                            x       y       z     vdW  Elec       q    Type
REMARK                         _______ _______ _______ _____ _____    ______ ____
ROOT
ATOM      1  CA  UNL     1       2.401   6.206  -7.362  0.00  0.00    +0.149 C 
ENDROOT
BRANCH   1   2
ATOM      2  C   UNL     1       3.481   5.536  -6.319  0.00  0.00    +0.242 C 
ATOM      3  N   UNL     1       3.017   5.871  -4.995  0.00  0.00    -0.270 N 
ATOM      4  CA  UNL     1       3.617   4.839  -3.924  0.00  0.00    +0.179 C 
ATOM      5  CB  UNL     1       5.070   5.671  -3.886  0.00  0.00    +0.033 C 
ATOM      6  CG  UNL     1       4.580   7.055  -3.655  0.00  0.00    +0.024 C 
ATOM      7  CD  UNL     1       3.304   7.156  -4.425  0.00  0.00    +0.094 C 
ATOM      8  O   UNL     1       4.669   5.797  -6.562  0.00  0.00    -0.273 OA
BRANCH   4   9
ATOM      9  C   UNL     1       2.997   5.667  -2.641  0.00  0.00    +0.382 C 
ATOM     10  OXT UNL     1       1.611   5.461  -2.691  0.00  0.00    -0.244 OA
ATOM     11  O   UNL     1       3.503   5.263  -1.549  0.00  0.00    -0.244 OA
ENDBRANCH   4   9
ENDBRANCH   1   2
BRANCH   1  12
ATOM     12  N   UNL     1       2.936   5.312  -8.586  0.00  0.00    -0.200 NA
BRANCH  12  13
ATOM     13  CA  UNL     1       3.313   6.514  -9.577  0.00  0.00    +0.176 C 
BRANCH  13  14
ATOM     14  C   UNL     1       2.066   6.139 -10.582  0.00  0.00    +0.380 C 
ATOM     15  OXT UNL     1       1.557   4.862 -10.367  0.00  0.00    -0.244 OA
ATOM     16  O   UNL     1       2.543   6.328 -11.745  0.00  0.00    -0.244 OA
ENDBRANCH  13  14
BRANCH  13  17
ATOM     17  C   UNL     1       4.375   5.539 -10.432  0.00  0.00    +0.034 C 
BRANCH  17  18
ATOM     18  C   UNL     1       5.659   5.968  -9.724  0.00  0.00    +0.028 C 
BRANCH  18  19
ATOM     19  C   UNL     1       6.655   6.350 -10.774  0.00  0.00    -0.022 A 
ATOM     20  C   UNL     1       6.139   6.675 -12.020  0.00  0.00    -0.004 A 
ATOM     21  C   UNL     1       6.912   6.638 -13.170  0.00  0.00    -0.000 A 
ATOM     22  C   UNL     1       8.151   6.024 -13.093  0.00  0.00    -0.000 A 
ATOM     23  C   UNL     1       8.678   5.694 -11.866  0.00  0.00    -0.000 A 
ATOM     24  C   UNL     1       7.833   5.629 -10.779  0.00  0.00    -0.004 A 
ENDBRANCH  18  19
ENDBRANCH  17  18
ENDBRANCH  13  17
ENDBRANCH  12  13
ENDBRANCH   1  12
BRANCH   1  25
ATOM     25  CB  UNL     1       1.199   5.102  -6.977  0.00  0.00    +0.027 C 
BRANCH  25  26
ATOM     26  CG  UNL     1      -0.073   5.874  -7.016  0.00  0.00    +0.003 C 
BRANCH  26  27
ATOM     27  CD  UNL     1      -1.316   5.087  -6.783  0.00  0.00    +0.021 C 
BRANCH  27  29
ATOM     28  NZ  UNL     1      -2.262   6.717  -5.230  0.00  0.00    -0.131 NA
ATOM     29  CE  UNL     1      -2.500   5.892  -6.347  0.00  0.00    +0.109 C 
ENDBRANCH  27  29
ENDBRANCH  26  27
ENDBRANCH  25  26
ENDBRANCH   1  25
TORSDOF 12
ENDMDL
