MODEL 1
REMARK VINA RESULT:      -4.9      0.000      0.000
REMARK  Name = 
REMARK  3 active torsions:
REMARK  status: ('A' for Active; 'I' for Inactive)
REMARK    1  A    between atoms: C_2  and  C_3
REMARK    2  A    between atoms: C_3  and  N_4
REMARK    3  A    between atoms: C_12  and  C_13
REMARK                            x       y       z     vdW  Elec       q    Type
REMARK                         _______ _______ _______ _____ _____    ______ ____
ROOT
ATOM      1  N   UNL     1       4.820   6.435 -11.669  0.00  0.00    -0.265 NA
ATOM      2  C   UNL     1       5.465   6.261 -13.081  0.00  0.00    +0.124 C 
ATOM      3  C   UNL     1       6.636   5.175 -12.464  0.00  0.00    +0.202 C 
ATOM      4  O   UNL     1       7.285   5.036 -13.812  0.00  0.00    -0.219 OA
ATOM      5  C   UNL     1       7.677   6.475 -12.084  0.00  0.00    +0.215 C 
ATOM      6  O   UNL     1       8.735   5.538 -11.583  0.00  0.00    -0.218 OA
ATOM      7  C   UNL     1       7.013   6.647 -10.507  0.00  0.00    +0.201 C 
ATOM      8  O   UNL     1       7.681   8.002 -10.358  0.00  0.00    -0.219 OA
ATOM      9  C   UNL     1       5.638   7.357 -11.054  0.00  0.00    +0.108 C 
ENDROOT
BRANCH   2  10
ATOM     10  C   UNL     1       4.431   5.071 -13.514  0.00  0.00    +0.201 C 
ATOM     11  O   UNL     1       3.736   5.657 -14.587  0.00  0.00    -0.219 OA
ENDBRANCH   2  10
BRANCH   1  12
ATOM     12  C   UNL     1       4.517   5.196 -11.117  0.00  0.00    +0.108 C 
BRANCH  12  14
ATOM     13  O   UNL     1       3.769   4.402  -9.051  0.00  0.00    -0.219 OA
ATOM     14  C   UNL     1       3.608   5.465  -9.923  0.00  0.00    +0.199 C 
ENDBRANCH  12  14
ENDBRANCH   1  12
TORSDOF 3
ENDMDL
MODEL 2
REMARK VINA RESULT:      -4.9      6.084      8.055
REMARK  Name = 
REMARK  3 active torsions:
REMARK  status: ('A' for Active; 'I' for Inactive)
REMARK    1  A    between atoms: C_2  and  C_3
REMARK    2  A    between atoms: C_3  and  N_4
REMARK    3  A    between atoms: C_12  and  C_13
REMARK                            x       y       z     vdW  Elec       q    Type
REMARK                         _______ _______ _______ _____ _____    ______ ____
ROOT
ATOM      1  N   UNL     1       3.259   5.906  -5.953  0.00  0.00    -0.265 NA
ATOM      2  C   UNL     1       2.750   5.056  -4.745  0.00  0.00    +0.124 C 
ATOM      3  C   UNL     1       2.304   6.465  -3.881  0.00  0.00    +0.202 C 
ATOM      4  O   UNL     1       1.850   5.653  -2.700  0.00  0.00    -0.219 OA
ATOM      5  C   UNL     1       3.873   6.579  -3.213  0.00  0.00    +0.215 C 
ATOM      6  O   UNL     1       3.489   7.787  -2.410  0.00  0.00    -0.218 OA
ATOM      7  C   UNL     1       4.437   7.559  -4.509  0.00  0.00    +0.201 C 
ATOM      8  O   UNL     1       5.874   7.325  -4.079  0.00  0.00    -0.219 OA
ATOM      9  C   UNL     1       4.519   6.300  -5.558  0.00  0.00    +0.108 C 
ENDROOT
BRANCH   2  10
ATOM     10  C   UNL     1       1.262   4.851  -5.392  0.00  0.00    +0.201 C 
ATOM     11  O   UNL     1       1.392   3.617  -6.053  0.00  0.00    -0.219 OA
ENDBRANCH   2  10
BRANCH   1  12
ATOM     12  C   UNL     1       2.277   6.796  -6.369  0.00  0.00    +0.108 C 
BRANCH  12  14
ATOM     13  O   UNL     1       2.150   8.516  -7.945  0.00  0.00    -0.219 OA
ATOM     14  C   UNL     1       2.667   7.243  -7.774  0.00  0.00    +0.199 C 
ENDBRANCH  12  14
ENDBRANCH   1  12
TORSDOF 3
ENDMDL
MODEL 3
REMARK VINA RESULT:      -4.9      6.402      8.773
REMARK  Name = 
REMARK  3 active torsions:
REMARK  status: ('A' for Active; 'I' for Inactive)
REMARK    1  A    between atoms: C_2  and  C_3
REMARK    2  A    between atoms: C_3  and  N_4
REMARK    3  A    between atoms: C_12  and  C_13
REMARK                            x       y       z     vdW  Elec       q    Type
REMARK                         _______ _______ _______ _____ _____    ______ ____
ROOT
ATOM      1  N   UNL     1       0.382   4.872  -5.383  0.00  0.00    -0.265 NA
ATOM      2  C   UNL     1       1.182   5.197  -4.081  0.00  0.00    +0.124 C 
ATOM      3  C   UNL     1       1.638   6.732  -4.686  0.00  0.00    +0.202 C 
ATOM      4  O   UNL     1       2.441   7.032  -3.452  0.00  0.00    -0.219 OA
ATOM      5  C   UNL     1       3.016   6.053  -5.433  0.00  0.00    +0.215 C 
ATOM      6  O   UNL     1       3.459   7.397  -5.933  0.00  0.00    -0.218 OA
ATOM      7  C   UNL     1       2.165   5.736  -6.893  0.00  0.00    +0.201 C 
ATOM      8  O   UNL     1       3.285   4.827  -7.365  0.00  0.00    -0.219 OA
ATOM      9  C   UNL     1       1.357   4.455  -6.262  0.00  0.00    +0.108 C 
ENDROOT
BRANCH   2  10
ATOM     10  C   UNL     1      -0.135   5.775  -3.300  0.00  0.00    +0.201 C 
ATOM     11  O   UNL     1      -0.268   4.871  -2.232  0.00  0.00    -0.219 OA
ENDBRANCH   2  10
BRANCH   1  12
ATOM     12  C   UNL     1      -0.515   5.894  -5.669  0.00  0.00    +0.108 C 
BRANCH  12  14
ATOM     13  O   UNL     1      -2.721   5.273  -6.128  0.00  0.00    -0.219 OA
ATOM     14  C   UNL     1      -1.472   5.346  -6.722  0.00  0.00    +0.199 C 
ENDBRANCH  12  14
ENDBRANCH   1  12
TORSDOF 3
ENDMDL
MODEL 4
REMARK VINA RESULT:      -4.7      6.623      8.634
REMARK  Name = 
REMARK  3 active torsions:
REMARK  status: ('A' for Active; 'I' for Inactive)
REMARK    1  A    between atoms: C_2  and  C_3
REMARK    2  A    between atoms: C_3  and  N_4
REMARK    3  A    between atoms: C_12  and  C_13
REMARK                            x       y       z     vdW  Elec       q    Type
REMARK                         _______ _______ _______ _____ _____    ______ ____
ROOT
ATOM      1  N   UNL     1       1.331   5.062  -4.499  0.00  0.00    -0.265 NA
ATOM      2  C   UNL     1       2.868   5.262  -4.695  0.00  0.00    +0.124 C 
ATOM      3  C   UNL     1       2.643   6.891  -5.171  0.00  0.00    +0.202 C 
ATOM      4  O   UNL     1       4.117   7.076  -5.400  0.00  0.00    -0.219 OA
ATOM      5  C   UNL     1       2.438   6.412  -6.798  0.00  0.00    +0.215 C 
ATOM      6  O   UNL     1       2.287   7.836  -7.243  0.00  0.00    -0.218 OA
ATOM      7  C   UNL     1       0.738   6.236  -6.613  0.00  0.00    +0.201 C 
ATOM      8  O   UNL     1       0.660   5.476  -7.925  0.00  0.00    -0.219 OA
ATOM      9  C   UNL     1       0.872   4.832  -5.777  0.00  0.00    +0.108 C 
ENDROOT
BRANCH   2  10
ATOM     10  C   UNL     1       3.118   5.641  -3.124  0.00  0.00    +0.201 C 
ATOM     11  O   UNL     1       4.237   4.853  -2.802  0.00  0.00    -0.219 OA
ENDBRANCH   2  10
BRANCH   1  12
ATOM     12  C   UNL     1       0.815   6.050  -3.670  0.00  0.00    +0.108 C 
BRANCH  12  14
ATOM     13  O   UNL     1      -0.177   4.784  -1.975  0.00  0.00    -0.219 OA
ATOM     14  C   UNL     1      -0.496   5.506  -3.112  0.00  0.00    +0.199 C 
ENDBRANCH  12  14
ENDBRANCH   1  12
TORSDOF 3
ENDMDL
MODEL 5
REMARK VINA RESULT:      -4.7      6.165      7.551
REMARK  Name = 
REMARK  3 active torsions:
REMARK  status: ('A' for Active; 'I' for Inactive)
REMARK    1  A    between atoms: C_2  and  C_3
REMARK    2  A    between atoms: C_3  and  N_4
REMARK    3  A    between atoms: C_12  and  C_13
REMARK                            x       y       z     vdW  Elec       q    Type
REMARK                         _______ _______ _______ _____ _____    ______ ____
ROOT
ATOM      1  N   UNL     1       2.003   6.954  -4.909  0.00  0.00    -0.265 NA
ATOM      2  C   UNL     1       3.163   7.147  -5.938  0.00  0.00    +0.124 C 
ATOM      3  C   UNL     1       3.587   5.491  -5.842  0.00  0.00    +0.202 C 
ATOM      4  O   UNL     1       4.729   5.680  -6.800  0.00  0.00    -0.219 OA
ATOM      5  C   UNL     1       4.624   5.808  -4.523  0.00  0.00    +0.215 C 
ATOM      6  O   UNL     1       5.046   4.370  -4.453  0.00  0.00    -0.218 OA
ATOM      7  C   UNL     1       3.372   5.549  -3.374  0.00  0.00    +0.201 C 
ATOM      8  O   UNL     1       4.216   6.189  -2.287  0.00  0.00    -0.219 OA
ATOM      9  C   UNL     1       2.646   6.986  -3.692  0.00  0.00    +0.108 C 
ENDROOT
BRANCH   2  10
ATOM     10  C   UNL     1       2.183   6.934  -7.230  0.00  0.00    +0.201 C 
ATOM     11  O   UNL     1       2.156   8.220  -7.798  0.00  0.00    -0.219 OA
ENDBRANCH   2  10
BRANCH   1  12
ATOM     12  C   UNL     1       1.170   5.914  -5.305  0.00  0.00    +0.108 C 
BRANCH  12  14
ATOM     13  O   UNL     1      -0.598   7.412  -5.009  0.00  0.00    -0.219 OA
ATOM     14  C   UNL     1      -0.173   6.152  -4.624  0.00  0.00    +0.199 C 
ENDBRANCH  12  14
ENDBRANCH   1  12
TORSDOF 3
ENDMDL
MODEL 6
REMARK VINA RESULT:      -4.7      6.648      8.490
REMARK  Name = 
REMARK  3 active torsions:
REMARK  status: ('A' for Active; 'I' for Inactive)
REMARK    1  A    between atoms: C_2  and  C_3
REMARK    2  A    between atoms: C_3  and  N_4
REMARK    3  A    between atoms: C_12  and  C_13
REMARK                            x       y       z     vdW  Elec       q    Type
REMARK                         _______ _______ _______ _____ _____    ______ ____
ROOT
ATOM      1  N   UNL     1       1.304   6.365  -4.282  0.00  0.00    -0.265 NA
ATOM      2  C   UNL     1       0.667   6.711  -5.666  0.00  0.00    +0.124 C 
ATOM      3  C   UNL     1       0.674   5.065  -6.134  0.00  0.00    +0.202 C 
ATOM      4  O   UNL     1       0.099   5.397  -7.483  0.00  0.00    -0.219 OA
ATOM      5  C   UNL     1       2.257   5.224  -6.756  0.00  0.00    +0.215 C 
ATOM      6  O   UNL     1       2.264   3.796  -7.218  0.00  0.00    -0.218 OA
ATOM      7  C   UNL     1       2.974   4.794  -5.254  0.00  0.00    +0.201 C 
ATOM      8  O   UNL     1       4.322   5.299  -5.736  0.00  0.00    -0.219 OA
ATOM      9  C   UNL     1       2.646   6.247  -4.567  0.00  0.00    +0.108 C 
ENDROOT
BRANCH   2  10
ATOM     10  C   UNL     1      -0.861   6.653  -5.087  0.00  0.00    +0.201 C 
ATOM     11  O   UNL     1      -1.160   8.014  -4.899  0.00  0.00    -0.219 OA
ENDBRANCH   2  10
BRANCH   1  12
ATOM     12  C   UNL     1       0.570   5.372  -3.644  0.00  0.00    +0.108 C 
BRANCH  12  14
ATOM     13  O   UNL     1       0.117   4.564  -1.499  0.00  0.00    -0.219 OA
ATOM     14  C   UNL     1       0.990   5.396  -2.179  0.00  0.00    +0.199 C 
ENDBRANCH  12  14
ENDBRANCH   1  12
TORSDOF 3
ENDMDL
MODEL 7
REMARK VINA RESULT:      -4.7      7.388     10.696
REMARK  Name = 
REMARK  3 active torsions:
REMARK  status: ('A' for Active; 'I' for Inactive)
REMARK    1  A    between atoms: C_2  and  C_3
REMARK    2  A    between atoms: C_3  and  N_4
REMARK    3  A    between atoms: C_12  and  C_13
REMARK                            x       y       z     vdW  Elec       q    Type
REMARK                         _______ _______ _______ _____ _____    ______ ____
ROOT
ATOM      1  N   UNL     1       0.725   6.205  -4.543  0.00  0.00    -0.265 NA
ATOM      2  C   UNL     1       0.746   6.365  -2.989  0.00  0.00    +0.124 C 
ATOM      3  C   UNL     1      -0.258   4.994  -2.786  0.00  0.00    +0.202 C 
ATOM      4  O   UNL     1      -0.273   5.167  -1.293  0.00  0.00    -0.219 OA
ATOM      5  C   UNL     1      -1.655   5.966  -2.925  0.00  0.00    +0.215 C 
ATOM      6  O   UNL     1      -2.552   4.784  -2.701  0.00  0.00    -0.218 OA
ATOM      7  C   UNL     1      -1.724   5.758  -4.631  0.00  0.00    +0.201 C 
ATOM      8  O   UNL     1      -2.715   6.902  -4.745  0.00  0.00    -0.219 OA
ATOM      9  C   UNL     1      -0.472   6.781  -4.908  0.00  0.00    +0.108 C 
ENDROOT
BRANCH   2  10
ATOM     10  C   UNL     1       2.131   5.512  -2.822  0.00  0.00    +0.201 C 
ATOM     11  O   UNL     1       3.012   6.473  -2.295  0.00  0.00    -0.219 OA
ENDBRANCH   2  10
BRANCH   1  12
ATOM     12  C   UNL     1       1.090   4.913  -4.903  0.00  0.00    +0.108 C 
BRANCH  12  14
ATOM     13  O   UNL     1       2.092   3.776  -6.681  0.00  0.00    -0.219 OA
ATOM     14  C   UNL     1       1.438   4.960  -6.387  0.00  0.00    +0.199 C 
ENDBRANCH  12  14
ENDBRANCH   1  12
TORSDOF 3
ENDMDL
MODEL 8
REMARK VINA RESULT:      -4.6      6.668      9.109
REMARK  Name = 
REMARK  3 active torsions:
REMARK  status: ('A' for Active; 'I' for Inactive)
REMARK    1  A    between atoms: C_2  and  C_3
REMARK    2  A    between atoms: C_3  and  N_4
REMARK    3  A    between atoms: C_12  and  C_13
REMARK                            x       y       z     vdW  Elec       q    Type
REMARK                         _______ _______ _______ _____ _____    ______ ____
ROOT
ATOM      1  N   UNL     1       1.518   5.423  -4.748  0.00  0.00    -0.265 NA
ATOM      2  C   UNL     1       0.762   4.636  -5.866  0.00  0.00    +0.124 C 
ATOM      3  C   UNL     1      -0.179   6.010  -6.263  0.00  0.00    +0.202 C 
ATOM      4  O   UNL     1      -0.936   5.247  -7.312  0.00  0.00    -0.219 OA
ATOM      5  C   UNL     1      -1.344   5.580  -5.090  0.00  0.00    +0.215 C 
ATOM      6  O   UNL     1      -2.207   6.751  -5.456  0.00  0.00    -0.218 OA
ATOM      7  C   UNL     1      -0.553   6.483  -3.860  0.00  0.00    +0.201 C 
ATOM      8  O   UNL     1      -1.383   5.788  -2.796  0.00  0.00    -0.219 OA
ATOM      9  C   UNL     1       0.647   5.380  -3.681  0.00  0.00    +0.108 C 
ENDROOT
BRANCH   2  10
ATOM     10  C   UNL     1       1.901   4.955  -6.995  0.00  0.00    +0.201 C 
ATOM     11  O   UNL     1       2.321   3.665  -7.366  0.00  0.00    -0.219 OA
ENDBRANCH   2  10
BRANCH   1  12
ATOM     12  C   UNL     1       2.043   6.605  -5.256  0.00  0.00    +0.108 C 
BRANCH  12  14
ATOM     13  O   UNL     1       4.125   7.643  -5.035  0.00  0.00    -0.219 OA
ATOM     14  C   UNL     1       3.127   7.051  -4.280  0.00  0.00    +0.199 C 
ENDBRANCH  12  14
ENDBRANCH   1  12
TORSDOF 3
ENDMDL
MODEL 9
REMARK VINA RESULT:      -4.6      5.702      7.911
REMARK  Name = 
REMARK  3 active torsions:
REMARK  status: ('A' for Active; 'I' for Inactive)
REMARK    1  A    between atoms: C_2  and  C_3
REMARK    2  A    between atoms: C_3  and  N_4
REMARK    3  A    between atoms: C_12  and  C_13
REMARK                            x       y       z     vdW  Elec       q    Type
REMARK                         _______ _______ _______ _____ _____    ______ ____
ROOT
ATOM      1  N   UNL     1       1.152   5.083  -5.292  0.00  0.00    -0.265 NA
ATOM      2  C   UNL     1       2.498   5.699  -4.792  0.00  0.00    +0.124 C 
ATOM      3  C   UNL     1       2.549   6.781  -6.117  0.00  0.00    +0.202 C 
ATOM      4  O   UNL     1       3.864   7.350  -5.663  0.00  0.00    -0.219 OA
ATOM      5  C   UNL     1       3.366   5.618  -7.065  0.00  0.00    +0.215 C 
ATOM      6  O   UNL     1       3.465   6.568  -8.222  0.00  0.00    -0.218 OA
ATOM      7  C   UNL     1       1.895   4.961  -7.665  0.00  0.00    +0.201 C 
ATOM      8  O   UNL     1       2.635   3.740  -8.182  0.00  0.00    -0.219 OA
ATOM      9  C   UNL     1       1.550   4.188  -6.260  0.00  0.00    +0.108 C 
ENDROOT
BRANCH   2  10
ATOM     10  C   UNL     1       1.753   6.771  -3.806  0.00  0.00    +0.201 C 
ATOM     11  O   UNL     1       2.370   6.515  -2.569  0.00  0.00    -0.219 OA
ENDBRANCH   2  10
BRANCH   1  12
ATOM     12  C   UNL     1       0.213   6.083  -5.517  0.00  0.00    +0.108 C 
BRANCH  12  14
ATOM     13  O   UNL     1      -1.659   5.601  -6.829  0.00  0.00    -0.219 OA
ATOM     14  C   UNL     1      -1.148   5.398  -5.558  0.00  0.00    +0.199 C 
ENDBRANCH  12  14
ENDBRANCH   1  12
TORSDOF 3
ENDMDL
