MODEL 1
REMARK VINA RESULT:      -8.0      0.000      0.000
REMARK  Name = 
REMARK  9 active torsions:
REMARK  status: ('A' for Active; 'I' for Inactive)
REMARK    1  A    between atoms: N_2  and  C_4
REMARK    2  A    between atoms: C_4  and  C_5
REMARK    3  A    between atoms: C_5  and  O_6
REMARK    4  A    between atoms: O_6  and  C_7
REMARK    5  A    between atoms: C_10  and  C_11
REMARK    6  A    between atoms: C_11  and  C_22
REMARK    7  A    between atoms: C_12  and  C_13
REMARK    8  A    between atoms: C_12  and  C_16
REMARK    9  A    between atoms: C_13  and  C_14
REMARK                            x       y       z     vdW  Elec       q    Type
REMARK                         _______ _______ _______ _____ _____    ______ ____
ROOT
ATOM      1  C   UNL     1       1.979   6.107  -5.199  0.00  0.00    -0.004 C 
ATOM      2  C   UNL     1       0.768   5.740  -4.782  0.00  0.00    -0.021 C 
ENDROOT
BRANCH   2   3
ATOM      3  C   UNL     1      -0.398   6.357  -5.429  0.00  0.00    -0.004 A 
ATOM      4  C   UNL     1      -1.355   5.562  -6.048  0.00  0.00    -0.000 A 
ATOM      5  C   UNL     1      -2.698   5.861  -5.946  0.00  0.00    -0.000 A 
ATOM      6  C   UNL     1      -3.107   7.129  -5.549  0.00  0.00    -0.000 A 
ATOM      7  C   UNL     1      -2.179   7.916  -4.886  0.00  0.00    -0.000 A 
ATOM      8  C   UNL     1      -0.852   7.606  -5.022  0.00  0.00    -0.000 A 
ENDBRANCH   2   3
BRANCH   1   9
ATOM      9  C   UNL     1       3.107   6.270  -4.273  0.00  0.00    -0.000 A 
ATOM     10  C   UNL     1       4.249   5.537  -4.551  0.00  0.00    -0.000 A 
ATOM     11  C   UNL     1       5.487   5.852  -4.056  0.00  0.00    -0.000 A 
ATOM     12  C   UNL     1       5.699   7.148  -3.604  0.00  0.00    -0.000 A 
ATOM     13  C   UNL     1       4.585   7.921  -3.317  0.00  0.00    -0.000 A 
ATOM     14  C   UNL     1       3.311   7.504  -3.670  0.00  0.00    -0.000 A 
ENDBRANCH   1   9
BRANCH   1  18
ATOM     15  C   UNL     1       3.025   6.042  -9.291  0.00  0.00    +0.139 A 
ATOM     16  C   UNL     1       2.976   4.877  -8.537  0.00  0.00    +0.037 A 
ATOM     17  C   UNL     1       2.293   4.955  -7.329  0.00  0.00    +0.003 A 
ATOM     18  C   UNL     1       2.159   6.163  -6.655  0.00  0.00    -0.000 A 
ATOM     19  C   UNL     1       2.650   7.273  -7.305  0.00  0.00    +0.003 A 
ATOM     20  C   UNL     1       2.725   7.254  -8.687  0.00  0.00    +0.037 A 
BRANCH  15  21
ATOM     21  O   UNL     1       3.208   5.992 -10.676  0.00  0.00    -0.474 OA
BRANCH  21  22
ATOM     22  C   UNL     1       4.347   6.574 -11.252  0.00  0.00    +0.223 C 
BRANCH  22  23
ATOM     23  C   UNL     1       5.488   5.614 -11.421  0.00  0.00    +0.120 C 
BRANCH  23  25
ATOM     24  C   UNL     1       6.945   5.777  -9.508  0.00  0.00    +0.090 C 
ATOM     25  N   UNL     1       6.713   6.162 -10.890  0.00  0.00    -0.267 NA
ATOM     26  C   UNL     1       6.743   7.593 -11.077  0.00  0.00    +0.090 C 
ENDBRANCH  23  25
ENDBRANCH  22  23
ENDBRANCH  21  22
ENDBRANCH  15  21
ENDBRANCH   1  18
BRANCH   2  27
ATOM     27  C   UNL     1       0.654   5.105  -3.433  0.00  0.00    +0.044 C 
BRANCH  27  28
ATOM     28  C   UNL     1      -0.129   5.979  -2.473  0.00  0.00    +0.100 C 
ATOM     29 CL   UNL     1      -1.789   5.403  -2.246  0.00  0.00    -0.113 Cl
ENDBRANCH  27  28
ENDBRANCH   2  27
TORSDOF 9
ENDMDL
MODEL 2
REMARK VINA RESULT:      -7.9      3.965      7.734
REMARK  Name = 
REMARK  9 active torsions:
REMARK  status: ('A' for Active; 'I' for Inactive)
REMARK    1  A    between atoms: N_2  and  C_4
REMARK    2  A    between atoms: C_4  and  C_5
REMARK    3  A    between atoms: C_5  and  O_6
REMARK    4  A    between atoms: O_6  and  C_7
REMARK    5  A    between atoms: C_10  and  C_11
REMARK    6  A    between atoms: C_11  and  C_22
REMARK    7  A    between atoms: C_12  and  C_13
REMARK    8  A    between atoms: C_12  and  C_16
REMARK    9  A    between atoms: C_13  and  C_14
REMARK                            x       y       z     vdW  Elec       q    Type
REMARK                         _______ _______ _______ _____ _____    ______ ____
ROOT
ATOM      1  C   UNL     1       0.841   5.472  -7.968  0.00  0.00    -0.004 C 
ATOM      2  C   UNL     1       1.927   4.754  -7.686  0.00  0.00    -0.021 C 
ENDROOT
BRANCH   2   3
ATOM      3  C   UNL     1       2.751   5.172  -6.544  0.00  0.00    -0.004 A 
ATOM      4  C   UNL     1       3.383   6.410  -6.554  0.00  0.00    -0.000 A 
ATOM      5  C   UNL     1       3.453   7.179  -5.411  0.00  0.00    -0.000 A 
ATOM      6  C   UNL     1       3.232   6.606  -4.164  0.00  0.00    -0.000 A 
ATOM      7  C   UNL     1       2.559   5.396  -4.134  0.00  0.00    -0.000 A 
ATOM      8  C   UNL     1       2.523   4.645  -5.279  0.00  0.00    -0.000 A 
ENDBRANCH   2   3
BRANCH   1   9
ATOM      9  C   UNL     1       0.419   5.740  -9.349  0.00  0.00    -0.000 A 
ATOM     10  C   UNL     1       1.081   6.759 -10.014  0.00  0.00    -0.000 A 
ATOM     11  C   UNL     1       1.106   6.878 -11.378  0.00  0.00    -0.000 A 
ATOM     12  C   UNL     1       0.818   5.752 -12.137  0.00  0.00    -0.000 A 
ATOM     13  C   UNL     1       0.160   4.704 -11.513  0.00  0.00    -0.000 A 
ATOM     14  C   UNL     1      -0.014   4.683 -10.138  0.00  0.00    -0.000 A 
ENDBRANCH   1   9
BRANCH   1  18
ATOM     15  C   UNL     1      -1.976   6.665  -5.054  0.00  0.00    +0.139 A 
ATOM     16  C   UNL     1      -2.270   5.679  -5.986  0.00  0.00    +0.037 A 
ATOM     17  C   UNL     1      -1.186   5.120  -6.654  0.00  0.00    +0.003 A 
ATOM     18  C   UNL     1      -0.001   5.826  -6.819  0.00  0.00    -0.000 A 
ATOM     19  C   UNL     1       0.060   7.053  -6.198  0.00  0.00    +0.003 A 
ATOM     20  C   UNL     1      -0.729   7.273  -5.082  0.00  0.00    +0.037 A 
BRANCH  15  21
ATOM     21  O   UNL     1      -2.848   6.934  -3.995  0.00  0.00    -0.474 OA
BRANCH  21  22
ATOM     22  C   UNL     1      -2.377   6.887  -2.674  0.00  0.00    +0.223 C 
BRANCH  22  23
ATOM     23  C   UNL     1      -2.272   5.494  -2.126  0.00  0.00    +0.120 C 
BRANCH  23  25
ATOM     24  C   UNL     1      -1.516   6.544  -0.094  0.00  0.00    +0.090 C 
ATOM     25  N   UNL     1      -1.348   5.437  -1.020  0.00  0.00    -0.267 NA
ATOM     26  C   UNL     1       0.007   5.325  -1.505  0.00  0.00    +0.090 C 
ENDBRANCH  23  25
ENDBRANCH  22  23
ENDBRANCH  21  22
ENDBRANCH  15  21
ENDBRANCH   1  18
BRANCH   2  27
ATOM     27  C   UNL     1       2.490   3.883  -8.764  0.00  0.00    +0.044 C 
BRANCH  27  28
ATOM     28  C   UNL     1       3.953   4.189  -9.017  0.00  0.00    +0.100 C 
ATOM     29 CL   UNL     1       4.192   5.138 -10.493  0.00  0.00    -0.113 Cl
ENDBRANCH  27  28
ENDBRANCH   2  27
TORSDOF 9
ENDMDL
MODEL 3
REMARK VINA RESULT:      -7.9      1.751      2.438
REMARK  Name = 
REMARK  9 active torsions:
REMARK  status: ('A' for Active; 'I' for Inactive)
REMARK    1  A    between atoms: N_2  and  C_4
REMARK    2  A    between atoms: C_4  and  C_5
REMARK    3  A    between atoms: C_5  and  O_6
REMARK    4  A    between atoms: O_6  and  C_7
REMARK    5  A    between atoms: C_10  and  C_11
REMARK    6  A    between atoms: C_11  and  C_22
REMARK    7  A    between atoms: C_12  and  C_13
REMARK    8  A    between atoms: C_12  and  C_16
REMARK    9  A    between atoms: C_13  and  C_14
REMARK                            x       y       z     vdW  Elec       q    Type
REMARK                         _______ _______ _______ _____ _____    ______ ____
ROOT
ATOM      1  C   UNL     1       1.953   6.146  -5.199  0.00  0.00    -0.004 C 
ATOM      2  C   UNL     1       0.742   5.728  -4.835  0.00  0.00    -0.021 C 
ENDROOT
BRANCH   2   3
ATOM      3  C   UNL     1      -0.423   6.352  -5.476  0.00  0.00    -0.004 A 
ATOM      4  C   UNL     1      -1.368   5.566  -6.126  0.00  0.00    -0.000 A 
ATOM      5  C   UNL     1      -2.714   5.851  -6.028  0.00  0.00    -0.000 A 
ATOM      6  C   UNL     1      -3.138   7.104  -5.602  0.00  0.00    -0.000 A 
ATOM      7  C   UNL     1      -2.223   7.881  -4.909  0.00  0.00    -0.000 A 
ATOM      8  C   UNL     1      -0.891   7.585  -5.040  0.00  0.00    -0.000 A 
ENDBRANCH   2   3
BRANCH   1   9
ATOM      9  C   UNL     1       3.053   6.283  -4.236  0.00  0.00    -0.000 A 
ATOM     10  C   UNL     1       4.207   5.564  -4.505  0.00  0.00    -0.000 A 
ATOM     11  C   UNL     1       5.428   5.868  -3.965  0.00  0.00    -0.000 A 
ATOM     12  C   UNL     1       5.621   7.149  -3.464  0.00  0.00    -0.000 A 
ATOM     13  C   UNL     1       4.496   7.907  -3.184  0.00  0.00    -0.000 A 
ATOM     14  C   UNL     1       3.234   7.497  -3.587  0.00  0.00    -0.000 A 
ENDBRANCH   1   9
BRANCH   1  18
ATOM     15  C   UNL     1       3.123   6.411  -9.249  0.00  0.00    +0.139 A 
ATOM     16  C   UNL     1       3.224   5.220  -8.542  0.00  0.00    +0.037 A 
ATOM     17  C   UNL     1       2.500   5.145  -7.357  0.00  0.00    +0.003 A 
ATOM     18  C   UNL     1       2.167   6.290  -6.644  0.00  0.00    -0.000 A 
ATOM     19  C   UNL     1       2.507   7.487  -7.233  0.00  0.00    +0.003 A 
ATOM     20  C   UNL     1       2.627   7.538  -8.611  0.00  0.00    +0.037 A 
BRANCH  15  21
ATOM     21  O   UNL     1       3.353   6.447 -10.628  0.00  0.00    -0.474 OA
BRANCH  21  22
ATOM     22  C   UNL     1       2.598   5.631 -11.484  0.00  0.00    +0.223 C 
BRANCH  22  23
ATOM     23  C   UNL     1       1.640   6.396 -12.349  0.00  0.00    +0.120 C 
BRANCH  23  25
ATOM     24  C   UNL     1      -0.339   7.291 -11.304  0.00  0.00    +0.090 C 
ATOM     25  N   UNL     1       0.273   6.148 -11.959  0.00  0.00    -0.267 NA
ATOM     26  C   UNL     1       0.192   4.946 -11.161  0.00  0.00    +0.090 C 
ENDBRANCH  23  25
ENDBRANCH  22  23
ENDBRANCH  21  22
ENDBRANCH  15  21
ENDBRANCH   1  18
BRANCH   2  27
ATOM     27  C   UNL     1       0.611   5.013  -3.527  0.00  0.00    +0.044 C 
BRANCH  27  28
ATOM     28  C   UNL     1      -0.132   5.855  -2.508  0.00  0.00    +0.100 C 
ATOM     29 CL   UNL     1      -1.818   5.345  -2.321  0.00  0.00    -0.113 Cl
ENDBRANCH  27  28
ENDBRANCH   2  27
TORSDOF 9
ENDMDL
MODEL 4
REMARK VINA RESULT:      -7.9      3.923      7.063
REMARK  Name = 
REMARK  9 active torsions:
REMARK  status: ('A' for Active; 'I' for Inactive)
REMARK    1  A    between atoms: N_2  and  C_4
REMARK    2  A    between atoms: C_4  and  C_5
REMARK    3  A    between atoms: C_5  and  O_6
REMARK    4  A    between atoms: O_6  and  C_7
REMARK    5  A    between atoms: C_10  and  C_11
REMARK    6  A    between atoms: C_11  and  C_22
REMARK    7  A    between atoms: C_12  and  C_13
REMARK    8  A    between atoms: C_12  and  C_16
REMARK    9  A    between atoms: C_13  and  C_14
REMARK                            x       y       z     vdW  Elec       q    Type
REMARK                         _______ _______ _______ _____ _____    ______ ____
ROOT
ATOM      1  C   UNL     1       1.866   6.236  -7.196  0.00  0.00    -0.004 C 
ATOM      2  C   UNL     1       1.948   6.573  -8.482  0.00  0.00    -0.021 C 
ENDROOT
BRANCH   2   3
ATOM      3  C   UNL     1       0.909   6.075  -9.392  0.00  0.00    -0.004 A 
ATOM      4  C   UNL     1       0.379   6.907 -10.372  0.00  0.00    -0.000 A 
ATOM      5  C   UNL     1       0.094   6.425 -11.633  0.00  0.00    -0.000 A 
ATOM      6  C   UNL     1      -0.022   5.057 -11.852  0.00  0.00    -0.000 A 
ATOM      7  C   UNL     1       0.544   4.214 -10.910  0.00  0.00    -0.000 A 
ATOM      8  C   UNL     1       0.798   4.716  -9.660  0.00  0.00    -0.000 A 
ENDBRANCH   2   3
BRANCH   1   9
ATOM      9  C   UNL     1       3.056   5.926  -6.393  0.00  0.00    -0.000 A 
ATOM     10  C   UNL     1       3.688   6.997  -5.782  0.00  0.00    -0.000 A 
ATOM     11  C   UNL     1       4.533   6.864  -4.712  0.00  0.00    -0.000 A 
ATOM     12  C   UNL     1       4.450   5.703  -3.955  0.00  0.00    -0.000 A 
ATOM     13  C   UNL     1       3.821   4.606  -4.523  0.00  0.00    -0.000 A 
ATOM     14  C   UNL     1       3.111   4.719  -5.709  0.00  0.00    -0.000 A 
ENDBRANCH   1   9
BRANCH   1  18
ATOM     15  C   UNL     1      -1.701   6.486  -4.947  0.00  0.00    +0.139 A 
ATOM     16  C   UNL     1      -0.619   7.315  -4.684  0.00  0.00    +0.037 A 
ATOM     17  C   UNL     1       0.347   7.401  -5.680  0.00  0.00    +0.003 A 
ATOM     18  C   UNL     1       0.536   6.368  -6.590  0.00  0.00    -0.000 A 
ATOM     19  C   UNL     1      -0.352   5.318  -6.503  0.00  0.00    +0.003 A 
ATOM     20  C   UNL     1      -1.608   5.554  -5.971  0.00  0.00    +0.037 A 
BRANCH  15  21
ATOM     21  O   UNL     1      -2.930   6.688  -4.312  0.00  0.00    -0.474 OA
BRANCH  21  22
ATOM     22  C   UNL     1      -3.005   6.658  -2.911  0.00  0.00    +0.223 C 
BRANCH  22  23
ATOM     23  C   UNL     1      -2.582   5.345  -2.318  0.00  0.00    +0.120 C 
BRANCH  23  25
ATOM     24  C   UNL     1      -1.907   6.822  -0.537  0.00  0.00    +0.090 C 
ATOM     25  N   UNL     1      -1.699   5.542  -1.194  0.00  0.00    -0.267 NA
ATOM     26  C   UNL     1      -0.326   5.345  -1.595  0.00  0.00    +0.090 C 
ENDBRANCH  23  25
ENDBRANCH  22  23
ENDBRANCH  21  22
ENDBRANCH  15  21
ENDBRANCH   1  18
BRANCH   2  27
ATOM     27  C   UNL     1       3.275   7.028  -9.004  0.00  0.00    +0.044 C 
BRANCH  27  28
ATOM     28  C   UNL     1       4.001   5.909  -9.723  0.00  0.00    +0.100 C 
ATOM     29 CL   UNL     1       5.511   5.461  -8.912  0.00  0.00    -0.113 Cl
ENDBRANCH  27  28
ENDBRANCH   2  27
TORSDOF 9
ENDMDL
MODEL 5
REMARK VINA RESULT:      -7.9      2.241      5.387
REMARK  Name = 
REMARK  9 active torsions:
REMARK  status: ('A' for Active; 'I' for Inactive)
REMARK    1  A    between atoms: N_2  and  C_4
REMARK    2  A    between atoms: C_4  and  C_5
REMARK    3  A    between atoms: C_5  and  O_6
REMARK    4  A    between atoms: O_6  and  C_7
REMARK    5  A    between atoms: C_10  and  C_11
REMARK    6  A    between atoms: C_11  and  C_22
REMARK    7  A    between atoms: C_12  and  C_13
REMARK    8  A    between atoms: C_12  and  C_16
REMARK    9  A    between atoms: C_13  and  C_14
REMARK                            x       y       z     vdW  Elec       q    Type
REMARK                         _______ _______ _______ _____ _____    ______ ____
ROOT
ATOM      1  C   UNL     1       2.636   6.236  -8.224  0.00  0.00    -0.004 C 
ATOM      2  C   UNL     1       2.527   6.655  -6.964  0.00  0.00    -0.021 C 
ENDROOT
BRANCH   2   3
ATOM      3  C   UNL     1       3.572   6.254  -6.013  0.00  0.00    -0.004 A 
ATOM      4  C   UNL     1       4.160   7.200  -5.181  0.00  0.00    -0.000 A 
ATOM      5  C   UNL     1       4.462   6.899  -3.869  0.00  0.00    -0.000 A 
ATOM      6  C   UNL     1       4.532   5.576  -3.450  0.00  0.00    -0.000 A 
ATOM      7  C   UNL     1       3.908   4.626  -4.243  0.00  0.00    -0.000 A 
ATOM      8  C   UNL     1       3.638   4.947  -5.547  0.00  0.00    -0.000 A 
ENDBRANCH   2   3
BRANCH   1   9
ATOM      9  C   UNL     1       1.467   5.832  -9.016  0.00  0.00    -0.000 A 
ATOM     10  C   UNL     1       0.880   6.812  -9.801  0.00  0.00    -0.000 A 
ATOM     11  C   UNL     1       0.070   6.538 -10.870  0.00  0.00    -0.000 A 
ATOM     12  C   UNL     1       0.151   5.277 -11.445  0.00  0.00    -0.000 A 
ATOM     13  C   UNL     1       0.734   4.264 -10.699  0.00  0.00    -0.000 A 
ATOM     14  C   UNL     1       1.406   4.539  -9.518  0.00  0.00    -0.000 A 
ENDBRANCH   1   9
BRANCH   1  18
ATOM     15  C   UNL     1       6.221   6.448 -10.448  0.00  0.00    +0.139 A 
ATOM     16  C   UNL     1       5.109   7.204 -10.793  0.00  0.00    +0.037 A 
ATOM     17  C   UNL     1       4.126   7.332  -9.818  0.00  0.00    +0.003 A 
ATOM     18  C   UNL     1       3.968   6.373  -8.825  0.00  0.00    -0.000 A 
ATOM     19  C   UNL     1       4.900   5.360  -8.813  0.00  0.00    +0.003 A 
ATOM     20  C   UNL     1       6.153   5.603  -9.350  0.00  0.00    +0.037 A 
BRANCH  15  21
ATOM     21  O   UNL     1       7.450   6.648 -11.085  0.00  0.00    -0.474 OA
BRANCH  21  22
ATOM     22  C   UNL     1       7.551   6.482 -12.474  0.00  0.00    +0.223 C 
BRANCH  22  23
ATOM     23  C   UNL     1       7.052   5.150 -12.954  0.00  0.00    +0.120 C 
BRANCH  23  25
ATOM     24  C   UNL     1       6.012   6.645 -14.532  0.00  0.00    +0.090 C 
ATOM     25  N   UNL     1       6.033   5.309 -13.963  0.00  0.00    -0.267 NA
ATOM     26  C   UNL     1       4.746   4.911 -13.441  0.00  0.00    +0.090 C 
ENDBRANCH  23  25
ENDBRANCH  22  23
ENDBRANCH  21  22
ENDBRANCH  15  21
ENDBRANCH   1  18
BRANCH   2  27
ATOM     27  C   UNL     1       1.180   7.097  -6.487  0.00  0.00    +0.044 C 
BRANCH  27  28
ATOM     28  C   UNL     1       0.514   6.031  -5.640  0.00  0.00    +0.100 C 
ATOM     29 CL   UNL     1      -0.852   5.271  -6.473  0.00  0.00    -0.113 Cl
ENDBRANCH  27  28
ENDBRANCH   2  27
TORSDOF 9
ENDMDL
MODEL 6
REMARK VINA RESULT:      -7.5      3.987      8.896
REMARK  Name = 
REMARK  9 active torsions:
REMARK  status: ('A' for Active; 'I' for Inactive)
REMARK    1  A    between atoms: N_2  and  C_4
REMARK    2  A    between atoms: C_4  and  C_5
REMARK    3  A    between atoms: C_5  and  O_6
REMARK    4  A    between atoms: O_6  and  C_7
REMARK    5  A    between atoms: C_10  and  C_11
REMARK    6  A    between atoms: C_11  and  C_22
REMARK    7  A    between atoms: C_12  and  C_13
REMARK    8  A    between atoms: C_12  and  C_16
REMARK    9  A    between atoms: C_13  and  C_14
REMARK                            x       y       z     vdW  Elec       q    Type
REMARK                         _______ _______ _______ _____ _____    ______ ____
ROOT
ATOM      1  C   UNL     1       2.851   5.783 -11.111  0.00  0.00    -0.004 C 
ATOM      2  C   UNL     1       4.111   5.583 -11.497  0.00  0.00    -0.021 C 
ENDROOT
BRANCH   2   3
ATOM      3  C   UNL     1       5.172   6.300 -10.779  0.00  0.00    -0.004 A 
ATOM      4  C   UNL     1       6.227   5.598 -10.208  0.00  0.00    -0.000 A 
ATOM      5  C   UNL     1       7.516   6.090 -10.259  0.00  0.00    -0.000 A 
ATOM      6  C   UNL     1       7.745   7.431 -10.542  0.00  0.00    -0.000 A 
ATOM      7  C   UNL     1       6.721   8.133 -11.157  0.00  0.00    -0.000 A 
ATOM      8  C   UNL     1       5.449   7.630 -11.073  0.00  0.00    -0.000 A 
ENDBRANCH   2   3
BRANCH   1   9
ATOM      9  C   UNL     1       1.743   5.857 -12.071  0.00  0.00    -0.000 A 
ATOM     10  C   UNL     1       1.692   6.985 -12.874  0.00  0.00    -0.000 A 
ATOM     11  C   UNL     1       1.000   7.040 -14.055  0.00  0.00    -0.000 A 
ATOM     12  C   UNL     1       0.676   5.842 -14.678  0.00  0.00    -0.000 A 
ATOM     13  C   UNL     1       0.716   4.686 -13.915  0.00  0.00    -0.000 A 
ATOM     14  C   UNL     1       1.266   4.685 -12.642  0.00  0.00    -0.000 A 
ENDBRANCH   1   9
BRANCH   1  18
ATOM     15  C   UNL     1       1.740   5.315  -7.062  0.00  0.00    +0.139 A 
ATOM     16  C   UNL     1       2.132   4.231  -7.836  0.00  0.00    +0.037 A 
ATOM     17  C   UNL     1       2.803   4.528  -9.017  0.00  0.00    +0.003 A 
ATOM     18  C   UNL     1       2.619   5.746  -9.662  0.00  0.00    -0.000 A 
ATOM     19  C   UNL     1       1.821   6.659  -9.009  0.00  0.00    +0.003 A 
ATOM     20  C   UNL     1       1.712   6.579  -7.632  0.00  0.00    +0.037 A 
BRANCH  15  21
ATOM     21  O   UNL     1       1.536   5.177  -5.686  0.00  0.00    -0.474 OA
BRANCH  21  22
ATOM     22  C   UNL     1       0.887   6.194  -4.971  0.00  0.00    +0.223 C 
BRANCH  22  23
ATOM     23  C   UNL     1      -0.545   5.879  -4.651  0.00  0.00    +0.120 C 
BRANCH  23  25
ATOM     24  C   UNL     1      -2.430   7.340  -4.992  0.00  0.00    +0.090 C 
ATOM     25  N   UNL     1      -1.438   6.478  -5.612  0.00  0.00    -0.267 NA
ATOM     26  C   UNL     1      -2.036   5.460  -6.443  0.00  0.00    +0.090 C 
ENDBRANCH  23  25
ENDBRANCH  22  23
ENDBRANCH  21  22
ENDBRANCH  15  21
ENDBRANCH   1  18
BRANCH   2  27
ATOM     27  C   UNL     1       4.344   5.033 -12.869  0.00  0.00    +0.044 C 
BRANCH  27  28
ATOM     28  C   UNL     1       5.153   5.991 -13.720  0.00  0.00    +0.100 C 
ATOM     29 CL   UNL     1       6.838   5.471 -13.894  0.00  0.00    -0.113 Cl
ENDBRANCH  27  28
ENDBRANCH   2  27
TORSDOF 9
ENDMDL
MODEL 7
REMARK VINA RESULT:      -7.5      3.803      8.492
REMARK  Name = 
REMARK  9 active torsions:
REMARK  status: ('A' for Active; 'I' for Inactive)
REMARK    1  A    between atoms: N_2  and  C_4
REMARK    2  A    between atoms: C_4  and  C_5
REMARK    3  A    between atoms: C_5  and  O_6
REMARK    4  A    between atoms: O_6  and  C_7
REMARK    5  A    between atoms: C_10  and  C_11
REMARK    6  A    between atoms: C_11  and  C_22
REMARK    7  A    between atoms: C_12  and  C_13
REMARK    8  A    between atoms: C_12  and  C_16
REMARK    9  A    between atoms: C_13  and  C_14
REMARK                            x       y       z     vdW  Elec       q    Type
REMARK                         _______ _______ _______ _____ _____    ______ ____
ROOT
ATOM      1  C   UNL     1       2.800   5.858 -11.044  0.00  0.00    -0.004 C 
ATOM      2  C   UNL     1       4.061   5.606 -11.393  0.00  0.00    -0.021 C 
ENDROOT
BRANCH   2   3
ATOM      3  C   UNL     1       5.127   6.335 -10.694  0.00  0.00    -0.004 A 
ATOM      4  C   UNL     1       6.137   5.638 -10.039  0.00  0.00    -0.000 A 
ATOM      5  C   UNL     1       7.444   6.079 -10.083  0.00  0.00    -0.000 A 
ATOM      6  C   UNL     1       7.732   7.387 -10.453  0.00  0.00    -0.000 A 
ATOM      7  C   UNL     1       6.755   8.079 -11.150  0.00  0.00    -0.000 A 
ATOM      8  C   UNL     1       5.463   7.629 -11.072  0.00  0.00    -0.000 A 
ENDBRANCH   2   3
BRANCH   1   9
ATOM      9  C   UNL     1       1.713   5.907 -12.030  0.00  0.00    -0.000 A 
ATOM     10  C   UNL     1       1.697   6.999 -12.883  0.00  0.00    -0.000 A 
ATOM     11  C   UNL     1       1.030   7.012 -14.079  0.00  0.00    -0.000 A 
ATOM     12  C   UNL     1       0.698   5.794 -14.656  0.00  0.00    -0.000 A 
ATOM     13  C   UNL     1       0.704   4.672 -13.842  0.00  0.00    -0.000 A 
ATOM     14  C   UNL     1       1.228   4.719 -12.559  0.00  0.00    -0.000 A 
ENDBRANCH   1   9
BRANCH   1  18
ATOM     15  C   UNL     1       1.557   5.704  -7.010  0.00  0.00    +0.139 A 
ATOM     16  C   UNL     1       1.787   4.547  -7.742  0.00  0.00    +0.037 A 
ATOM     17  C   UNL     1       2.518   4.696  -8.915  0.00  0.00    +0.003 A 
ATOM     18  C   UNL     1       2.540   5.905  -9.601  0.00  0.00    -0.000 A 
ATOM     19  C   UNL     1       1.883   6.953  -8.994  0.00  0.00    +0.003 A 
ATOM     20  C   UNL     1       1.739   6.937  -7.618  0.00  0.00    +0.037 A 
BRANCH  15  21
ATOM     21  O   UNL     1       1.310   5.645  -5.635  0.00  0.00    -0.474 OA
BRANCH  21  22
ATOM     22  C   UNL     1       1.828   6.637  -4.790  0.00  0.00    +0.223 C 
BRANCH  22  23
ATOM     23  C   UNL     1       2.622   6.088  -3.640  0.00  0.00    +0.120 C 
BRANCH  23  25
ATOM     24  C   UNL     1       4.380   7.277  -4.780  0.00  0.00    +0.090 C 
ATOM     25  N   UNL     1       4.039   6.177  -3.894  0.00  0.00    -0.267 NA
ATOM     26  C   UNL     1       4.543   4.910  -4.370  0.00  0.00    +0.090 C 
ENDBRANCH  23  25
ENDBRANCH  22  23
ENDBRANCH  21  22
ENDBRANCH  15  21
ENDBRANCH   1  18
BRANCH   2  27
ATOM     27  C   UNL     1       4.306   4.976 -12.728  0.00  0.00    +0.044 C 
BRANCH  27  28
ATOM     28  C   UNL     1       5.080   5.904 -13.645  0.00  0.00    +0.100 C 
ATOM     29 CL   UNL     1       6.784   5.440 -13.782  0.00  0.00    -0.113 Cl
ENDBRANCH  27  28
ENDBRANCH   2  27
TORSDOF 9
ENDMDL
MODEL 8
REMARK VINA RESULT:      -7.3      2.361      3.776
REMARK  Name = 
REMARK  9 active torsions:
REMARK  status: ('A' for Active; 'I' for Inactive)
REMARK    1  A    between atoms: N_2  and  C_4
REMARK    2  A    between atoms: C_4  and  C_5
REMARK    3  A    between atoms: C_5  and  O_6
REMARK    4  A    between atoms: O_6  and  C_7
REMARK    5  A    between atoms: C_10  and  C_11
REMARK    6  A    between atoms: C_11  and  C_22
REMARK    7  A    between atoms: C_12  and  C_13
REMARK    8  A    between atoms: C_12  and  C_16
REMARK    9  A    between atoms: C_13  and  C_14
REMARK                            x       y       z     vdW  Elec       q    Type
REMARK                         _______ _______ _______ _____ _____    ______ ____
ROOT
ATOM      1  C   UNL     1       3.437   5.608  -7.204  0.00  0.00    -0.004 C 
ATOM      2  C   UNL     1       2.375   4.960  -7.682  0.00  0.00    -0.021 C 
ENDROOT
BRANCH   2   3
ATOM      3  C   UNL     1       1.867   5.353  -9.003  0.00  0.00    -0.004 A 
ATOM      4  C   UNL     1       1.528   4.381  -9.938  0.00  0.00    -0.000 A 
ATOM      5  C   UNL     1       0.416   4.529 -10.741  0.00  0.00    -0.000 A 
ATOM      6  C   UNL     1      -0.173   5.777 -10.903  0.00  0.00    -0.000 A 
ATOM      7  C   UNL     1       0.115   6.742  -9.951  0.00  0.00    -0.000 A 
ATOM      8  C   UNL     1       1.237   6.578  -9.181  0.00  0.00    -0.000 A 
ENDBRANCH   2   3
BRANCH   1   9
ATOM      9  C   UNL     1       3.568   5.947  -5.781  0.00  0.00    -0.000 A 
ATOM     10  C   UNL     1       4.250   5.040  -4.987  0.00  0.00    -0.000 A 
ATOM     11  C   UNL     1       4.803   5.363  -3.776  0.00  0.00    -0.000 A 
ATOM     12  C   UNL     1       5.051   6.702  -3.508  0.00  0.00    -0.000 A 
ATOM     13  C   UNL     1       4.394   7.647  -4.280  0.00  0.00    -0.000 A 
ATOM     14  C   UNL     1       3.687   7.281  -5.415  0.00  0.00    -0.000 A 
ENDBRANCH   1   9
BRANCH   1  18
ATOM     15  C   UNL     1       6.252   5.942 -10.335  0.00  0.00    +0.139 A 
ATOM     16  C   UNL     1       5.038   6.614 -10.377  0.00  0.00    +0.037 A 
ATOM     17  C   UNL     1       4.353   6.724  -9.172  0.00  0.00    +0.003 A 
ATOM     18  C   UNL     1       4.541   5.800  -8.151  0.00  0.00    -0.000 A 
ATOM     19  C   UNL     1       5.509   4.846  -8.373  0.00  0.00    +0.003 A 
ATOM     20  C   UNL     1       6.546   5.143  -9.240  0.00  0.00    +0.037 A 
BRANCH  15  21
ATOM     21  O   UNL     1       7.242   6.190 -11.291  0.00  0.00    -0.474 OA
BRANCH  21  22
ATOM     22  C   UNL     1       7.419   5.299 -12.360  0.00  0.00    +0.223 C 
BRANCH  22  23
ATOM     23  C   UNL     1       7.446   5.973 -13.701  0.00  0.00    +0.120 C 
BRANCH  23  25
ATOM     24  C   UNL     1       5.067   5.757 -14.011  0.00  0.00    +0.090 C 
ATOM     25  N   UNL     1       6.205   6.658 -13.965  0.00  0.00    -0.267 NA
ATOM     26  C   UNL     1       6.322   7.460 -15.161  0.00  0.00    +0.090 C 
ENDBRANCH  23  25
ENDBRANCH  22  23
ENDBRANCH  21  22
ENDBRANCH  15  21
ENDBRANCH   1  18
BRANCH   2  27
ATOM     27  C   UNL     1       1.506   4.225  -6.710  0.00  0.00    +0.044 C 
BRANCH  27  28
ATOM     28  C   UNL     1       0.425   5.124  -6.144  0.00  0.00    +0.100 C 
ATOM     29 CL   UNL     1      -1.107   4.958  -7.018  0.00  0.00    -0.113 Cl
ENDBRANCH  27  28
ENDBRANCH   2  27
TORSDOF 9
ENDMDL
MODEL 9
REMARK VINA RESULT:      -7.3      3.925      8.563
REMARK  Name = 
REMARK  9 active torsions:
REMARK  status: ('A' for Active; 'I' for Inactive)
REMARK    1  A    between atoms: N_2  and  C_4
REMARK    2  A    between atoms: C_4  and  C_5
REMARK    3  A    between atoms: C_5  and  O_6
REMARK    4  A    between atoms: O_6  and  C_7
REMARK    5  A    between atoms: C_10  and  C_11
REMARK    6  A    between atoms: C_11  and  C_22
REMARK    7  A    between atoms: C_12  and  C_13
REMARK    8  A    between atoms: C_12  and  C_16
REMARK    9  A    between atoms: C_13  and  C_14
REMARK                            x       y       z     vdW  Elec       q    Type
REMARK                         _______ _______ _______ _____ _____    ______ ____
ROOT
ATOM      1  C   UNL     1       2.810   5.894 -10.473  0.00  0.00    -0.004 C 
ATOM      2  C   UNL     1       3.984   5.759 -11.088  0.00  0.00    -0.021 C 
ENDROOT
BRANCH   2   3
ATOM      3  C   UNL     1       5.155   6.408 -10.485  0.00  0.00    -0.004 A 
ATOM      4  C   UNL     1       6.125   5.644  -9.845  0.00  0.00    -0.000 A 
ATOM      5  C   UNL     1       7.465   5.944  -9.979  0.00  0.00    -0.000 A 
ATOM      6  C   UNL     1       7.863   7.195 -10.435  0.00  0.00    -0.000 A 
ATOM      7  C   UNL     1       6.922   7.949 -11.119  0.00  0.00    -0.000 A 
ATOM      8  C   UNL     1       5.598   7.639 -10.951  0.00  0.00    -0.000 A 
ENDBRANCH   2   3
BRANCH   1   9
ATOM      9  C   UNL     1       1.554   6.058 -11.215  0.00  0.00    -0.000 A 
ATOM     10  C   UNL     1       0.393   6.137 -10.462  0.00  0.00    -0.000 A 
ATOM     11  C   UNL     1      -0.775   6.675 -10.932  0.00  0.00    -0.000 A 
ATOM     12  C   UNL     1      -0.709   7.528 -12.025  0.00  0.00    -0.000 A 
ATOM     13  C   UNL     1       0.435   7.487 -12.806  0.00  0.00    -0.000 A 
ATOM     14  C   UNL     1       1.559   6.787 -12.397  0.00  0.00    -0.000 A 
ENDBRANCH   1   9
BRANCH   1  18
ATOM     15  C   UNL     1       2.319   5.107  -6.351  0.00  0.00    +0.139 A 
ATOM     16  C   UNL     1       2.224   4.097  -7.298  0.00  0.00    +0.037 A 
ATOM     17  C   UNL     1       2.742   4.382  -8.557  0.00  0.00    +0.003 A 
ATOM     18  C   UNL     1       2.829   5.689  -9.019  0.00  0.00    -0.000 A 
ATOM     19  C   UNL     1       2.471   6.671  -8.122  0.00  0.00    +0.003 A 
ATOM     20  C   UNL     1       2.580   6.404  -6.768  0.00  0.00    +0.037 A 
BRANCH  15  21
ATOM     21  O   UNL     1       2.322   4.811  -4.985  0.00  0.00    -0.474 OA
BRANCH  21  22
ATOM     22  C   UNL     1       2.781   5.766  -4.065  0.00  0.00    +0.223 C 
BRANCH  22  23
ATOM     23  C   UNL     1       1.707   6.276  -3.147  0.00  0.00    +0.120 C 
BRANCH  23  25
ATOM     24  C   UNL     1      -0.601   5.607  -3.329  0.00  0.00    +0.090 C 
ATOM     25  N   UNL     1       0.731   5.251  -2.868  0.00  0.00    -0.267 NA
ATOM     26  C   UNL     1       0.755   4.906  -1.466  0.00  0.00    +0.090 C 
ENDBRANCH  23  25
ENDBRANCH  22  23
ENDBRANCH  21  22
ENDBRANCH  15  21
ENDBRANCH   1  18
BRANCH   2  27
ATOM     27  C   UNL     1       3.977   5.371 -12.533  0.00  0.00    +0.044 C 
BRANCH  27  28
ATOM     28  C   UNL     1       5.378   5.092 -13.039  0.00  0.00    +0.100 C 
ATOM     29 CL   UNL     1       5.889   6.258 -14.271  0.00  0.00    -0.113 Cl
ENDBRANCH  27  28
ENDBRANCH   2  27
TORSDOF 9
ENDMDL
