MODEL 1
REMARK VINA RESULT:      -5.6      0.000      0.000
REMARK  Name = 
REMARK  20 active torsions:
REMARK  status: ('A' for Active; 'I' for Inactive)
REMARK    1  A    between atoms: C_2  and  C_3
REMARK    2  A    between atoms: C_3  and  C_4
REMARK    3  A    between atoms: C_4  and  C_5
REMARK    4  A    between atoms: C_5  and  C_6
REMARK    5  A    between atoms: C_6  and  C_7
REMARK    6  A    between atoms: C_7  and  C_8
REMARK    7  A    between atoms: C_8  and  C_9
REMARK    8  A    between atoms: C_9  and  C_10
REMARK    9  A    between atoms: C_10  and  C_11
REMARK   10  A    between atoms: C_11  and  C_12
REMARK   11  A    between atoms: C_12  and  C_13
REMARK   12  A    between atoms: C_13  and  C_14
REMARK   13  A    between atoms: C_14  and  C_15
REMARK   14  A    between atoms: C_15  and  C_16
REMARK   15  A    between atoms: C_16  and  C_17
REMARK   16  A    between atoms: C_17  and  C_18
REMARK   17  A    between atoms: C_18  and  C_19
REMARK   18  A    between atoms: C_19  and  C_20
REMARK   19  A    between atoms: C_20  and  C_21
REMARK   20  A    between atoms: C_21  and  C_22
REMARK                            x       y       z     vdW  Elec       q    Type
REMARK                         _______ _______ _______ _____ _____    ______ ____
ROOT
ATOM      1  C   UNL     1       3.444   5.785  -3.706  0.00  0.00    +0.000 C 
ENDROOT
BRANCH   1   2
ATOM      2  C   UNL     1       4.670   5.677  -4.606  0.00  0.00    +0.000 C 
BRANCH   2   3
ATOM      3  C   UNL     1       4.283   6.400  -5.892  0.00  0.00    +0.000 C 
BRANCH   3   4
ATOM      4  C   UNL     1       4.608   5.433  -7.012  0.00  0.00    +0.000 C 
BRANCH   4   5
ATOM      5  C   UNL     1       3.987   5.884  -8.304  0.00  0.00    +0.000 C 
BRANCH   5   6
ATOM      6  C   UNL     1       2.922   6.925  -8.035  0.00  0.00    +0.000 C 
BRANCH   6   7
ATOM      7  C   UNL     1       1.882   6.992  -9.118  0.00  0.00    +0.000 C 
BRANCH   7   8
ATOM      8  C   UNL     1       1.516   5.618  -9.587  0.00  0.00    +0.000 C 
BRANCH   8   9
ATOM      9  C   UNL     1       0.140   5.518 -10.176  0.00  0.00    +0.000 C 
BRANCH   9  10
ATOM     10  C   UNL     1       0.062   4.629 -11.383  0.00  0.00    +0.000 C 
BRANCH  10  12
ATOM     11  C   UNL     1       0.805   4.381 -13.760  0.00  0.00    +0.000 C 
ATOM     12  C   UNL     1       0.871   5.235 -12.524  0.00  0.00    +0.000 C 
ENDBRANCH  10  12
ENDBRANCH   9  10
ENDBRANCH   8   9
ENDBRANCH   7   8
ENDBRANCH   6   7
ENDBRANCH   5   6
ENDBRANCH   4   5
ENDBRANCH   3   4
ENDBRANCH   2   3
ENDBRANCH   1   2
BRANCH   1  13
ATOM     13  C   UNL     1       2.620   6.968  -4.190  0.00  0.00    +0.000 C 
BRANCH  13  14
ATOM     14  C   UNL     1       1.144   6.603  -4.295  0.00  0.00    +0.000 C 
BRANCH  14  15
ATOM     15  C   UNL     1       1.090   5.085  -4.433  0.00  0.00    +0.000 C 
BRANCH  15  16
ATOM     16  C   UNL     1       0.594   4.767  -5.814  0.00  0.00    +0.000 C 
BRANCH  16  17
ATOM     17  C   UNL     1      -0.176   5.911  -6.411  0.00  0.00    +0.000 C 
BRANCH  17  18
ATOM     18  C   UNL     1      -1.545   5.473  -6.884  0.00  0.00    +0.000 C 
BRANCH  18  19
ATOM     19  C   UNL     1      -2.604   5.628  -5.820  0.00  0.00    +0.000 C 
BRANCH  19  20
ATOM     20  C   UNL     1      -2.474   6.973  -5.117  0.00  0.00    +0.003 C 
BRANCH  20  21
ATOM     21  C   UNL     1      -2.498   6.695  -3.639  0.00  0.00    +0.036 C 
BRANCH  21  22
ATOM     22  C   UNL     1      -3.266   5.452  -3.281  0.00  0.00    +0.182 C 
ATOM     23  O   UNL     1      -2.547   4.828  -2.249  0.00  0.00    -0.220 OA
ENDBRANCH  21  22
ENDBRANCH  20  21
ENDBRANCH  19  20
ENDBRANCH  18  19
ENDBRANCH  17  18
ENDBRANCH  16  17
ENDBRANCH  15  16
ENDBRANCH  14  15
ENDBRANCH  13  14
ENDBRANCH   1  13
TORSDOF 20
ENDMDL
MODEL 2
REMARK VINA RESULT:      -5.3      3.862      8.254
REMARK  Name = 
REMARK  20 active torsions:
REMARK  status: ('A' for Active; 'I' for Inactive)
REMARK    1  A    between atoms: C_2  and  C_3
REMARK    2  A    between atoms: C_3  and  C_4
REMARK    3  A    between atoms: C_4  and  C_5
REMARK    4  A    between atoms: C_5  and  C_6
REMARK    5  A    between atoms: C_6  and  C_7
REMARK    6  A    between atoms: C_7  and  C_8
REMARK    7  A    between atoms: C_8  and  C_9
REMARK    8  A    between atoms: C_9  and  C_10
REMARK    9  A    between atoms: C_10  and  C_11
REMARK   10  A    between atoms: C_11  and  C_12
REMARK   11  A    between atoms: C_12  and  C_13
REMARK   12  A    between atoms: C_13  and  C_14
REMARK   13  A    between atoms: C_14  and  C_15
REMARK   14  A    between atoms: C_15  and  C_16
REMARK   15  A    between atoms: C_16  and  C_17
REMARK   16  A    between atoms: C_17  and  C_18
REMARK   17  A    between atoms: C_18  and  C_19
REMARK   18  A    between atoms: C_19  and  C_20
REMARK   19  A    between atoms: C_20  and  C_21
REMARK   20  A    between atoms: C_21  and  C_22
REMARK                            x       y       z     vdW  Elec       q    Type
REMARK                         _______ _______ _______ _____ _____    ______ ____
ROOT
ATOM      1  C   UNL     1       1.649   6.834  -8.780  0.00  0.00    +0.000 C 
ENDROOT
BRANCH   1   2
ATOM      2  C   UNL     1       1.136   5.449  -8.402  0.00  0.00    +0.000 C 
BRANCH   2   3
ATOM      3  C   UNL     1      -0.384   5.557  -8.464  0.00  0.00    +0.000 C 
BRANCH   3   4
ATOM      4  C   UNL     1      -0.887   4.888  -7.201  0.00  0.00    +0.000 C 
BRANCH   4   5
ATOM      5  C   UNL     1      -1.921   5.742  -6.521  0.00  0.00    +0.000 C 
BRANCH   5   6
ATOM      6  C   UNL     1      -1.452   6.122  -5.133  0.00  0.00    +0.000 C 
BRANCH   6   7
ATOM      7  C   UNL     1      -0.396   7.191  -5.144  0.00  0.00    +0.000 C 
BRANCH   7   8
ATOM      8  C   UNL     1       0.813   6.749  -4.377  0.00  0.00    +0.000 C 
BRANCH   8   9
ATOM      9  C   UNL     1       0.515   5.794  -3.261  0.00  0.00    +0.000 C 
BRANCH   9  10
ATOM     10  C   UNL     1       1.730   5.370  -2.486  0.00  0.00    +0.000 C 
BRANCH  10  12
ATOM     11  C   UNL     1       4.063   4.976  -3.300  0.00  0.00    +0.000 C 
ATOM     12  C   UNL     1       2.977   5.997  -3.099  0.00  0.00    +0.000 C 
ENDBRANCH  10  12
ENDBRANCH   9  10
ENDBRANCH   8   9
ENDBRANCH   7   8
ENDBRANCH   6   7
ENDBRANCH   5   6
ENDBRANCH   4   5
ENDBRANCH   3   4
ENDBRANCH   2   3
ENDBRANCH   1   2
BRANCH   1  13
ATOM     13  C   UNL     1       2.580   7.299  -7.671  0.00  0.00    +0.000 C 
BRANCH  13  14
ATOM     14  C   UNL     1       3.102   6.119  -6.860  0.00  0.00    +0.000 C 
BRANCH  14  15
ATOM     15  C   UNL     1       4.608   6.076  -7.096  0.00  0.00    +0.000 C 
BRANCH  15  16
ATOM     16  C   UNL     1       4.879   5.030  -8.139  0.00  0.00    +0.000 C 
BRANCH  16  17
ATOM     17  C   UNL     1       5.869   5.505  -9.165  0.00  0.00    +0.000 C 
BRANCH  17  18
ATOM     18  C   UNL     1       5.186   5.886 -10.460  0.00  0.00    +0.000 C 
BRANCH  18  19
ATOM     19  C   UNL     1       5.396   7.337 -10.821  0.00  0.00    +0.000 C 
BRANCH  19  20
ATOM     20  C   UNL     1       6.798   7.562 -11.373  0.00  0.00    +0.003 C 
BRANCH  20  21
ATOM     21  C   UNL     1       6.898   6.765 -12.645  0.00  0.00    +0.036 C 
BRANCH  21  22
ATOM     22  C   UNL     1       8.150   5.936 -12.728  0.00  0.00    +0.182 C 
ATOM     23  O   UNL     1       7.748   4.598 -12.585  0.00  0.00    -0.220 OA
ENDBRANCH  21  22
ENDBRANCH  20  21
ENDBRANCH  19  20
ENDBRANCH  18  19
ENDBRANCH  17  18
ENDBRANCH  16  17
ENDBRANCH  15  16
ENDBRANCH  14  15
ENDBRANCH  13  14
ENDBRANCH   1  13
TORSDOF 20
ENDMDL
MODEL 3
REMARK VINA RESULT:      -5.3      3.830      7.271
REMARK  Name = 
REMARK  20 active torsions:
REMARK  status: ('A' for Active; 'I' for Inactive)
REMARK    1  A    between atoms: C_2  and  C_3
REMARK    2  A    between atoms: C_3  and  C_4
REMARK    3  A    between atoms: C_4  and  C_5
REMARK    4  A    between atoms: C_5  and  C_6
REMARK    5  A    between atoms: C_6  and  C_7
REMARK    6  A    between atoms: C_7  and  C_8
REMARK    7  A    between atoms: C_8  and  C_9
REMARK    8  A    between atoms: C_9  and  C_10
REMARK    9  A    between atoms: C_10  and  C_11
REMARK   10  A    between atoms: C_11  and  C_12
REMARK   11  A    between atoms: C_12  and  C_13
REMARK   12  A    between atoms: C_13  and  C_14
REMARK   13  A    between atoms: C_14  and  C_15
REMARK   14  A    between atoms: C_15  and  C_16
REMARK   15  A    between atoms: C_16  and  C_17
REMARK   16  A    between atoms: C_17  and  C_18
REMARK   17  A    between atoms: C_18  and  C_19
REMARK   18  A    between atoms: C_19  and  C_20
REMARK   19  A    between atoms: C_20  and  C_21
REMARK   20  A    between atoms: C_21  and  C_22
REMARK                            x       y       z     vdW  Elec       q    Type
REMARK                         _______ _______ _______ _____ _____    ______ ____
ROOT
ATOM      1  C   UNL     1       1.330   5.402  -4.054  0.00  0.00    +0.000 C 
ENDROOT
BRANCH   1   2
ATOM      2  C   UNL     1       0.291   6.495  -3.831  0.00  0.00    +0.000 C 
BRANCH   2   3
ATOM      3  C   UNL     1      -0.811   5.834  -3.009  0.00  0.00    +0.000 C 
BRANCH   3   4
ATOM      4  C   UNL     1      -1.911   5.506  -3.999  0.00  0.00    +0.000 C 
BRANCH   4   5
ATOM      5  C   UNL     1      -2.069   6.612  -5.005  0.00  0.00    +0.000 C 
BRANCH   5   6
ATOM      6  C   UNL     1      -2.405   6.037  -6.363  0.00  0.00    +0.000 C 
BRANCH   6   7
ATOM      7  C   UNL     1      -1.391   5.037  -6.843  0.00  0.00    +0.000 C 
BRANCH   7   8
ATOM      8  C   UNL     1      -0.186   5.729  -7.402  0.00  0.00    +0.000 C 
BRANCH   8   9
ATOM      9  C   UNL     1       0.035   5.487  -8.865  0.00  0.00    +0.000 C 
BRANCH   9  10
ATOM     10  C   UNL     1       0.961   6.478  -9.510  0.00  0.00    +0.000 C 
BRANCH  10  12
ATOM     11  C   UNL     1       0.351   5.102 -11.509  0.00  0.00    +0.000 C 
ATOM     12  C   UNL     1       0.761   6.464 -11.021  0.00  0.00    +0.000 C 
ENDBRANCH  10  12
ENDBRANCH   9  10
ENDBRANCH   8   9
ENDBRANCH   7   8
ENDBRANCH   6   7
ENDBRANCH   5   6
ENDBRANCH   4   5
ENDBRANCH   3   4
ENDBRANCH   2   3
ENDBRANCH   1   2
BRANCH   1  13
ATOM     13  C   UNL     1       2.516   6.033  -4.766  0.00  0.00    +0.000 C 
BRANCH  13  14
ATOM     14  C   UNL     1       3.024   5.137  -5.890  0.00  0.00    +0.000 C 
BRANCH  14  15
ATOM     15  C   UNL     1       3.630   6.068  -6.934  0.00  0.00    +0.000 C 
BRANCH  15  16
ATOM     16  C   UNL     1       4.704   5.308  -7.659  0.00  0.00    +0.000 C 
BRANCH  16  17
ATOM     17  C   UNL     1       4.416   5.195  -9.129  0.00  0.00    +0.000 C 
BRANCH  17  18
ATOM     18  C   UNL     1       5.453   5.925  -9.955  0.00  0.00    +0.000 C 
BRANCH  18  19
ATOM     19  C   UNL     1       6.831   5.864  -9.341  0.00  0.00    +0.000 C 
BRANCH  19  20
ATOM     20  C   UNL     1       7.876   5.499 -10.388  0.00  0.00    +0.003 C 
BRANCH  20  21
ATOM     21  C   UNL     1       7.720   6.479 -11.519  0.00  0.00    +0.036 C 
BRANCH  21  22
ATOM     22  C   UNL     1       8.180   5.934 -12.843  0.00  0.00    +0.182 C 
ATOM     23  O   UNL     1       7.735   4.603 -12.898  0.00  0.00    -0.220 OA
ENDBRANCH  21  22
ENDBRANCH  20  21
ENDBRANCH  19  20
ENDBRANCH  18  19
ENDBRANCH  17  18
ENDBRANCH  16  17
ENDBRANCH  15  16
ENDBRANCH  14  15
ENDBRANCH  13  14
ENDBRANCH   1  13
TORSDOF 20
ENDMDL
MODEL 4
REMARK VINA RESULT:      -5.3      2.121      3.186
REMARK  Name = 
REMARK  20 active torsions:
REMARK  status: ('A' for Active; 'I' for Inactive)
REMARK    1  A    between atoms: C_2  and  C_3
REMARK    2  A    between atoms: C_3  and  C_4
REMARK    3  A    between atoms: C_4  and  C_5
REMARK    4  A    between atoms: C_5  and  C_6
REMARK    5  A    between atoms: C_6  and  C_7
REMARK    6  A    between atoms: C_7  and  C_8
REMARK    7  A    between atoms: C_8  and  C_9
REMARK    8  A    between atoms: C_9  and  C_10
REMARK    9  A    between atoms: C_10  and  C_11
REMARK   10  A    between atoms: C_11  and  C_12
REMARK   11  A    between atoms: C_12  and  C_13
REMARK   12  A    between atoms: C_13  and  C_14
REMARK   13  A    between atoms: C_14  and  C_15
REMARK   14  A    between atoms: C_15  and  C_16
REMARK   15  A    between atoms: C_16  and  C_17
REMARK   16  A    between atoms: C_17  and  C_18
REMARK   17  A    between atoms: C_18  and  C_19
REMARK   18  A    between atoms: C_19  and  C_20
REMARK   19  A    between atoms: C_20  and  C_21
REMARK   20  A    between atoms: C_21  and  C_22
REMARK                            x       y       z     vdW  Elec       q    Type
REMARK                         _______ _______ _______ _____ _____    ______ ____
ROOT
ATOM      1  C   UNL     1       2.629   5.456  -2.652  0.00  0.00    +0.000 C 
ENDROOT
BRANCH   1   2
ATOM      2  C   UNL     1       3.566   6.348  -3.458  0.00  0.00    +0.000 C 
BRANCH   2   3
ATOM      3  C   UNL     1       4.617   5.402  -4.033  0.00  0.00    +0.000 C 
BRANCH   3   4
ATOM      4  C   UNL     1       4.305   5.307  -5.513  0.00  0.00    +0.000 C 
BRANCH   4   5
ATOM      5  C   UNL     1       4.120   6.675  -6.108  0.00  0.00    +0.000 C 
BRANCH   5   6
ATOM      6  C   UNL     1       3.197   6.602  -7.305  0.00  0.00    +0.000 C 
BRANCH   6   7
ATOM      7  C   UNL     1       3.585   5.525  -8.279  0.00  0.00    +0.000 C 
BRANCH   7   8
ATOM      8  C   UNL     1       3.870   6.109  -9.629  0.00  0.00    +0.000 C 
BRANCH   8   9
ATOM      9  C   UNL     1       5.319   6.411  -9.871  0.00  0.00    +0.000 C 
BRANCH   9  10
ATOM     10  C   UNL     1       6.257   5.575  -9.050  0.00  0.00    +0.000 C 
BRANCH  10  12
ATOM     11  C   UNL     1       7.606   6.145 -11.080  0.00  0.00    +0.000 C 
ATOM     12  C   UNL     1       7.642   5.576  -9.688  0.00  0.00    +0.000 C 
ENDBRANCH  10  12
ENDBRANCH   9  10
ENDBRANCH   8   9
ENDBRANCH   7   8
ENDBRANCH   6   7
ENDBRANCH   5   6
ENDBRANCH   4   5
ENDBRANCH   3   4
ENDBRANCH   2   3
ENDBRANCH   1   2
BRANCH   1  13
ATOM     13  C   UNL     1       1.212   5.969  -2.862  0.00  0.00    +0.000 C 
BRANCH  13  14
ATOM     14  C   UNL     1       0.994   6.404  -4.307  0.00  0.00    +0.000 C 
BRANCH  14  15
ATOM     15  C   UNL     1       0.316   5.229  -5.006  0.00  0.00    +0.000 C 
BRANCH  15  16
ATOM     16  C   UNL     1      -0.070   5.678  -6.386  0.00  0.00    +0.000 C 
BRANCH  16  17
ATOM     17  C   UNL     1      -1.512   5.386  -6.687  0.00  0.00    +0.000 C 
BRANCH  17  18
ATOM     18  C   UNL     1      -2.401   5.697  -5.502  0.00  0.00    +0.000 C 
BRANCH  18  19
ATOM     19  C   UNL     1      -2.616   7.179  -5.310  0.00  0.00    +0.000 C 
BRANCH  19  20
ATOM     20  C   UNL     1      -2.415   7.573  -3.853  0.00  0.00    +0.003 C 
BRANCH  20  21
ATOM     21  C   UNL     1      -3.260   6.640  -3.030  0.00  0.00    +0.036 C 
BRANCH  21  22
ATOM     22  C   UNL     1      -2.543   6.100  -1.823  0.00  0.00    +0.182 C 
ATOM     23  O   UNL     1      -2.153   4.791  -2.149  0.00  0.00    -0.220 OA
ENDBRANCH  21  22
ENDBRANCH  20  21
ENDBRANCH  19  20
ENDBRANCH  18  19
ENDBRANCH  17  18
ENDBRANCH  16  17
ENDBRANCH  15  16
ENDBRANCH  14  15
ENDBRANCH  13  14
ENDBRANCH   1  13
TORSDOF 20
ENDMDL
MODEL 5
REMARK VINA RESULT:      -5.3      3.167      4.248
REMARK  Name = 
REMARK  20 active torsions:
REMARK  status: ('A' for Active; 'I' for Inactive)
REMARK    1  A    between atoms: C_2  and  C_3
REMARK    2  A    between atoms: C_3  and  C_4
REMARK    3  A    between atoms: C_4  and  C_5
REMARK    4  A    between atoms: C_5  and  C_6
REMARK    5  A    between atoms: C_6  and  C_7
REMARK    6  A    between atoms: C_7  and  C_8
REMARK    7  A    between atoms: C_8  and  C_9
REMARK    8  A    between atoms: C_9  and  C_10
REMARK    9  A    between atoms: C_10  and  C_11
REMARK   10  A    between atoms: C_11  and  C_12
REMARK   11  A    between atoms: C_12  and  C_13
REMARK   12  A    between atoms: C_13  and  C_14
REMARK   13  A    between atoms: C_14  and  C_15
REMARK   14  A    between atoms: C_15  and  C_16
REMARK   15  A    between atoms: C_16  and  C_17
REMARK   16  A    between atoms: C_17  and  C_18
REMARK   17  A    between atoms: C_18  and  C_19
REMARK   18  A    between atoms: C_19  and  C_20
REMARK   19  A    between atoms: C_20  and  C_21
REMARK   20  A    between atoms: C_21  and  C_22
REMARK                            x       y       z     vdW  Elec       q    Type
REMARK                         _______ _______ _______ _____ _____    ______ ____
ROOT
ATOM      1  C   UNL     1       2.084   6.499  -8.960  0.00  0.00    +0.000 C 
ENDROOT
BRANCH   1   2
ATOM      2  C   UNL     1       3.447   6.202  -9.576  0.00  0.00    +0.000 C 
BRANCH   2   3
ATOM      3  C   UNL     1       4.016   5.055  -8.746  0.00  0.00    +0.000 C 
BRANCH   3   4
ATOM      4  C   UNL     1       5.503   5.330  -8.646  0.00  0.00    +0.000 C 
BRANCH   4   5
ATOM      5  C   UNL     1       5.990   6.074  -9.858  0.00  0.00    +0.000 C 
BRANCH   5   6
ATOM      6  C   UNL     1       7.362   5.577 -10.258  0.00  0.00    +0.000 C 
BRANCH   6   7
ATOM      7  C   UNL     1       8.119   6.563 -11.103  0.00  0.00    +0.000 C 
BRANCH   7   8
ATOM      8  C   UNL     1       8.666   5.900 -12.330  0.00  0.00    +0.000 C 
BRANCH   8   9
ATOM      9  C   UNL     1       7.620   5.293 -13.216  0.00  0.00    +0.000 C 
BRANCH   9  10
ATOM     10  C   UNL     1       7.082   6.237 -14.252  0.00  0.00    +0.000 C 
BRANCH  10  12
ATOM     11  C   UNL     1       5.011   5.197 -13.308  0.00  0.00    +0.000 C 
ATOM     12  C   UNL     1       5.565   6.328 -14.130  0.00  0.00    +0.000 C 
ENDBRANCH  10  12
ENDBRANCH   9  10
ENDBRANCH   8   9
ENDBRANCH   7   8
ENDBRANCH   6   7
ENDBRANCH   5   6
ENDBRANCH   4   5
ENDBRANCH   3   4
ENDBRANCH   2   3
ENDBRANCH   1   2
BRANCH   1  13
ATOM     13  C   UNL     1       2.309   7.415  -7.766  0.00  0.00    +0.000 C 
BRANCH  13  14
ATOM     14  C   UNL     1       1.372   7.061  -6.618  0.00  0.00    +0.000 C 
BRANCH  14  15
ATOM     15  C   UNL     1       1.307   5.537  -6.578  0.00  0.00    +0.000 C 
BRANCH  15  16
ATOM     16  C   UNL     1      -0.010   5.151  -5.968  0.00  0.00    +0.000 C 
BRANCH  16  17
ATOM     17  C   UNL     1      -1.152   5.361  -6.922  0.00  0.00    +0.000 C 
BRANCH  17  18
ATOM     18  C   UNL     1      -2.397   5.834  -6.201  0.00  0.00    +0.000 C 
BRANCH  18  19
ATOM     19  C   UNL     1      -2.086   6.785  -5.071  0.00  0.00    +0.000 C 
BRANCH  19  20
ATOM     20  C   UNL     1      -2.997   6.526  -3.878  0.00  0.00    +0.003 C 
BRANCH  20  21
ATOM     21  C   UNL     1      -2.452   5.317  -3.169  0.00  0.00    +0.036 C 
BRANCH  21  22
ATOM     22  C   UNL     1      -2.054   5.593  -1.745  0.00  0.00    +0.182 C 
ATOM     23  O   UNL     1      -0.785   5.015  -1.572  0.00  0.00    -0.220 OA
ENDBRANCH  21  22
ENDBRANCH  20  21
ENDBRANCH  19  20
ENDBRANCH  18  19
ENDBRANCH  17  18
ENDBRANCH  16  17
ENDBRANCH  15  16
ENDBRANCH  14  15
ENDBRANCH  13  14
ENDBRANCH   1  13
TORSDOF 20
ENDMDL
MODEL 6
REMARK VINA RESULT:      -5.2      2.564      3.781
REMARK  Name = 
REMARK  20 active torsions:
REMARK  status: ('A' for Active; 'I' for Inactive)
REMARK    1  A    between atoms: C_2  and  C_3
REMARK    2  A    between atoms: C_3  and  C_4
REMARK    3  A    between atoms: C_4  and  C_5
REMARK    4  A    between atoms: C_5  and  C_6
REMARK    5  A    between atoms: C_6  and  C_7
REMARK    6  A    between atoms: C_7  and  C_8
REMARK    7  A    between atoms: C_8  and  C_9
REMARK    8  A    between atoms: C_9  and  C_10
REMARK    9  A    between atoms: C_10  and  C_11
REMARK   10  A    between atoms: C_11  and  C_12
REMARK   11  A    between atoms: C_12  and  C_13
REMARK   12  A    between atoms: C_13  and  C_14
REMARK   13  A    between atoms: C_14  and  C_15
REMARK   14  A    between atoms: C_15  and  C_16
REMARK   15  A    between atoms: C_16  and  C_17
REMARK   16  A    between atoms: C_17  and  C_18
REMARK   17  A    between atoms: C_18  and  C_19
REMARK   18  A    between atoms: C_19  and  C_20
REMARK   19  A    between atoms: C_20  and  C_21
REMARK   20  A    between atoms: C_21  and  C_22
REMARK                            x       y       z     vdW  Elec       q    Type
REMARK                         _______ _______ _______ _____ _____    ______ ____
ROOT
ATOM      1  C   UNL     1       4.133   8.109  -2.291  0.00  0.00    +0.000 C 
ENDROOT
BRANCH   1   2
ATOM      2  C   UNL     1       5.133   7.257  -3.065  0.00  0.00    +0.000 C 
BRANCH   2   3
ATOM      3  C   UNL     1       5.094   7.797  -4.491  0.00  0.00    +0.000 C 
BRANCH   3   4
ATOM      4  C   UNL     1       3.923   7.099  -5.154  0.00  0.00    +0.000 C 
BRANCH   4   5
ATOM      5  C   UNL     1       4.323   5.735  -5.643  0.00  0.00    +0.000 C 
BRANCH   5   6
ATOM      6  C   UNL     1       3.259   5.180  -6.565  0.00  0.00    +0.000 C 
BRANCH   6   7
ATOM      7  C   UNL     1       3.682   5.171  -8.008  0.00  0.00    +0.000 C 
BRANCH   7   8
ATOM      8  C   UNL     1       5.176   5.175  -8.122  0.00  0.00    +0.000 C 
BRANCH   8   9
ATOM      9  C   UNL     1       5.694   5.882  -9.339  0.00  0.00    +0.000 C 
BRANCH   9  10
ATOM     10  C   UNL     1       7.192   5.878  -9.448  0.00  0.00    +0.000 C 
BRANCH  10  12
ATOM     11  C   UNL     1       6.832   7.718 -11.107  0.00  0.00    +0.000 C 
ATOM     12  C   UNL     1       7.613   6.473 -10.788  0.00  0.00    +0.000 C 
ENDBRANCH  10  12
ENDBRANCH   9  10
ENDBRANCH   8   9
ENDBRANCH   7   8
ENDBRANCH   6   7
ENDBRANCH   5   6
ENDBRANCH   4   5
ENDBRANCH   3   4
ENDBRANCH   2   3
ENDBRANCH   1   2
BRANCH   1  13
ATOM     13  C   UNL     1       3.432   7.201  -1.292  0.00  0.00    +0.000 C 
BRANCH  13  14
ATOM     14  C   UNL     1       3.764   5.736  -1.552  0.00  0.00    +0.000 C 
BRANCH  14  15
ATOM     15  C   UNL     1       2.427   5.010  -1.658  0.00  0.00    +0.000 C 
BRANCH  15  16
ATOM     16  C   UNL     1       1.444   5.949  -2.297  0.00  0.00    +0.000 C 
BRANCH  16  17
ATOM     17  C   UNL     1       0.966   5.440  -3.627  0.00  0.00    +0.000 C 
BRANCH  17  18
ATOM     18  C   UNL     1       0.130   6.475  -4.349  0.00  0.00    +0.000 C 
BRANCH  18  19
ATOM     19  C   UNL     1      -0.365   5.989  -5.690  0.00  0.00    +0.000 C 
BRANCH  19  20
ATOM     20  C   UNL     1      -1.852   5.664  -5.634  0.00  0.00    +0.003 C 
BRANCH  20  21
ATOM     21  C   UNL     1      -2.373   6.229  -4.342  0.00  0.00    +0.036 C 
BRANCH  21  22
ATOM     22  C   UNL     1      -3.291   5.289  -3.611  0.00  0.00    +0.182 C 
ATOM     23  O   UNL     1      -2.568   4.811  -2.506  0.00  0.00    -0.220 OA
ENDBRANCH  21  22
ENDBRANCH  20  21
ENDBRANCH  19  20
ENDBRANCH  18  19
ENDBRANCH  17  18
ENDBRANCH  16  17
ENDBRANCH  15  16
ENDBRANCH  14  15
ENDBRANCH  13  14
ENDBRANCH   1  13
TORSDOF 20
ENDMDL
MODEL 7
REMARK VINA RESULT:      -5.2      2.920      7.508
REMARK  Name = 
REMARK  20 active torsions:
REMARK  status: ('A' for Active; 'I' for Inactive)
REMARK    1  A    between atoms: C_2  and  C_3
REMARK    2  A    between atoms: C_3  and  C_4
REMARK    3  A    between atoms: C_4  and  C_5
REMARK    4  A    between atoms: C_5  and  C_6
REMARK    5  A    between atoms: C_6  and  C_7
REMARK    6  A    between atoms: C_7  and  C_8
REMARK    7  A    between atoms: C_8  and  C_9
REMARK    8  A    between atoms: C_9  and  C_10
REMARK    9  A    between atoms: C_10  and  C_11
REMARK   10  A    between atoms: C_11  and  C_12
REMARK   11  A    between atoms: C_12  and  C_13
REMARK   12  A    between atoms: C_13  and  C_14
REMARK   13  A    between atoms: C_14  and  C_15
REMARK   14  A    between atoms: C_15  and  C_16
REMARK   15  A    between atoms: C_16  and  C_17
REMARK   16  A    between atoms: C_17  and  C_18
REMARK   17  A    between atoms: C_18  and  C_19
REMARK   18  A    between atoms: C_19  and  C_20
REMARK   19  A    between atoms: C_20  and  C_21
REMARK   20  A    between atoms: C_21  and  C_22
REMARK                            x       y       z     vdW  Elec       q    Type
REMARK                         _______ _______ _______ _____ _____    ______ ____
ROOT
ATOM      1  C   UNL     1      -0.787   5.431  -7.172  0.00  0.00    +0.000 C 
ENDROOT
BRANCH   1   2
ATOM      2  C   UNL     1      -2.119   5.410  -6.430  0.00  0.00    +0.000 C 
BRANCH   2   3
ATOM      3  C   UNL     1      -1.789   5.850  -5.008  0.00  0.00    +0.000 C 
BRANCH   3   4
ATOM      4  C   UNL     1      -2.144   7.322  -4.949  0.00  0.00    +0.000 C 
BRANCH   4   5
ATOM      5  C   UNL     1      -2.042   7.839  -3.541  0.00  0.00    +0.000 C 
BRANCH   5   6
ATOM      6  C   UNL     1      -2.906   7.009  -2.617  0.00  0.00    +0.000 C 
BRANCH   6   7
ATOM      7  C   UNL     1      -2.402   6.993  -1.201  0.00  0.00    +0.000 C 
BRANCH   7   8
ATOM      8  C   UNL     1      -1.681   5.713  -0.909  0.00  0.00    +0.000 C 
BRANCH   8   9
ATOM      9  C   UNL     1      -0.187   5.833  -0.934  0.00  0.00    +0.000 C 
BRANCH   9  10
ATOM     10  C   UNL     1       0.457   5.140  -2.100  0.00  0.00    +0.000 C 
BRANCH  10  12
ATOM     11  C   UNL     1       2.713   5.680  -3.039  0.00  0.00    +0.000 C 
ATOM     12  C   UNL     1       1.288   6.139  -2.899  0.00  0.00    +0.000 C 
ENDBRANCH  10  12
ENDBRANCH   9  10
ENDBRANCH   8   9
ENDBRANCH   7   8
ENDBRANCH   6   7
ENDBRANCH   5   6
ENDBRANCH   4   5
ENDBRANCH   3   4
ENDBRANCH   2   3
ENDBRANCH   1   2
BRANCH   1  13
ATOM     13  C   UNL     1       0.262   4.825  -6.251  0.00  0.00    +0.000 C 
BRANCH  13  14
ATOM     14  C   UNL     1       1.644   5.399  -6.539  0.00  0.00    +0.000 C 
BRANCH  14  15
ATOM     15  C   UNL     1       1.498   6.915  -6.469  0.00  0.00    +0.000 C 
BRANCH  15  16
ATOM     16  C   UNL     1       2.067   7.490  -7.734  0.00  0.00    +0.000 C 
BRANCH  16  17
ATOM     17  C   UNL     1       2.880   6.480  -8.492  0.00  0.00    +0.000 C 
BRANCH  17  18
ATOM     18  C   UNL     1       2.422   6.365  -9.930  0.00  0.00    +0.000 C 
BRANCH  18  19
ATOM     19  C   UNL     1       1.575   5.139 -10.172  0.00  0.00    +0.000 C 
BRANCH  19  20
ATOM     20  C   UNL     1       0.168   5.528 -10.608  0.00  0.00    +0.003 C 
BRANCH  20  21
ATOM     21  C   UNL     1       0.190   7.007 -10.878  0.00  0.00    +0.036 C 
BRANCH  21  22
ATOM     22  C   UNL     1      -0.221   7.361 -12.281  0.00  0.00    +0.182 C 
ATOM     23  O   UNL     1       0.967   7.507 -13.014  0.00  0.00    -0.220 OA
ENDBRANCH  21  22
ENDBRANCH  20  21
ENDBRANCH  19  20
ENDBRANCH  18  19
ENDBRANCH  17  18
ENDBRANCH  16  17
ENDBRANCH  15  16
ENDBRANCH  14  15
ENDBRANCH  13  14
ENDBRANCH   1  13
TORSDOF 20
ENDMDL
MODEL 8
REMARK VINA RESULT:      -5.2      2.162      4.723
REMARK  Name = 
REMARK  20 active torsions:
REMARK  status: ('A' for Active; 'I' for Inactive)
REMARK    1  A    between atoms: C_2  and  C_3
REMARK    2  A    between atoms: C_3  and  C_4
REMARK    3  A    between atoms: C_4  and  C_5
REMARK    4  A    between atoms: C_5  and  C_6
REMARK    5  A    between atoms: C_6  and  C_7
REMARK    6  A    between atoms: C_7  and  C_8
REMARK    7  A    between atoms: C_8  and  C_9
REMARK    8  A    between atoms: C_9  and  C_10
REMARK    9  A    between atoms: C_10  and  C_11
REMARK   10  A    between atoms: C_11  and  C_12
REMARK   11  A    between atoms: C_12  and  C_13
REMARK   12  A    between atoms: C_13  and  C_14
REMARK   13  A    between atoms: C_14  and  C_15
REMARK   14  A    between atoms: C_15  and  C_16
REMARK   15  A    between atoms: C_16  and  C_17
REMARK   16  A    between atoms: C_17  and  C_18
REMARK   17  A    between atoms: C_18  and  C_19
REMARK   18  A    between atoms: C_19  and  C_20
REMARK   19  A    between atoms: C_20  and  C_21
REMARK   20  A    between atoms: C_21  and  C_22
REMARK                            x       y       z     vdW  Elec       q    Type
REMARK                         _______ _______ _______ _____ _____    ______ ____
ROOT
ATOM      1  C   UNL     1      -1.603   5.355  -6.782  0.00  0.00    +0.000 C 
ENDROOT
BRANCH   1   2
ATOM      2  C   UNL     1      -0.204   5.915  -6.548  0.00  0.00    +0.000 C 
BRANCH   2   3
ATOM      3  C   UNL     1       0.546   4.813  -5.806  0.00  0.00    +0.000 C 
BRANCH   3   4
ATOM      4  C   UNL     1       1.769   5.485  -5.216  0.00  0.00    +0.000 C 
BRANCH   4   5
ATOM      5  C   UNL     1       2.166   6.682  -6.034  0.00  0.00    +0.000 C 
BRANCH   5   6
ATOM      6  C   UNL     1       3.674   6.789  -6.103  0.00  0.00    +0.000 C 
BRANCH   6   7
ATOM      7  C   UNL     1       4.336   5.497  -6.493  0.00  0.00    +0.000 C 
BRANCH   7   8
ATOM      8  C   UNL     1       4.791   5.544  -7.919  0.00  0.00    +0.000 C 
BRANCH   8   9
ATOM      9  C   UNL     1       4.065   4.595  -8.825  0.00  0.00    +0.000 C 
BRANCH   9  10
ATOM     10  C   UNL     1       2.932   5.227  -9.580  0.00  0.00    +0.000 C 
BRANCH  10  12
ATOM     11  C   UNL     1       0.512   4.970 -10.165  0.00  0.00    +0.000 C 
ATOM     12  C   UNL     1       1.642   4.457  -9.317  0.00  0.00    +0.000 C 
ENDBRANCH  10  12
ENDBRANCH   9  10
ENDBRANCH   8   9
ENDBRANCH   7   8
ENDBRANCH   6   7
ENDBRANCH   5   6
ENDBRANCH   4   5
ENDBRANCH   3   4
ENDBRANCH   2   3
ENDBRANCH   1   2
BRANCH   1  13
ATOM     13  C   UNL     1      -2.488   5.835  -5.642  0.00  0.00    +0.000 C 
BRANCH  13  14
ATOM     14  C   UNL     1      -2.198   7.291  -5.297  0.00  0.00    +0.000 C 
BRANCH  14  15
ATOM     15  C   UNL     1      -2.199   7.374  -3.774  0.00  0.00    +0.000 C 
BRANCH  15  16
ATOM     16  C   UNL     1      -2.886   6.147  -3.248  0.00  0.00    +0.000 C 
BRANCH  16  17
ATOM     17  C   UNL     1      -2.202   5.603  -2.025  0.00  0.00    +0.000 C 
BRANCH  17  18
ATOM     18  C   UNL     1      -0.793   6.137  -1.893  0.00  0.00    +0.000 C 
BRANCH  18  19
ATOM     19  C   UNL     1       0.248   5.045  -1.932  0.00  0.00    +0.000 C 
BRANCH  19  20
ATOM     20  C   UNL     1       1.355   5.312  -0.920  0.00  0.00    +0.003 C 
BRANCH  20  21
ATOM     21  C   UNL     1       2.618   5.533  -1.706  0.00  0.00    +0.036 C 
BRANCH  21  22
ATOM     22  C   UNL     1       3.783   4.732  -1.194  0.00  0.00    +0.182 C 
ATOM     23  O   UNL     1       4.383   5.507  -0.189  0.00  0.00    -0.220 OA
ENDBRANCH  21  22
ENDBRANCH  20  21
ENDBRANCH  19  20
ENDBRANCH  18  19
ENDBRANCH  17  18
ENDBRANCH  16  17
ENDBRANCH  15  16
ENDBRANCH  14  15
ENDBRANCH  13  14
ENDBRANCH   1  13
TORSDOF 20
ENDMDL
MODEL 9
REMARK VINA RESULT:      -5.1      2.473      6.057
REMARK  Name = 
REMARK  20 active torsions:
REMARK  status: ('A' for Active; 'I' for Inactive)
REMARK    1  A    between atoms: C_2  and  C_3
REMARK    2  A    between atoms: C_3  and  C_4
REMARK    3  A    between atoms: C_4  and  C_5
REMARK    4  A    between atoms: C_5  and  C_6
REMARK    5  A    between atoms: C_6  and  C_7
REMARK    6  A    between atoms: C_7  and  C_8
REMARK    7  A    between atoms: C_8  and  C_9
REMARK    8  A    between atoms: C_9  and  C_10
REMARK    9  A    between atoms: C_10  and  C_11
REMARK   10  A    between atoms: C_11  and  C_12
REMARK   11  A    between atoms: C_12  and  C_13
REMARK   12  A    between atoms: C_13  and  C_14
REMARK   13  A    between atoms: C_14  and  C_15
REMARK   14  A    between atoms: C_15  and  C_16
REMARK   15  A    between atoms: C_16  and  C_17
REMARK   16  A    between atoms: C_17  and  C_18
REMARK   17  A    between atoms: C_18  and  C_19
REMARK   18  A    between atoms: C_19  and  C_20
REMARK   19  A    between atoms: C_20  and  C_21
REMARK   20  A    between atoms: C_21  and  C_22
REMARK                            x       y       z     vdW  Elec       q    Type
REMARK                         _______ _______ _______ _____ _____    ______ ____
ROOT
ATOM      1  C   UNL     1       4.298   7.278  -2.407  0.00  0.00    +0.000 C 
ENDROOT
BRANCH   1   2
ATOM      2  C   UNL     1       2.873   7.355  -2.942  0.00  0.00    +0.000 C 
BRANCH   2   3
ATOM      3  C   UNL     1       2.045   6.497  -1.991  0.00  0.00    +0.000 C 
BRANCH   3   4
ATOM      4  C   UNL     1       1.315   5.506  -2.874  0.00  0.00    +0.000 C 
BRANCH   4   5
ATOM      5  C   UNL     1       1.121   6.066  -4.256  0.00  0.00    +0.000 C 
BRANCH   5   6
ATOM      6  C   UNL     1       0.443   5.043  -5.142  0.00  0.00    +0.000 C 
BRANCH   6   7
ATOM      7  C   UNL     1      -0.084   5.634  -6.420  0.00  0.00    +0.000 C 
BRANCH   7   8
ATOM      8  C   UNL     1      -1.566   5.442  -6.522  0.00  0.00    +0.000 C 
BRANCH   8   9
ATOM      9  C   UNL     1      -2.325   5.884  -5.307  0.00  0.00    +0.000 C 
BRANCH   9  10
ATOM     10  C   UNL     1      -2.680   7.343  -5.313  0.00  0.00    +0.000 C 
BRANCH  10  12
ATOM     11  C   UNL     1      -2.085   7.380  -2.882  0.00  0.00    +0.000 C 
ATOM     12  C   UNL     1      -1.915   8.066  -4.210  0.00  0.00    +0.000 C 
ENDBRANCH  10  12
ENDBRANCH   9  10
ENDBRANCH   8   9
ENDBRANCH   7   8
ENDBRANCH   6   7
ENDBRANCH   5   6
ENDBRANCH   4   5
ENDBRANCH   3   4
ENDBRANCH   2   3
ENDBRANCH   1   2
BRANCH   1  13
ATOM     13  C   UNL     1       5.239   7.300  -3.602  0.00  0.00    +0.000 C 
BRANCH  13  14
ATOM     14  C   UNL     1       4.465   7.237  -4.913  0.00  0.00    +0.000 C 
BRANCH  14  15
ATOM     15  C   UNL     1       4.575   5.796  -5.402  0.00  0.00    +0.000 C 
BRANCH  15  16
ATOM     16  C   UNL     1       4.284   5.788  -6.875  0.00  0.00    +0.000 C 
BRANCH  16  17
ATOM     17  C   UNL     1       3.235   6.799  -7.245  0.00  0.00    +0.000 C 
BRANCH  17  18
ATOM     18  C   UNL     1       3.149   6.986  -8.744  0.00  0.00    +0.000 C 
BRANCH  18  19
ATOM     19  C   UNL     1       1.765   6.718  -9.284  0.00  0.00    +0.000 C 
BRANCH  19  20
ATOM     20  C   UNL     1       1.670   5.312  -9.860  0.00  0.00    +0.003 C 
BRANCH  20  21
ATOM     21  C   UNL     1       0.212   5.043 -10.113  0.00  0.00    +0.036 C 
BRANCH  21  22
ATOM     22  C   UNL     1      -0.208   5.332 -11.528  0.00  0.00    +0.182 C 
ATOM     23  O   UNL     1       0.583   4.512 -12.349  0.00  0.00    -0.220 OA
ENDBRANCH  21  22
ENDBRANCH  20  21
ENDBRANCH  19  20
ENDBRANCH  18  19
ENDBRANCH  17  18
ENDBRANCH  16  17
ENDBRANCH  15  16
ENDBRANCH  14  15
ENDBRANCH  13  14
ENDBRANCH   1  13
TORSDOF 20
ENDMDL
