MODEL 1
REMARK VINA RESULT:      -5.6      0.000      0.000
REMARK  Name = 
REMARK  3 active torsions:
REMARK  status: ('A' for Active; 'I' for Inactive)
REMARK    1  A    between atoms: C_2  and  C_3
REMARK    2  A    between atoms: C_3  and  N_4
REMARK    3  A    between atoms: N_4  and  C_5
REMARK                            x       y       z     vdW  Elec       q    Type
REMARK                         _______ _______ _______ _____ _____    ______ ____
ROOT
ATOM      1  C   UNL     1       0.265   6.013  -7.092  0.00  0.00    +0.078 C 
ATOM      2  C   UNL     1       0.728   5.092  -5.801  0.00  0.00    +0.052 C 
ATOM      3  C   UNL     1      -0.182   5.558  -4.721  0.00  0.00    +0.025 A 
ATOM      4  C   UNL     1      -1.515   5.811  -4.866  0.00  0.00    +0.063 A 
ATOM      5  N   UNL     1      -2.267   5.375  -3.866  0.00  0.00    -0.226 NA
ATOM      6  C   UNL     1      -1.750   5.521  -2.656  0.00  0.00    +0.200 A 
ATOM      7  N   UNL     1      -2.375   5.202  -1.405  0.00  0.00    -0.100 NA
ATOM      8  C   UNL     1      -2.015   6.114  -6.250  0.00  0.00    +0.048 C 
ATOM      9  S   UNL     1      -0.072   5.399  -3.014  0.00  0.00    -0.053 S 
ATOM     10  C   UNL     1      -1.195   5.242  -7.184  0.00  0.00    +0.024 C 
ENDROOT
BRANCH   1  11
ATOM     11  N   UNL     1       0.926   4.995  -8.111  0.00  0.00    -0.219 NA
BRANCH  11  12
ATOM     12  C   UNL     1       0.629   5.679  -9.361  0.00  0.00    +0.089 C 
BRANCH  12  14
ATOM     13  C   UNL     1       0.010   4.662 -10.835  0.00  0.00    +0.002 C 
ATOM     14  C   UNL     1       0.508   4.626 -10.453  0.00  0.00    +0.019 C 
ENDBRANCH  12  14
ENDBRANCH  11  12
ENDBRANCH   1  11
TORSDOF 3
ENDMDL
MODEL 2
REMARK VINA RESULT:      -5.6      5.537      7.043
REMARK  Name = 
REMARK  3 active torsions:
REMARK  status: ('A' for Active; 'I' for Inactive)
REMARK    1  A    between atoms: C_2  and  C_3
REMARK    2  A    between atoms: C_3  and  N_4
REMARK    3  A    between atoms: N_4  and  C_5
REMARK                            x       y       z     vdW  Elec       q    Type
REMARK                         _______ _______ _______ _____ _____    ______ ____
ROOT
ATOM      1  C   UNL     1       5.337   5.584 -10.788  0.00  0.00    +0.078 C 
ATOM      2  C   UNL     1       4.482   6.935 -10.371  0.00  0.00    +0.052 C 
ATOM      3  C   UNL     1       3.748   6.497  -9.154  0.00  0.00    +0.025 A 
ATOM      4  C   UNL     1       4.272   5.749  -8.141  0.00  0.00    +0.063 A 
ATOM      5  N   UNL     1       3.920   6.147  -6.927  0.00  0.00    -0.226 NA
ATOM      6  C   UNL     1       2.664   6.547  -6.799  0.00  0.00    +0.200 A 
ATOM      7  N   UNL     1       2.007   6.958  -5.591  0.00  0.00    -0.100 NA
ATOM      8  C   UNL     1       5.476   4.908  -8.455  0.00  0.00    +0.048 C 
ATOM      9  S   UNL     1       2.366   7.161  -8.377  0.00  0.00    -0.053 S 
ATOM     10  C   UNL     1       6.295   5.715  -9.446  0.00  0.00    +0.024 C 
ENDROOT
BRANCH   1  11
ATOM     11  N   UNL     1       6.349   6.440 -11.658  0.00  0.00    -0.219 NA
BRANCH  11  12
ATOM     12  C   UNL     1       7.154   5.364 -12.216  0.00  0.00    +0.089 C 
BRANCH  12  14
ATOM     13  C   UNL     1       8.995   5.799 -12.105  0.00  0.00    +0.002 C 
ATOM     14  C   UNL     1       8.537   5.924 -12.517  0.00  0.00    +0.019 C 
ENDBRANCH  12  14
ENDBRANCH  11  12
ENDBRANCH   1  11
TORSDOF 3
ENDMDL
MODEL 3
REMARK VINA RESULT:      -5.5      5.685      8.186
REMARK  Name = 
REMARK  3 active torsions:
REMARK  status: ('A' for Active; 'I' for Inactive)
REMARK    1  A    between atoms: C_2  and  C_3
REMARK    2  A    between atoms: C_3  and  N_4
REMARK    3  A    between atoms: N_4  and  C_5
REMARK                            x       y       z     vdW  Elec       q    Type
REMARK                         _______ _______ _______ _____ _____    ______ ____
ROOT
ATOM      1  C   UNL     1       5.414   5.985 -13.039  0.00  0.00    +0.078 C 
ATOM      2  C   UNL     1       5.102   5.507 -11.489  0.00  0.00    +0.052 C 
ATOM      3  C   UNL     1       3.719   6.006 -11.263  0.00  0.00    +0.025 A 
ATOM      4  C   UNL     1       2.695   5.931 -12.161  0.00  0.00    +0.063 A 
ATOM      5  N   UNL     1       1.529   5.588 -11.635  0.00  0.00    -0.226 NA
ATOM      6  C   UNL     1       1.260   6.116 -10.450  0.00  0.00    +0.200 A 
ATOM      7  N   UNL     1       0.049   5.970  -9.694  0.00  0.00    -0.100 NA
ATOM      8  C   UNL     1       3.058   5.793 -13.612  0.00  0.00    +0.048 C 
ATOM      9  S   UNL     1       2.847   6.273  -9.807  0.00  0.00    -0.053 S 
ATOM     10  C   UNL     1       4.302   4.923 -13.645  0.00  0.00    +0.024 C 
ENDROOT
BRANCH   1  11
ATOM     11  N   UNL     1       6.582   4.923 -13.178  0.00  0.00    -0.219 NA
BRANCH  11  12
ATOM     12  C   UNL     1       7.351   5.255 -11.988  0.00  0.00    +0.089 C 
BRANCH  12  14
ATOM     13  C   UNL     1       9.149   5.812 -12.210  0.00  0.00    +0.002 C 
ATOM     14  C   UNL     1       8.595   6.011 -12.432  0.00  0.00    +0.019 C 
ENDBRANCH  12  14
ENDBRANCH  11  12
ENDBRANCH   1  11
TORSDOF 3
ENDMDL
MODEL 4
REMARK VINA RESULT:      -5.4      2.227      5.659
REMARK  Name = 
REMARK  3 active torsions:
REMARK  status: ('A' for Active; 'I' for Inactive)
REMARK    1  A    between atoms: C_2  and  C_3
REMARK    2  A    between atoms: C_3  and  N_4
REMARK    3  A    between atoms: N_4  and  C_5
REMARK                            x       y       z     vdW  Elec       q    Type
REMARK                         _______ _______ _______ _____ _____    ______ ____
ROOT
ATOM      1  C   UNL     1      -0.922   5.466  -4.312  0.00  0.00    +0.078 C 
ATOM      2  C   UNL     1       0.730   5.516  -4.316  0.00  0.00    +0.052 C 
ATOM      3  C   UNL     1       1.077   4.818  -5.582  0.00  0.00    +0.025 A 
ATOM      4  C   UNL     1       0.442   4.986  -6.777  0.00  0.00    +0.063 A 
ATOM      5  N   UNL     1       1.252   5.052  -7.824  0.00  0.00    -0.226 NA
ATOM      6  C   UNL     1       2.287   4.226  -7.798  0.00  0.00    +0.200 A 
ATOM      7  N   UNL     1       3.271   4.042  -8.825  0.00  0.00    -0.100 NA
ATOM      8  C   UNL     1      -0.965   5.512  -6.744  0.00  0.00    +0.048 C 
ATOM      9  S   UNL     1       2.552   4.107  -6.103  0.00  0.00    -0.053 S 
ATOM     10  C   UNL     1      -1.007   6.504  -5.596  0.00  0.00    +0.024 C 
ENDROOT
BRANCH   1  11
ATOM     11  N   UNL     1      -1.000   6.661  -3.273  0.00  0.00    -0.219 NA
BRANCH  11  12
ATOM     12  C   UNL     1      -2.350   7.130  -3.548  0.00  0.00    +0.089 C 
BRANCH  12  14
ATOM     13  C   UNL     1      -3.737   6.579  -2.381  0.00  0.00    +0.002 C 
ATOM     14  C   UNL     1      -3.314   6.278  -2.735  0.00  0.00    +0.019 C 
ENDBRANCH  12  14
ENDBRANCH  11  12
ENDBRANCH   1  11
TORSDOF 3
ENDMDL
MODEL 5
REMARK VINA RESULT:      -5.3      6.064      8.542
REMARK  Name = 
REMARK  3 active torsions:
REMARK  status: ('A' for Active; 'I' for Inactive)
REMARK    1  A    between atoms: C_2  and  C_3
REMARK    2  A    between atoms: C_3  and  N_4
REMARK    3  A    between atoms: N_4  and  C_5
REMARK                            x       y       z     vdW  Elec       q    Type
REMARK                         _______ _______ _______ _____ _____    ______ ____
ROOT
ATOM      1  C   UNL     1       3.472   6.027  -9.512  0.00  0.00    +0.078 C 
ATOM      2  C   UNL     1       3.894   5.794 -11.092  0.00  0.00    +0.052 C 
ATOM      3  C   UNL     1       5.335   6.160 -11.105  0.00  0.00    +0.025 A 
ATOM      4  C   UNL     1       6.248   5.810 -10.154  0.00  0.00    +0.063 A 
ATOM      5  N   UNL     1       7.423   5.431 -10.635  0.00  0.00    -0.226 NA
ATOM      6  C   UNL     1       7.865   6.123 -11.675  0.00  0.00    +0.200 A 
ATOM      7  N   UNL     1       9.127   5.971 -12.340  0.00  0.00    -0.100 NA
ATOM      8  C   UNL     1       5.725   5.464  -8.789  0.00  0.00    +0.048 C 
ATOM      9  S   UNL     1       6.376   6.574 -12.408  0.00  0.00    -0.053 S 
ATOM     10  C   UNL     1       4.405   4.753  -9.022  0.00  0.00    +0.024 C 
ENDROOT
BRANCH   1  11
ATOM     11  N   UNL     1       2.196   5.100  -9.670  0.00  0.00    -0.219 NA
BRANCH  11  12
ATOM     12  C   UNL     1       1.563   5.755 -10.805  0.00  0.00    +0.089 C 
BRANCH  12  14
ATOM     13  C   UNL     1       0.152   4.497 -10.920  0.00  0.00    +0.002 C 
ATOM     14  C   UNL     1       0.198   5.117 -11.011  0.00  0.00    +0.019 C 
ENDBRANCH  12  14
ENDBRANCH  11  12
ENDBRANCH   1  11
TORSDOF 3
ENDMDL
MODEL 6
REMARK VINA RESULT:      -5.3      5.373      7.139
REMARK  Name = 
REMARK  3 active torsions:
REMARK  status: ('A' for Active; 'I' for Inactive)
REMARK    1  A    between atoms: C_2  and  C_3
REMARK    2  A    between atoms: C_3  and  N_4
REMARK    3  A    between atoms: N_4  and  C_5
REMARK                            x       y       z     vdW  Elec       q    Type
REMARK                         _______ _______ _______ _____ _____    ______ ____
ROOT
ATOM      1  C   UNL     1       5.225   6.789 -11.272  0.00  0.00    +0.078 C 
ATOM      2  C   UNL     1       5.767   5.856 -10.020  0.00  0.00    +0.052 C 
ATOM      3  C   UNL     1       4.555   5.707  -9.171  0.00  0.00    +0.025 A 
ATOM      4  C   UNL     1       3.293   5.469  -9.631  0.00  0.00    +0.063 A 
ATOM      5  N   UNL     1       2.610   4.582  -8.922  0.00  0.00    -0.226 NA
ATOM      6  C   UNL     1       2.775   4.651  -7.610  0.00  0.00    +0.200 A 
ATOM      7  N   UNL     1       2.108   3.864  -6.612  0.00  0.00    -0.100 NA
ATOM      8  C   UNL     1       2.992   5.849 -11.053  0.00  0.00    +0.048 C 
ATOM      9  S   UNL     1       4.387   5.243  -7.526  0.00  0.00    -0.053 S 
ATOM     10  C   UNL     1       4.263   5.566 -11.832  0.00  0.00    +0.024 C 
ENDROOT
BRANCH   1  11
ATOM     11  N   UNL     1       6.432   6.332 -12.192  0.00  0.00    -0.219 NA
BRANCH  11  12
ATOM     12  C   UNL     1       7.532   6.533 -11.261  0.00  0.00    +0.089 C 
BRANCH  12  14
ATOM     13  C   UNL     1       8.801   5.857 -12.495  0.00  0.00    +0.002 C 
ATOM     14  C   UNL     1       8.779   5.907 -11.869  0.00  0.00    +0.019 C 
ENDBRANCH  12  14
ENDBRANCH  11  12
ENDBRANCH   1  11
TORSDOF 3
ENDMDL
MODEL 7
REMARK VINA RESULT:      -5.3      3.861      5.055
REMARK  Name = 
REMARK  3 active torsions:
REMARK  status: ('A' for Active; 'I' for Inactive)
REMARK    1  A    between atoms: C_2  and  C_3
REMARK    2  A    between atoms: C_3  and  N_4
REMARK    3  A    between atoms: N_4  and  C_5
REMARK                            x       y       z     vdW  Elec       q    Type
REMARK                         _______ _______ _______ _____ _____    ______ ____
ROOT
ATOM      1  C   UNL     1       3.614   5.593  -9.904  0.00  0.00    +0.078 C 
ATOM      2  C   UNL     1       3.541   6.594  -8.591  0.00  0.00    +0.052 C 
ATOM      3  C   UNL     1       2.364   6.074  -7.846  0.00  0.00    +0.025 A 
ATOM      4  C   UNL     1       2.074   4.756  -7.647  0.00  0.00    +0.063 A 
ATOM      5  N   UNL     1       1.648   4.467  -6.426  0.00  0.00    -0.226 NA
ATOM      6  C   UNL     1       0.834   5.356  -5.879  0.00  0.00    +0.200 A 
ATOM      7  N   UNL     1       0.176   5.259  -4.608  0.00  0.00    -0.100 NA
ATOM      8  C   UNL     1       2.666   3.765  -8.609  0.00  0.00    +0.048 C 
ATOM      9  S   UNL     1       1.399   6.800  -6.624  0.00  0.00    -0.053 S 
ATOM     10  C   UNL     1       4.041   4.304  -8.960  0.00  0.00    +0.024 C 
ENDROOT
BRANCH   1  11
ATOM     11  N   UNL     1       5.132   5.972 -10.163  0.00  0.00    -0.219 NA
BRANCH  11  12
ATOM     12  C   UNL     1       4.952   6.993 -11.185  0.00  0.00    +0.089 C 
BRANCH  12  14
ATOM     13  C   UNL     1       6.747   7.600 -11.169  0.00  0.00    +0.002 C 
ATOM     14  C   UNL     1       6.186   7.883 -11.177  0.00  0.00    +0.019 C 
ENDBRANCH  12  14
ENDBRANCH  11  12
ENDBRANCH   1  11
TORSDOF 3
ENDMDL
MODEL 8
REMARK VINA RESULT:      -5.3      3.050      5.794
REMARK  Name = 
REMARK  3 active torsions:
REMARK  status: ('A' for Active; 'I' for Inactive)
REMARK    1  A    between atoms: C_2  and  C_3
REMARK    2  A    between atoms: C_3  and  N_4
REMARK    3  A    between atoms: N_4  and  C_5
REMARK                            x       y       z     vdW  Elec       q    Type
REMARK                         _______ _______ _______ _____ _____    ______ ____
ROOT
ATOM      1  C   UNL     1       1.347   5.819  -5.207  0.00  0.00    +0.078 C 
ATOM      2  C   UNL     1       1.247   6.687  -6.610  0.00  0.00    +0.052 C 
ATOM      3  C   UNL     1       2.385   6.158  -7.406  0.00  0.00    +0.025 A 
ATOM      4  C   UNL     1       2.738   4.844  -7.505  0.00  0.00    +0.063 A 
ATOM      5  N   UNL     1       3.074   4.457  -8.727  0.00  0.00    -0.226 NA
ATOM      6  C   UNL     1       3.783   5.330  -9.427  0.00  0.00    +0.200 A 
ATOM      7  N   UNL     1       4.334   5.141 -10.738  0.00  0.00    -0.100 NA
ATOM      8  C   UNL     1       2.293   3.924  -6.403  0.00  0.00    +0.048 C 
ATOM      9  S   UNL     1       3.196   6.808  -8.774  0.00  0.00    -0.053 S 
ATOM     10  C   UNL     1       0.922   4.422  -5.981  0.00  0.00    +0.024 C 
ENDROOT
BRANCH   1  11
ATOM     11  N   UNL     1      -0.163   6.142  -4.848  0.00  0.00    -0.219 NA
BRANCH  11  12
ATOM     12  C   UNL     1      -0.813   5.585  -6.025  0.00  0.00    +0.089 C 
BRANCH  12  14
ATOM     13  C   UNL     1      -2.673   5.684  -6.368  0.00  0.00    +0.002 C 
ATOM     14  C   UNL     1      -2.281   5.984  -5.980  0.00  0.00    +0.019 C 
ENDBRANCH  12  14
ENDBRANCH  11  12
ENDBRANCH   1  11
TORSDOF 3
ENDMDL
MODEL 9
REMARK VINA RESULT:      -5.2      2.459      5.876
REMARK  Name = 
REMARK  3 active torsions:
REMARK  status: ('A' for Active; 'I' for Inactive)
REMARK    1  A    between atoms: C_2  and  C_3
REMARK    2  A    between atoms: C_3  and  N_4
REMARK    3  A    between atoms: N_4  and  C_5
REMARK                            x       y       z     vdW  Elec       q    Type
REMARK                         _______ _______ _______ _____ _____    ______ ____
ROOT
ATOM      1  C   UNL     1      -0.928   6.429  -5.329  0.00  0.00    +0.078 C 
ATOM      2  C   UNL     1      -0.983   5.521  -6.709  0.00  0.00    +0.052 C 
ATOM      3  C   UNL     1       0.426   5.555  -7.182  0.00  0.00    +0.025 A 
ATOM      4  C   UNL     1       1.529   5.425  -6.390  0.00  0.00    +0.063 A 
ATOM      5  N   UNL     1       2.483   4.661  -6.900  0.00  0.00    -0.226 NA
ATOM      6  C   UNL     1       2.684   4.791  -8.203  0.00  0.00    +0.200 A 
ATOM      7  N   UNL     1       3.693   4.142  -8.991  0.00  0.00    -0.100 NA
ATOM      8  C   UNL     1       1.374   5.749  -4.931  0.00  0.00    +0.048 C 
ATOM      9  S   UNL     1       1.100   5.212  -8.725  0.00  0.00    -0.053 S 
ATOM     10  C   UNL     1      -0.021   5.285  -4.553  0.00  0.00    +0.024 C 
ENDROOT
BRANCH   1  11
ATOM     11  N   UNL     1      -2.280   5.791  -4.803  0.00  0.00    -0.219 NA
BRANCH  11  12
ATOM     12  C   UNL     1      -1.940   5.637  -3.396  0.00  0.00    +0.089 C 
BRANCH  12  14
ATOM     13  C   UNL     1      -3.611   6.268  -2.762  0.00  0.00    +0.002 C 
ATOM     14  C   UNL     1      -3.014   6.338  -2.577  0.00  0.00    +0.019 C 
ENDBRANCH  12  14
ENDBRANCH  11  12
ENDBRANCH   1  11
TORSDOF 3
ENDMDL
