MODEL 1
REMARK VINA RESULT:      -8.0      0.000      0.000
REMARK  Name = 
REMARK  9 active torsions:
REMARK  status: ('A' for Active; 'I' for Inactive)
REMARK    1  A    between atoms: C_2  and  C_3
REMARK    2  A    between atoms: C_5  and  O_6
REMARK    3  A    between atoms: O_6  and  C_7
REMARK    4  A    between atoms: C_8  and  C_9
REMARK    5  A    between atoms: C_12  and  O_13
REMARK    6  A    between atoms: O_13  and  C_14
REMARK    7  A    between atoms: C_15  and  O_16
REMARK    8  A    between atoms: O_16  and  C_17
REMARK    9  A    between atoms: C_19  and  C_20
REMARK                            x       y       z     vdW  Elec       q    Type
REMARK                         _______ _______ _______ _____ _____    ______ ____
ROOT
ATOM      1  O   UNL     1       2.919   6.065  -3.329  0.00  0.00    -0.326 OA
ENDROOT
BRANCH   1   2
ATOM      2  C   UNL     1       2.462   7.265  -2.602  0.00  0.00    +0.178 C 
ATOM      3  C   UNL     1       3.842   8.149  -3.024  0.00  0.00    +0.199 C 
ATOM      4  O   UNL     1       3.919   8.980  -1.785  0.00  0.00    -0.219 OA
ATOM      5  C   UNL     1       5.253   7.281  -2.599  0.00  0.00    +0.126 C 
ATOM      6  N   UNL     1       4.974   5.941  -3.333  0.00  0.00    -0.130 NA
ATOM      7  C   UNL     1       4.847   6.942  -1.132  0.00  0.00    +0.043 C 
ATOM      8  C   UNL     1       3.886   5.773  -0.730  0.00  0.00    +0.123 C 
ATOM      9  N   UNL     1       3.793   4.777  -1.935  0.00  0.00    -0.130 NA
ATOM     10  C   UNL     1       2.440   6.668  -1.014  0.00  0.00    +0.165 C 
BRANCH  10  11
ATOM     11  O   UNL     1       2.875   7.863  -0.193  0.00  0.00    -0.328 OA
BRANCH  11  12
ATOM     12  C   UNL     1       1.702   7.782   0.796  0.00  0.00    +0.256 C 
ATOM     13  C   UNL     1       1.391   9.457   0.974  0.00  0.00    +0.181 C 
ATOM     14  N   UNL     1       2.426  10.105   0.034  0.00  0.00    -0.125 NA
ATOM     15  C   UNL     1       2.149   9.993   2.390  0.00  0.00    +0.207 C 
ATOM     16  O   UNL     1       1.669   8.903   3.328  0.00  0.00    -0.219 OA
ATOM     17  C   UNL     1       3.790   9.555   2.400  0.00  0.00    +0.213 C 
ATOM     18  O   UNL     1       4.224  10.039   1.053  0.00  0.00    -0.218 OA
ATOM     19  C   UNL     1       3.822   7.910   1.952  0.00  0.00    +0.183 C 
ATOM     20  O   UNL     1       2.413   7.569   2.093  0.00  0.00    -0.326 OA
BRANCH  19  21
ATOM     21  C   UNL     1       4.026   7.574   3.563  0.00  0.00    +0.214 C 
ATOM     22  O   UNL     1       4.678   6.445   3.749  0.00  0.00    -0.218 OA
ENDBRANCH  19  21
ENDBRANCH  11  12
ENDBRANCH  10  11
ENDBRANCH   1   2
BRANCH   1  26
ATOM     23  C   UNL     1       1.452   4.713  -6.459  0.00  0.00    +0.183 C 
ATOM     24  C   UNL     1       2.344   4.408  -5.037  0.00  0.00    +0.237 C 
ATOM     25  O   UNL     1       3.718   4.307  -5.611  0.00  0.00    -0.215 OA
ATOM     26  C   UNL     1       2.482   6.099  -4.761  0.00  0.00    +0.269 C 
ATOM     27  O   UNL     1       0.975   5.971  -4.480  0.00  0.00    -0.326 OA
ATOM     28  C   UNL     1       0.983   6.278  -5.955  0.00  0.00    +0.180 C 
BRANCH  28  29
ATOM     29  C   UNL     1      -0.632   6.081  -6.155  0.00  0.00    +0.214 C 
ATOM     30  O   UNL     1      -1.037   6.991  -5.167  0.00  0.00    -0.218 OA
ENDBRANCH  28  29
BRANCH  23  31
ATOM     31  O   UNL     1       2.576   5.226  -7.318  0.00  0.00    -0.326 OA
BRANCH  31  39
ATOM     32  C   UNL     1       1.671   5.211 -10.503  0.00  0.00    +0.170 C 
ATOM     33  C   UNL     1       2.112   6.842 -10.282  0.00  0.00    +0.212 C 
ATOM     34  O   UNL     1       1.062   7.191  -9.263  0.00  0.00    -0.218 OA
ATOM     35  C   UNL     1       3.370   6.506  -9.180  0.00  0.00    +0.207 C 
ATOM     36  O   UNL     1       4.399   6.801 -10.235  0.00  0.00    -0.219 OA
ATOM     37  C   UNL     1       3.572   4.866  -9.521  0.00  0.00    +0.181 C 
ATOM     38  N   UNL     1       4.728   4.767  -8.492  0.00  0.00    -0.125 NA
ATOM     39  C   UNL     1       2.391   4.220  -8.453  0.00  0.00    +0.256 C 
ATOM     40  O   UNL     1       1.272   5.026  -9.086  0.00  0.00    -0.328 OA
BRANCH  32  42
ATOM     41  N   UNL     1      -0.122   4.468 -11.210  0.00  0.00    -0.129 NA
ATOM     42  C   UNL     1       0.159   5.636 -10.988  0.00  0.00    +0.142 C 
ENDBRANCH  32  42
ENDBRANCH  31  39
ENDBRANCH  23  31
ENDBRANCH   1  26
TORSDOF 9
ENDMDL
MODEL 2
REMARK VINA RESULT:      -7.2      2.368      9.633
REMARK  Name = 
REMARK  9 active torsions:
REMARK  status: ('A' for Active; 'I' for Inactive)
REMARK    1  A    between atoms: C_2  and  C_3
REMARK    2  A    between atoms: C_5  and  O_6
REMARK    3  A    between atoms: O_6  and  C_7
REMARK    4  A    between atoms: C_8  and  C_9
REMARK    5  A    between atoms: C_12  and  O_13
REMARK    6  A    between atoms: O_13  and  C_14
REMARK    7  A    between atoms: C_15  and  O_16
REMARK    8  A    between atoms: O_16  and  C_17
REMARK    9  A    between atoms: C_19  and  C_20
REMARK                            x       y       z     vdW  Elec       q    Type
REMARK                         _______ _______ _______ _____ _____    ______ ____
ROOT
ATOM      1  O   UNL     1       3.563   7.441  -2.225  0.00  0.00    -0.326 OA
ENDROOT
BRANCH   1   2
ATOM      2  C   UNL     1       2.550   7.073  -3.233  0.00  0.00    +0.178 C 
ATOM      3  C   UNL     1       2.459   5.476  -2.682  0.00  0.00    +0.199 C 
ATOM      4  O   UNL     1       2.164   4.839  -4.000  0.00  0.00    -0.219 OA
ATOM      5  C   UNL     1       4.021   4.779  -2.631  0.00  0.00    +0.126 C 
ATOM      6  N   UNL     1       4.754   5.829  -1.752  0.00  0.00    -0.130 NA
ATOM      7  C   UNL     1       4.469   5.184  -4.069  0.00  0.00    +0.043 C 
ATOM      8  C   UNL     1       5.006   6.602  -4.459  0.00  0.00    +0.123 C 
ATOM      9  N   UNL     1       5.436   7.343  -3.148  0.00  0.00    -0.130 NA
ATOM     10  C   UNL     1       3.443   7.300  -4.658  0.00  0.00    +0.165 C 
BRANCH  10  11
ATOM     11  O   UNL     1       2.932   6.197  -5.561  0.00  0.00    -0.328 OA
BRANCH  11  12
ATOM     12  C   UNL     1       2.650   7.121  -6.756  0.00  0.00    +0.256 C 
ATOM     13  C   UNL     1       1.170   6.433  -7.276  0.00  0.00    +0.181 C 
ATOM     14  N   UNL     1       0.931   5.306  -6.254  0.00  0.00    -0.125 NA
ATOM     15  C   UNL     1       1.493   5.378  -8.560  0.00  0.00    +0.207 C 
ATOM     16  O   UNL     1       2.379   6.292  -9.384  0.00  0.00    -0.219 OA
ATOM     17  C   UNL     1       2.701   4.261  -8.134  0.00  0.00    +0.213 C 
ATOM     18  O   UNL     1       2.180   3.760  -6.825  0.00  0.00    -0.218 OA
ATOM     19  C   UNL     1       3.942   5.188  -7.421  0.00  0.00    +0.183 C 
ATOM     20  O   UNL     1       3.529   6.530  -7.810  0.00  0.00    -0.326 OA
BRANCH  19  21
ATOM     21  C   UNL     1       4.742   5.056  -8.868  0.00  0.00    +0.214 C 
ATOM     22  O   UNL     1       5.965   5.540  -8.798  0.00  0.00    -0.218 OA
ENDBRANCH  19  21
ENDBRANCH  11  12
ENDBRANCH  10  11
ENDBRANCH   1   2
BRANCH   1  26
ATOM     23  C   UNL     1       3.438   9.093   1.096  0.00  0.00    +0.183 C 
ATOM     24  C   UNL     1       3.967   7.763   0.167  0.00  0.00    +0.237 C 
ATOM     25  O   UNL     1       2.994   6.728   0.621  0.00  0.00    -0.215 OA
ATOM     26  C   UNL     1       2.965   8.272  -1.133  0.00  0.00    +0.269 C 
ATOM     27  O   UNL     1       3.990   9.416  -1.209  0.00  0.00    -0.326 OA
ATOM     28  C   UNL     1       2.960   9.995  -0.275  0.00  0.00    +0.180 C 
BRANCH  28  29
ATOM     29  C   UNL     1       3.816  11.351   0.065  0.00  0.00    +0.214 C 
ATOM     30  O   UNL     1       3.369  12.111  -1.027  0.00  0.00    -0.218 OA
ENDBRANCH  28  29
BRANCH  23  31
ATOM     31  O   UNL     1       2.040   8.616   1.384  0.00  0.00    -0.326 OA
BRANCH  31  39
ATOM     32  C   UNL     1      -0.492   9.780   3.174  0.00  0.00    +0.170 C 
ATOM     33  C   UNL     1      -1.213   8.451   2.387  0.00  0.00    +0.212 C 
ATOM     34  O   UNL     1      -1.068   8.958   0.978  0.00  0.00    -0.218 OA
ATOM     35  C   UNL     1       0.193   7.487   2.409  0.00  0.00    +0.207 C 
ATOM     36  O   UNL     1      -0.389   6.629   3.498  0.00  0.00    -0.219 OA
ATOM     37  C   UNL     1       1.051   8.318   3.600  0.00  0.00    +0.181 C 
ATOM     38  N   UNL     1       2.224   7.308   3.500  0.00  0.00    -0.125 NA
ATOM     39  C   UNL     1       1.812   9.499   2.610  0.00  0.00    +0.256 C 
ATOM     40  O   UNL     1       0.486  10.018   2.084  0.00  0.00    -0.328 OA
BRANCH  32  42
ATOM     41  N   UNL     1      -1.631  11.452   3.591  0.00  0.00    -0.129 NA
ATOM     42  C   UNL     1      -1.606  10.815   2.549  0.00  0.00    +0.142 C 
ENDBRANCH  32  42
ENDBRANCH  31  39
ENDBRANCH  23  31
ENDBRANCH   1  26
TORSDOF 9
ENDMDL
MODEL 3
REMARK VINA RESULT:      -6.7      2.582     10.163
REMARK  Name = 
REMARK  9 active torsions:
REMARK  status: ('A' for Active; 'I' for Inactive)
REMARK    1  A    between atoms: C_2  and  C_3
REMARK    2  A    between atoms: C_5  and  O_6
REMARK    3  A    between atoms: O_6  and  C_7
REMARK    4  A    between atoms: C_8  and  C_9
REMARK    5  A    between atoms: C_12  and  O_13
REMARK    6  A    between atoms: O_13  and  C_14
REMARK    7  A    between atoms: C_15  and  O_16
REMARK    8  A    between atoms: O_16  and  C_17
REMARK    9  A    between atoms: C_19  and  C_20
REMARK                            x       y       z     vdW  Elec       q    Type
REMARK                         _______ _______ _______ _____ _____    ______ ____
ROOT
ATOM      1  O   UNL     1       2.936   5.750  -6.995  0.00  0.00    -0.326 OA
ENDROOT
BRANCH   1   2
ATOM      2  C   UNL     1       3.977   6.459  -7.764  0.00  0.00    +0.178 C 
ATOM      3  C   UNL     1       2.854   7.500  -8.485  0.00  0.00    +0.199 C 
ATOM      4  O   UNL     1       3.566   7.669  -9.788  0.00  0.00    -0.219 OA
ATOM      5  C   UNL     1       1.602   6.597  -9.223  0.00  0.00    +0.126 C 
ATOM      6  N   UNL     1       1.147   5.734  -8.014  0.00  0.00    -0.130 NA
ATOM      7  C   UNL     1       2.508   5.603 -10.012  0.00  0.00    +0.043 C 
ATOM      8  C   UNL     1       3.185   4.338  -9.386  0.00  0.00    +0.123 C 
ATOM      9  N   UNL     1       2.456   4.006  -8.040  0.00  0.00    -0.130 NA
ATOM     10  C   UNL     1       4.538   5.198  -8.750  0.00  0.00    +0.165 C 
BRANCH  10  11
ATOM     11  O   UNL     1       4.858   5.899 -10.053  0.00  0.00    -0.328 OA
BRANCH  11  12
ATOM     12  C   UNL     1       5.766   4.781 -10.588  0.00  0.00    +0.256 C 
ATOM     13  C   UNL     1       7.263   5.613 -10.541  0.00  0.00    +0.181 C 
ATOM     14  N   UNL     1       6.878   6.990  -9.969  0.00  0.00    -0.125 NA
ATOM     15  C   UNL     1       7.593   6.205 -12.093  0.00  0.00    +0.207 C 
ATOM     16  O   UNL     1       7.311   4.940 -12.881  0.00  0.00    -0.219 OA
ATOM     17  C   UNL     1       6.281   7.106 -12.688  0.00  0.00    +0.213 C 
ATOM     18  O   UNL     1       6.023   8.029 -11.540  0.00  0.00    -0.218 OA
ATOM     19  C   UNL     1       4.902   6.150 -12.384  0.00  0.00    +0.183 C 
ATOM     20  O   UNL     1       5.528   4.875 -12.059  0.00  0.00    -0.326 OA
BRANCH  19  21
ATOM     21  C   UNL     1       4.959   5.728 -13.987  0.00  0.00    +0.214 C 
ATOM     22  O   UNL     1       3.759   5.708 -14.531  0.00  0.00    -0.218 OA
ENDBRANCH  19  21
ENDBRANCH  11  12
ENDBRANCH  10  11
ENDBRANCH   1   2
BRANCH   1  26
ATOM     23  C   UNL     1       4.008   5.329  -3.466  0.00  0.00    +0.183 C 
ATOM     24  C   UNL     1       3.591   4.585  -4.944  0.00  0.00    +0.237 C 
ATOM     25  O   UNL     1       2.221   4.096  -4.609  0.00  0.00    -0.215 OA
ATOM     26  C   UNL     1       3.011   6.090  -5.538  0.00  0.00    +0.269 C 
ATOM     27  O   UNL     1       4.508   6.441  -5.524  0.00  0.00    -0.326 OA
ATOM     28  C   UNL     1       4.078   6.893  -4.153  0.00  0.00    +0.180 C 
BRANCH  28  29
ATOM     29  C   UNL     1       5.590   7.271  -3.642  0.00  0.00    +0.214 C 
ATOM     30  O   UNL     1       5.774   8.387  -4.473  0.00  0.00    -0.218 OA
ENDBRANCH  28  29
BRANCH  23  31
ATOM     31  O   UNL     1       2.619   5.530  -2.922  0.00  0.00    -0.326 OA
BRANCH  31  39
ATOM     32  C   UNL     1       2.897   6.494   0.234  0.00  0.00    +0.170 C 
ATOM     33  C   UNL     1       2.041   7.801  -0.448  0.00  0.00    +0.212 C 
ATOM     34  O   UNL     1       3.107   8.252  -1.408  0.00  0.00    -0.218 OA
ATOM     35  C   UNL     1       1.160   6.841  -1.548  0.00  0.00    +0.207 C 
ATOM     36  O   UNL     1      -0.083   6.997  -0.718  0.00  0.00    -0.219 OA
ATOM     37  C   UNL     1       1.393   5.339  -0.816  0.00  0.00    +0.181 C 
ATOM     38  N   UNL     1       0.523   4.646  -1.898  0.00  0.00    -0.125 NA
ATOM     39  C   UNL     1       2.884   4.908  -1.553  0.00  0.00    +0.256 C 
ATOM     40  O   UNL     1       3.582   6.154  -1.038  0.00  0.00    -0.328 OA
BRANCH  32  42
ATOM     41  N   UNL     1       4.781   6.529   1.079  0.00  0.00    -0.129 NA
ATOM     42  C   UNL     1       4.102   7.488   0.744  0.00  0.00    +0.142 C 
ENDBRANCH  32  42
ENDBRANCH  31  39
ENDBRANCH  23  31
ENDBRANCH   1  26
TORSDOF 9
ENDMDL
MODEL 4
REMARK VINA RESULT:      -6.6      2.679      5.334
REMARK  Name = 
REMARK  9 active torsions:
REMARK  status: ('A' for Active; 'I' for Inactive)
REMARK    1  A    between atoms: C_2  and  C_3
REMARK    2  A    between atoms: C_5  and  O_6
REMARK    3  A    between atoms: O_6  and  C_7
REMARK    4  A    between atoms: C_8  and  C_9
REMARK    5  A    between atoms: C_12  and  O_13
REMARK    6  A    between atoms: O_13  and  C_14
REMARK    7  A    between atoms: C_15  and  O_16
REMARK    8  A    between atoms: O_16  and  C_17
REMARK    9  A    between atoms: C_19  and  C_20
REMARK                            x       y       z     vdW  Elec       q    Type
REMARK                         _______ _______ _______ _____ _____    ______ ____
ROOT
ATOM      1  O   UNL     1       1.958   5.991  -7.328  0.00  0.00    -0.326 OA
ENDROOT
BRANCH   1   2
ATOM      2  C   UNL     1       3.057   5.830  -6.356  0.00  0.00    +0.178 C 
ATOM      3  C   UNL     1       2.569   4.264  -5.937  0.00  0.00    +0.199 C 
ATOM      4  O   UNL     1       3.007   4.307  -4.509  0.00  0.00    -0.219 OA
ATOM      5  C   UNL     1       0.918   4.260  -5.489  0.00  0.00    +0.126 C 
ATOM      6  N   UNL     1       0.297   4.920  -6.750  0.00  0.00    -0.130 NA
ATOM      7  C   UNL     1       0.977   5.456  -4.489  0.00  0.00    +0.043 C 
ATOM      8  C   UNL     1       0.961   6.962  -4.913  0.00  0.00    +0.123 C 
ATOM      9  N   UNL     1       0.428   7.054  -6.383  0.00  0.00    -0.130 NA
ATOM     10  C   UNL     1       2.652   7.041  -5.238  0.00  0.00    +0.165 C 
BRANCH  10  11
ATOM     11  O   UNL     1       3.058   6.432  -3.913  0.00  0.00    -0.328 OA
BRANCH  11  12
ATOM     12  C   UNL     1       3.520   7.759  -3.291  0.00  0.00    +0.256 C 
ATOM     13  C   UNL     1       5.080   7.277  -2.771  0.00  0.00    +0.181 C 
ATOM     14  N   UNL     1       5.164   5.811  -3.236  0.00  0.00    -0.125 NA
ATOM     15  C   UNL     1       4.997   6.888  -1.126  0.00  0.00    +0.207 C 
ATOM     16  O   UNL     1       4.246   8.113  -0.642  0.00  0.00    -0.219 OA
ATOM     17  C   UNL     1       3.756   5.765  -0.832  0.00  0.00    +0.213 C 
ATOM     18  O   UNL     1       4.058   4.727  -1.864  0.00  0.00    -0.218 OA
ATOM     19  C   UNL     1       2.395   6.368  -1.664  0.00  0.00    +0.183 C 
ATOM     20  O   UNL     1       2.843   7.723  -1.960  0.00  0.00    -0.326 OA
BRANCH  19  21
ATOM     21  C   UNL     1       1.853   6.909  -0.193  0.00  0.00    +0.214 C 
ATOM     22  O   UNL     1       0.539   6.982  -0.152  0.00  0.00    -0.218 OA
ENDBRANCH  19  21
ENDBRANCH  11  12
ENDBRANCH  10  11
ENDBRANCH   1   2
BRANCH   1  26
ATOM     23  C   UNL     1       3.285   6.640 -10.734  0.00  0.00    +0.183 C 
ATOM     24  C   UNL     1       2.357   7.203  -9.417  0.00  0.00    +0.237 C 
ATOM     25  O   UNL     1       0.984   7.005  -9.966  0.00  0.00    -0.215 OA
ATOM     26  C   UNL     1       2.404   5.636  -8.713  0.00  0.00    +0.269 C 
ATOM     27  O   UNL     1       3.886   5.993  -8.510  0.00  0.00    -0.326 OA
ATOM     28  C   UNL     1       3.919   5.317  -9.856  0.00  0.00    +0.180 C 
BRANCH  28  29
ATOM     29  C   UNL     1       5.504   5.627 -10.138  0.00  0.00    +0.214 C 
ATOM     30  O   UNL     1       5.971   5.297  -8.856  0.00  0.00    -0.218 OA
ENDBRANCH  28  29
BRANCH  23  31
ATOM     31  O   UNL     1       2.228   5.805 -11.406  0.00  0.00    -0.326 OA
BRANCH  31  39
ATOM     32  C   UNL     1       3.080   6.107 -14.592  0.00  0.00    +0.170 C 
ATOM     33  C   UNL     1       3.374   4.451 -14.315  0.00  0.00    +0.212 C 
ATOM     34  O   UNL     1       4.460   4.614 -13.287  0.00  0.00    -0.218 OA
ATOM     35  C   UNL     1       2.079   4.253 -13.223  0.00  0.00    +0.207 C 
ATOM     36  O   UNL     1       1.287   3.515 -14.266  0.00  0.00    -0.219 OA
ATOM     37  C   UNL     1       1.201   5.638 -13.618  0.00  0.00    +0.181 C 
ATOM     38  N   UNL     1       0.100   5.267 -12.591  0.00  0.00    -0.125 NA
ATOM     39  C   UNL     1       1.981   6.759 -12.574  0.00  0.00    +0.256 C 
ATOM     40  O   UNL     1       3.345   6.488 -13.182  0.00  0.00    -0.328 OA
BRANCH  32  42
ATOM     41  N   UNL     1       4.266   7.041 -16.002  0.00  0.00    -0.129 NA
ATOM     42  C   UNL     1       4.636   6.352 -15.064  0.00  0.00    +0.142 C 
ENDBRANCH  32  42
ENDBRANCH  31  39
ENDBRANCH  23  31
ENDBRANCH   1  26
TORSDOF 9
ENDMDL
MODEL 5
REMARK VINA RESULT:      -6.6      3.668      5.570
REMARK  Name = 
REMARK  9 active torsions:
REMARK  status: ('A' for Active; 'I' for Inactive)
REMARK    1  A    between atoms: C_2  and  C_3
REMARK    2  A    between atoms: C_5  and  O_6
REMARK    3  A    between atoms: O_6  and  C_7
REMARK    4  A    between atoms: C_8  and  C_9
REMARK    5  A    between atoms: C_12  and  O_13
REMARK    6  A    between atoms: O_13  and  C_14
REMARK    7  A    between atoms: C_15  and  O_16
REMARK    8  A    between atoms: O_16  and  C_17
REMARK    9  A    between atoms: C_19  and  C_20
REMARK                            x       y       z     vdW  Elec       q    Type
REMARK                         _______ _______ _______ _____ _____    ______ ____
ROOT
ATOM      1  O   UNL     1       2.573   5.314  -6.959  0.00  0.00    -0.326 OA
ENDROOT
BRANCH   1   2
ATOM      2  C   UNL     1       1.220   5.886  -6.817  0.00  0.00    +0.178 C 
ATOM      3  C   UNL     1       1.817   7.407  -6.379  0.00  0.00    +0.199 C 
ATOM      4  O   UNL     1       0.699   7.792  -5.466  0.00  0.00    -0.219 OA
ATOM      5  C   UNL     1       2.909   7.258  -5.071  0.00  0.00    +0.126 C 
ATOM      6  N   UNL     1       3.895   6.214  -5.663  0.00  0.00    -0.130 NA
ATOM      7  C   UNL     1       2.008   6.375  -4.155  0.00  0.00    +0.043 C 
ATOM      8  C   UNL     1       1.834   4.828  -4.315  0.00  0.00    +0.123 C 
ATOM      9  N   UNL     1       3.014   4.289  -5.193  0.00  0.00    -0.130 NA
ATOM     10  C   UNL     1       0.625   4.943  -5.539  0.00  0.00    +0.165 C 
BRANCH  10  11
ATOM     11  O   UNL     1      -0.236   5.920  -4.766  0.00  0.00    -0.328 OA
BRANCH  11  12
ATOM     12  C   UNL     1      -1.197   4.851  -4.222  0.00  0.00    +0.256 C 
ATOM     13  C   UNL     1      -2.681   5.571  -4.685  0.00  0.00    +0.181 C 
ATOM     14  N   UNL     1      -2.234   6.857  -5.406  0.00  0.00    -0.125 NA
ATOM     15  C   UNL     1      -3.318   6.388  -3.346  0.00  0.00    +0.207 C 
ATOM     16  O   UNL     1      -3.156   5.289  -2.314  0.00  0.00    -0.219 OA
ATOM     17  C   UNL     1      -2.171   7.453  -2.685  0.00  0.00    +0.213 C 
ATOM     18  O   UNL     1      -1.726   8.189  -3.908  0.00  0.00    -0.218 OA
ATOM     19  C   UNL     1      -0.732   6.546  -2.561  0.00  0.00    +0.183 C 
ATOM     20  O   UNL     1      -1.247   5.199  -2.770  0.00  0.00    -0.326 OA
BRANCH  19  21
ATOM     21  C   UNL     1      -1.083   6.390  -0.947  0.00  0.00    +0.214 C 
ATOM     22  O   UNL     1       0.005   6.222  -0.224  0.00  0.00    -0.218 OA
ENDBRANCH  19  21
ENDBRANCH  11  12
ENDBRANCH  10  11
ENDBRANCH   1   2
BRANCH   1  26
ATOM     23  C   UNL     1       3.923   4.888 -10.391  0.00  0.00    +0.183 C 
ATOM     24  C   UNL     1       3.670   4.207  -8.847  0.00  0.00    +0.237 C 
ATOM     25  O   UNL     1       5.052   4.306  -8.292  0.00  0.00    -0.215 OA
ATOM     26  C   UNL     1       3.214   5.750  -8.240  0.00  0.00    +0.269 C 
ATOM     27  O   UNL     1       1.985   5.512  -9.134  0.00  0.00    -0.326 OA
ATOM     28  C   UNL     1       2.911   6.231 -10.079  0.00  0.00    +0.180 C 
BRANCH  28  29
ATOM     29  C   UNL     1       1.942   6.064 -11.391  0.00  0.00    +0.214 C 
ATOM     30  O   UNL     1       0.766   6.540 -10.792  0.00  0.00    -0.218 OA
ENDBRANCH  28  29
BRANCH  23  31
ATOM     31  O   UNL     1       5.184   5.652 -10.090  0.00  0.00    -0.326 OA
BRANCH  31  39
ATOM     32  C   UNL     1       6.936   6.627 -12.725  0.00  0.00    +0.170 C 
ATOM     33  C   UNL     1       6.859   8.066 -11.815  0.00  0.00    +0.212 C 
ATOM     34  O   UNL     1       5.367   8.249 -11.867  0.00  0.00    -0.218 OA
ATOM     35  C   UNL     1       6.923   7.285 -10.301  0.00  0.00    +0.207 C 
ATOM     36  O   UNL     1       8.347   7.728 -10.111  0.00  0.00    -0.219 OA
ATOM     37  C   UNL     1       7.516   5.791 -10.812  0.00  0.00    +0.181 C 
ATOM     38  N   UNL     1       7.536   5.268  -9.352  0.00  0.00    -0.125 NA
ATOM     39  C   UNL     1       6.026   5.029 -11.202  0.00  0.00    +0.256 C 
ATOM     40  O   UNL     1       5.649   6.111 -12.197  0.00  0.00    -0.328 OA
BRANCH  32  42
ATOM     41  N   UNL     1       6.223   6.298 -14.636  0.00  0.00    -0.129 NA
ATOM     42  C   UNL     1       6.236   7.355 -14.023  0.00  0.00    +0.142 C 
ENDBRANCH  32  42
ENDBRANCH  31  39
ENDBRANCH  23  31
ENDBRANCH   1  26
TORSDOF 9
ENDMDL
MODEL 6
REMARK VINA RESULT:      -6.5      2.103      9.614
REMARK  Name = 
REMARK  9 active torsions:
REMARK  status: ('A' for Active; 'I' for Inactive)
REMARK    1  A    between atoms: C_2  and  C_3
REMARK    2  A    between atoms: C_5  and  O_6
REMARK    3  A    between atoms: O_6  and  C_7
REMARK    4  A    between atoms: C_8  and  C_9
REMARK    5  A    between atoms: C_12  and  O_13
REMARK    6  A    between atoms: O_13  and  C_14
REMARK    7  A    between atoms: C_15  and  O_16
REMARK    8  A    between atoms: O_16  and  C_17
REMARK    9  A    between atoms: C_19  and  C_20
REMARK                            x       y       z     vdW  Elec       q    Type
REMARK                         _______ _______ _______ _____ _____    ______ ____
ROOT
ATOM      1  O   UNL     1       3.443   6.810  -3.254  0.00  0.00    -0.326 OA
ENDROOT
BRANCH   1   2
ATOM      2  C   UNL     1       2.417   6.374  -4.221  0.00  0.00    +0.178 C 
ATOM      3  C   UNL     1       2.834   4.742  -4.055  0.00  0.00    +0.199 C 
ATOM      4  O   UNL     1       2.513   4.324  -5.453  0.00  0.00    -0.219 OA
ATOM      5  C   UNL     1       4.511   4.532  -4.317  0.00  0.00    +0.126 C 
ATOM      6  N   UNL     1       5.072   5.551  -3.288  0.00  0.00    -0.130 NA
ATOM      7  C   UNL     1       4.608   5.328  -5.654  0.00  0.00    +0.043 C 
ATOM      8  C   UNL     1       4.689   6.889  -5.748  0.00  0.00    +0.123 C 
ATOM      9  N   UNL     1       5.109   7.445  -4.345  0.00  0.00    -0.130 NA
ATOM     10  C   UNL     1       2.986   7.130  -5.629  0.00  0.00    +0.165 C 
BRANCH  10  11
ATOM     11  O   UNL     1       2.647   6.131  -6.715  0.00  0.00    -0.328 OA
BRANCH  11  12
ATOM     12  C   UNL     1       1.779   7.104  -7.528  0.00  0.00    +0.256 C 
ATOM     13  C   UNL     1       0.546   6.017  -8.010  0.00  0.00    +0.181 C 
ATOM     14  N   UNL     1       0.970   4.693  -7.346  0.00  0.00    -0.125 NA
ATOM     15  C   UNL     1       0.886   5.488  -9.582  0.00  0.00    +0.207 C 
ATOM     16  O   UNL     1       1.172   6.835 -10.216  0.00  0.00    -0.219 OA
ATOM     17  C   UNL     1       2.470   4.880  -9.686  0.00  0.00    +0.213 C 
ATOM     18  O   UNL     1       2.492   3.939  -8.524  0.00  0.00    -0.218 OA
ATOM     19  C   UNL     1       3.451   6.043  -8.916  0.00  0.00    +0.183 C 
ATOM     20  O   UNL     1       2.519   7.159  -8.824  0.00  0.00    -0.326 OA
BRANCH  19  21
ATOM     21  C   UNL     1       3.865   6.561 -10.436  0.00  0.00    +0.214 C 
ATOM     22  O   UNL     1       5.164   6.739 -10.556  0.00  0.00    -0.218 OA
ENDBRANCH  19  21
ENDBRANCH  11  12
ENDBRANCH  10  11
ENDBRANCH   1   2
BRANCH   1  26
ATOM     23  C   UNL     1       2.959   7.643   0.330  0.00  0.00    +0.183 C 
ATOM     24  C   UNL     1       3.361   6.460  -0.833  0.00  0.00    +0.237 C 
ATOM     25  O   UNL     1       2.096   5.668  -0.842  0.00  0.00    -0.215 OA
ATOM     26  C   UNL     1       2.824   7.510  -2.084  0.00  0.00    +0.269 C 
ATOM     27  O   UNL     1       4.077   8.304  -1.679  0.00  0.00    -0.326 OA
ATOM     28  C   UNL     1       3.026   8.926  -0.797  0.00  0.00    +0.180 C 
BRANCH  28  29
ATOM     29  C   UNL     1       4.075   9.873   0.035  0.00  0.00    +0.214 C 
ATOM     30  O   UNL     1       3.706  11.091  -0.556  0.00  0.00    -0.218 OA
ENDBRANCH  28  29
BRANCH  23  31
ATOM     31  O   UNL     1       1.461   7.529   0.251  0.00  0.00    -0.326 OA
BRANCH  31  39
ATOM     32  C   UNL     1       0.190   9.115   2.866  0.00  0.00    +0.170 C 
ATOM     33  C   UNL     1      -0.524   9.963   1.571  0.00  0.00    +0.212 C 
ATOM     34  O   UNL     1       0.743  10.512   0.975  0.00  0.00    -0.218 OA
ATOM     35  C   UNL     1      -0.660   8.599   0.558  0.00  0.00    +0.207 C 
ATOM     36  O   UNL     1      -2.143   8.544   0.799  0.00  0.00    -0.219 OA
ATOM     37  C   UNL     1      -0.482   7.397   1.729  0.00  0.00    +0.181 C 
ATOM     38  N   UNL     1      -0.665   6.289   0.658  0.00  0.00    -0.125 NA
ATOM     39  C   UNL     1       1.233   7.284   1.741  0.00  0.00    +0.256 C 
ATOM     40  O   UNL     1       1.400   8.752   2.086  0.00  0.00    -0.328 OA
BRANCH  32  42
ATOM     41  N   UNL     1       1.885   9.899   3.748  0.00  0.00    -0.129 NA
ATOM     42  C   UNL     1       0.856  10.494   3.464  0.00  0.00    +0.142 C 
ENDBRANCH  32  42
ENDBRANCH  31  39
ENDBRANCH  23  31
ENDBRANCH   1  26
TORSDOF 9
ENDMDL
MODEL 7
REMARK VINA RESULT:      -6.4      2.322      9.970
REMARK  Name = 
REMARK  9 active torsions:
REMARK  status: ('A' for Active; 'I' for Inactive)
REMARK    1  A    between atoms: C_2  and  C_3
REMARK    2  A    between atoms: C_5  and  O_6
REMARK    3  A    between atoms: O_6  and  C_7
REMARK    4  A    between atoms: C_8  and  C_9
REMARK    5  A    between atoms: C_12  and  O_13
REMARK    6  A    between atoms: O_13  and  C_14
REMARK    7  A    between atoms: C_15  and  O_16
REMARK    8  A    between atoms: O_16  and  C_17
REMARK    9  A    between atoms: C_19  and  C_20
REMARK                            x       y       z     vdW  Elec       q    Type
REMARK                         _______ _______ _______ _____ _____    ______ ____
ROOT
ATOM      1  O   UNL     1       2.184   5.919  -5.551  0.00  0.00    -0.326 OA
ENDROOT
BRANCH   1   2
ATOM      2  C   UNL     1       3.068   6.585  -6.528  0.00  0.00    +0.178 C 
ATOM      3  C   UNL     1       1.823   7.574  -7.106  0.00  0.00    +0.199 C 
ATOM      4  O   UNL     1       2.299   7.669  -8.519  0.00  0.00    -0.219 OA
ATOM      5  C   UNL     1       0.477   6.623  -7.564  0.00  0.00    +0.126 C 
ATOM      6  N   UNL     1       0.248   5.833  -6.246  0.00  0.00    -0.130 NA
ATOM      7  C   UNL     1       1.249   5.587  -8.437  0.00  0.00    +0.043 C 
ATOM      8  C   UNL     1       2.043   4.366  -7.863  0.00  0.00    +0.123 C 
ATOM      9  N   UNL     1       1.560   4.112  -6.395  0.00  0.00    -0.130 NA
ATOM     10  C   UNL     1       3.471   5.269  -7.520  0.00  0.00    +0.165 C 
BRANCH  10  11
ATOM     11  O   UNL     1       3.554   5.892  -8.897  0.00  0.00    -0.328 OA
BRANCH  11  12
ATOM     12  C   UNL     1       4.221   4.675  -9.556  0.00  0.00    +0.256 C 
ATOM     13  C   UNL     1       5.791   5.324  -9.777  0.00  0.00    +0.181 C 
ATOM     14  N   UNL     1       5.673   6.736  -9.174  0.00  0.00    -0.125 NA
ATOM     15  C   UNL     1       5.921   5.874 -11.373  0.00  0.00    +0.207 C 
ATOM     16  O   UNL     1       5.364   4.652 -12.078  0.00  0.00    -0.219 OA
ATOM     17  C   UNL     1       4.642   6.925 -11.756  0.00  0.00    +0.213 C 
ATOM     18  O   UNL     1       4.692   7.871 -10.599  0.00  0.00    -0.218 OA
ATOM     19  C   UNL     1       3.232   6.139 -11.207  0.00  0.00    +0.183 C 
ATOM     20  O   UNL     1       3.750   4.798 -10.968  0.00  0.00    -0.326 OA
BRANCH  19  21
ATOM     21  C   UNL     1       2.967   5.715 -12.788  0.00  0.00    +0.214 C 
ATOM     22  O   UNL     1       1.704   5.864 -13.130  0.00  0.00    -0.218 OA
ENDBRANCH  19  21
ENDBRANCH  11  12
ENDBRANCH  10  11
ENDBRANCH   1   2
BRANCH   1  26
ATOM     23  C   UNL     1       3.126   6.074  -1.964  0.00  0.00    +0.183 C 
ATOM     24  C   UNL     1       2.593   5.119  -3.274  0.00  0.00    +0.237 C 
ATOM     25  O   UNL     1       1.154   4.964  -2.912  0.00  0.00    -0.215 OA
ATOM     26  C   UNL     1       2.307   6.542  -4.195  0.00  0.00    +0.269 C 
ATOM     27  O   UNL     1       3.843   6.616  -4.182  0.00  0.00    -0.326 OA
ATOM     28  C   UNL     1       3.490   7.418  -2.956  0.00  0.00    +0.180 C 
BRANCH  28  29
ATOM     29  C   UNL     1       5.041   7.620  -2.462  0.00  0.00    +0.214 C 
ATOM     30  O   UNL     1       5.632   7.557  -3.733  0.00  0.00    -0.218 OA
ENDBRANCH  28  29
BRANCH  23  31
ATOM     31  O   UNL     1       1.793   6.630  -1.542  0.00  0.00    -0.326 OA
BRANCH  31  39
ATOM     32  C   UNL     1       2.118   7.619   1.601  0.00  0.00    +0.170 C 
ATOM     33  C   UNL     1       1.691   9.077   0.827  0.00  0.00    +0.212 C 
ATOM     34  O   UNL     1       2.898   9.185  -0.063  0.00  0.00    -0.218 OA
ATOM     35  C   UNL     1       0.656   8.341  -0.311  0.00  0.00    +0.207 C 
ATOM     36  O   UNL     1      -0.549   8.859   0.423  0.00  0.00    -0.219 OA
ATOM     37  C   UNL     1       0.428   6.864   0.473  0.00  0.00    +0.181 C 
ATOM     38  N   UNL     1      -0.524   6.383  -0.652  0.00  0.00    -0.125 NA
ATOM     39  C   UNL     1       1.793   6.020  -0.142  0.00  0.00    +0.256 C 
ATOM     40  O   UNL     1       2.766   7.055   0.392  0.00  0.00    -0.328 OA
BRANCH  32  42
ATOM     41  N   UNL     1       3.852   7.202   2.643  0.00  0.00    -0.129 NA
ATOM     42  C   UNL     1       3.512   8.277   2.174  0.00  0.00    +0.142 C 
ENDBRANCH  32  42
ENDBRANCH  31  39
ENDBRANCH  23  31
ENDBRANCH   1  26
TORSDOF 9
ENDMDL
MODEL 8
REMARK VINA RESULT:      -6.1      2.239      9.872
REMARK  Name = 
REMARK  9 active torsions:
REMARK  status: ('A' for Active; 'I' for Inactive)
REMARK    1  A    between atoms: C_2  and  C_3
REMARK    2  A    between atoms: C_5  and  O_6
REMARK    3  A    between atoms: O_6  and  C_7
REMARK    4  A    between atoms: C_8  and  C_9
REMARK    5  A    between atoms: C_12  and  O_13
REMARK    6  A    between atoms: O_13  and  C_14
REMARK    7  A    between atoms: C_15  and  O_16
REMARK    8  A    between atoms: O_16  and  C_17
REMARK    9  A    between atoms: C_19  and  C_20
REMARK                            x       y       z     vdW  Elec       q    Type
REMARK                         _______ _______ _______ _____ _____    ______ ____
ROOT
ATOM      1  O   UNL     1       2.599   6.130  -5.245  0.00  0.00    -0.326 OA
ENDROOT
BRANCH   1   2
ATOM      2  C   UNL     1       1.530   6.327  -6.244  0.00  0.00    +0.178 C 
ATOM      3  C   UNL     1       0.969   4.739  -6.081  0.00  0.00    +0.199 C 
ATOM      4  O   UNL     1       0.509   4.558  -7.490  0.00  0.00    -0.219 OA
ATOM      5  C   UNL     1       2.255   3.633  -6.297  0.00  0.00    +0.126 C 
ATOM      6  N   UNL     1       3.258   4.179  -5.244  0.00  0.00    -0.130 NA
ATOM      7  C   UNL     1       2.815   4.231  -7.624  0.00  0.00    +0.043 C 
ATOM      8  C   UNL     1       3.749   5.485  -7.702  0.00  0.00    +0.123 C 
ATOM      9  N   UNL     1       4.367   5.727  -6.283  0.00  0.00    -0.130 NA
ATOM     10  C   UNL     1       2.462   6.630  -7.629  0.00  0.00    +0.165 C 
BRANCH  10  11
ATOM     11  O   UNL     1       1.657   5.977  -8.732  0.00  0.00    -0.328 OA
BRANCH  11  12
ATOM     12  C   UNL     1       1.564   7.242  -9.598  0.00  0.00    +0.256 C 
ATOM     13  C   UNL     1       0.013   6.982 -10.278  0.00  0.00    +0.181 C 
ATOM     14  N   UNL     1      -0.433   5.658  -9.630  0.00  0.00    -0.125 NA
ATOM     15  C   UNL     1       0.212   6.311 -11.819  0.00  0.00    +0.207 C 
ATOM     16  O   UNL     1       1.257   7.273 -12.350  0.00  0.00    -0.219 OA
ATOM     17  C   UNL     1       1.216   4.942 -11.758  0.00  0.00    +0.213 C 
ATOM     18  O   UNL     1       0.578   4.169 -10.648  0.00  0.00    -0.218 OA
ATOM     19  C   UNL     1       2.561   5.410 -10.820  0.00  0.00    +0.183 C 
ATOM     20  O   UNL     1       2.375   6.854 -10.790  0.00  0.00    -0.326 OA
BRANCH  19  21
ATOM     21  C   UNL     1       3.380   5.581 -12.252  0.00  0.00    +0.214 C 
ATOM     22  O   UNL     1       4.623   5.972 -12.062  0.00  0.00    -0.218 OA
ENDBRANCH  19  21
ENDBRANCH  11  12
ENDBRANCH  10  11
ENDBRANCH   1   2
BRANCH   1  26
ATOM     23  C   UNL     1       2.545   6.416  -1.545  0.00  0.00    +0.183 C 
ATOM     24  C   UNL     1       2.602   5.394  -2.910  0.00  0.00    +0.237 C 
ATOM     25  O   UNL     1       1.198   4.890  -2.913  0.00  0.00    -0.215 OA
ATOM     26  C   UNL     1       2.225   6.730  -3.925  0.00  0.00    +0.269 C 
ATOM     27  O   UNL     1       3.645   7.170  -3.531  0.00  0.00    -0.326 OA
ATOM     28  C   UNL     1       2.815   7.833  -2.462  0.00  0.00    +0.180 C 
BRANCH  28  29
ATOM     29  C   UNL     1       4.097   8.389  -1.605  0.00  0.00    +0.214 C 
ATOM     30  O   UNL     1       3.532   9.620  -1.237  0.00  0.00    -0.218 OA
ENDBRANCH  28  29
BRANCH  23  31
ATOM     31  O   UNL     1       1.056   6.625  -1.489  0.00  0.00    -0.326 OA
BRANCH  31  39
ATOM     32  C   UNL     1       0.005   7.223   1.594  0.00  0.00    +0.170 C 
ATOM     33  C   UNL     1      -0.638   8.557   0.749  0.00  0.00    +0.212 C 
ATOM     34  O   UNL     1       0.670   9.171   0.330  0.00  0.00    -0.218 OA
ATOM     35  C   UNL     1      -0.934   7.691  -0.690  0.00  0.00    +0.207 C 
ATOM     36  O   UNL     1      -2.410   7.685  -0.405  0.00  0.00    -0.219 OA
ATOM     37  C   UNL     1      -0.865   6.126  -0.061  0.00  0.00    +0.181 C 
ATOM     38  N   UNL     1      -1.181   5.523  -1.454  0.00  0.00    -0.125 NA
ATOM     39  C   UNL     1       0.829   5.861  -0.186  0.00  0.00    +0.256 C 
ATOM     40  O   UNL     1       1.156   7.070   0.670  0.00  0.00    -0.328 OA
BRANCH  32  42
ATOM     41  N   UNL     1       1.197   7.251   3.280  0.00  0.00    -0.129 NA
ATOM     42  C   UNL     1       0.823   8.210   2.623  0.00  0.00    +0.142 C 
ENDBRANCH  32  42
ENDBRANCH  31  39
ENDBRANCH  23  31
ENDBRANCH   1  26
TORSDOF 9
ENDMDL
MODEL 9
REMARK VINA RESULT:      -6.1      2.727      5.114
REMARK  Name = 
REMARK  9 active torsions:
REMARK  status: ('A' for Active; 'I' for Inactive)
REMARK    1  A    between atoms: C_2  and  C_3
REMARK    2  A    between atoms: C_5  and  O_6
REMARK    3  A    between atoms: O_6  and  C_7
REMARK    4  A    between atoms: C_8  and  C_9
REMARK    5  A    between atoms: C_12  and  O_13
REMARK    6  A    between atoms: O_13  and  C_14
REMARK    7  A    between atoms: C_15  and  O_16
REMARK    8  A    between atoms: O_16  and  C_17
REMARK    9  A    between atoms: C_19  and  C_20
REMARK                            x       y       z     vdW  Elec       q    Type
REMARK                         _______ _______ _______ _____ _____    ______ ____
ROOT
ATOM      1  O   UNL     1       2.424   5.904  -7.328  0.00  0.00    -0.326 OA
ENDROOT
BRANCH   1   2
ATOM      2  C   UNL     1       3.341   5.743  -6.183  0.00  0.00    +0.178 C 
ATOM      3  C   UNL     1       2.691   4.237  -5.766  0.00  0.00    +0.199 C 
ATOM      4  O   UNL     1       2.899   4.345  -4.291  0.00  0.00    -0.219 OA
ATOM      5  C   UNL     1       0.993   4.355  -5.593  0.00  0.00    +0.126 C 
ATOM      6  N   UNL     1       0.625   4.968  -6.972  0.00  0.00    -0.130 NA
ATOM      7  C   UNL     1       0.972   5.606  -4.661  0.00  0.00    +0.043 C 
ATOM      8  C   UNL     1       1.123   7.081  -5.162  0.00  0.00    +0.123 C 
ATOM      9  N   UNL     1       0.837   7.110  -6.702  0.00  0.00    -0.130 NA
ATOM     10  C   UNL     1       2.845   7.043  -5.212  0.00  0.00    +0.165 C 
BRANCH  10  11
ATOM     11  O   UNL     1       2.995   6.497  -3.808  0.00  0.00    -0.328 OA
BRANCH  11  12
ATOM     12  C   UNL     1       3.479   7.821  -3.199  0.00  0.00    +0.256 C 
ATOM     13  C   UNL     1       5.008   7.303  -2.624  0.00  0.00    +0.181 C 
ATOM     14  N   UNL     1       5.060   5.826  -3.057  0.00  0.00    -0.125 NA
ATOM     15  C   UNL     1       4.865   6.951  -0.974  0.00  0.00    +0.207 C 
ATOM     16  O   UNL     1       4.139   8.208  -0.537  0.00  0.00    -0.219 OA
ATOM     17  C   UNL     1       3.582   5.872  -0.695  0.00  0.00    +0.213 C 
ATOM     18  O   UNL     1       3.882   4.804  -1.698  0.00  0.00    -0.218 OA
ATOM     19  C   UNL     1       2.266   6.499  -1.579  0.00  0.00    +0.183 C 
ATOM     20  O   UNL     1       2.763   7.833  -1.888  0.00  0.00    -0.326 OA
BRANCH  19  21
ATOM     21  C   UNL     1       1.698   7.085  -0.135  0.00  0.00    +0.214 C 
ATOM     22  O   UNL     1       0.402   6.893  -0.004  0.00  0.00    -0.218 OA
ENDBRANCH  19  21
ENDBRANCH  11  12
ENDBRANCH  10  11
ENDBRANCH   1   2
BRANCH   1  26
ATOM     23  C   UNL     1       3.902   5.058 -10.626  0.00  0.00    +0.183 C 
ATOM     24  C   UNL     1       3.490   4.535  -9.055  0.00  0.00    +0.237 C 
ATOM     25  O   UNL     1       4.841   4.528  -8.423  0.00  0.00    -0.215 OA
ATOM     26  C   UNL     1       3.179   6.162  -8.595  0.00  0.00    +0.269 C 
ATOM     27  O   UNL     1       1.982   5.989  -9.544  0.00  0.00    -0.326 OA
ATOM     28  C   UNL     1       3.034   6.524 -10.480  0.00  0.00    +0.180 C 
BRANCH  28  29
ATOM     29  C   UNL     1       2.125   6.358 -11.834  0.00  0.00    +0.214 C 
ATOM     30  O   UNL     1       0.896   6.710 -11.256  0.00  0.00    -0.218 OA
ENDBRANCH  28  29
BRANCH  23  31
ATOM     31  O   UNL     1       5.224   5.701 -10.304  0.00  0.00    -0.326 OA
BRANCH  31  39
ATOM     32  C   UNL     1       7.025   6.544 -12.952  0.00  0.00    +0.170 C 
ATOM     33  C   UNL     1       7.047   7.990 -12.050  0.00  0.00    +0.212 C 
ATOM     34  O   UNL     1       5.570   8.271 -12.097  0.00  0.00    -0.218 OA
ATOM     35  C   UNL     1       7.065   7.215 -10.531  0.00  0.00    +0.207 C 
ATOM     36  O   UNL     1       8.516   7.564 -10.350  0.00  0.00    -0.219 OA
ATOM     37  C   UNL     1       7.556   5.682 -11.036  0.00  0.00    +0.181 C 
ATOM     38  N   UNL     1       7.548   5.167  -9.573  0.00  0.00    -0.125 NA
ATOM     39  C   UNL     1       6.017   5.017 -11.416  0.00  0.00    +0.256 C 
ATOM     40  O   UNL     1       5.709   6.116 -12.416  0.00  0.00    -0.328 OA
BRANCH  32  42
ATOM     41  N   UNL     1       6.598   6.343 -14.963  0.00  0.00    -0.129 NA
ATOM     42  C   UNL     1       6.369   7.309 -14.251  0.00  0.00    +0.142 C 
ENDBRANCH  32  42
ENDBRANCH  31  39
ENDBRANCH  23  31
ENDBRANCH   1  26
TORSDOF 9
ENDMDL
