MODEL 1
REMARK VINA RESULT:      -8.7      0.000      0.000
REMARK  Name = 
REMARK  12 active torsions:
REMARK  status: ('A' for Active; 'I' for Inactive)
REMARK    1  A    between atoms: C_2  and  O_3
REMARK    2  A    between atoms: O_3  and  C_4
REMARK    3  A    between atoms: C_9  and  C_10
REMARK    4  A    between atoms: C_12  and  N_13
REMARK    5  A    between atoms: N_13  and  C_14
REMARK    6  A    between atoms: C_17  and  O_18
REMARK    7  A    between atoms: O_18  and  C_19
REMARK    8  A    between atoms: C_19  and  C_20
REMARK    9  A    between atoms: C_31  and  N_32
REMARK   10  A    between atoms: C_33  and  C_35
REMARK   11  A    between atoms: C_36  and  C_37
REMARK   12  A    between atoms: C_37  and  N_38
REMARK                            x       y       z     vdW  Elec       q    Type
REMARK                         _______ _______ _______ _____ _____    ______ ____
ROOT
ATOM      1  C   UNL     1       1.355   5.855  -9.553  0.00  0.00    +0.155 A 
ATOM      2  C   UNL     1       2.286   6.440  -8.724  0.00  0.00    +0.108 A 
ATOM      3  C   UNL     1       2.017   6.623  -7.374  0.00  0.00    +0.023 A 
ATOM      4  C   UNL     1       0.892   6.066  -6.780  0.00  0.00    +0.035 A 
ATOM      5  C   UNL     1      -0.068   5.587  -7.663  0.00  0.00    +0.086 A 
ATOM      6  N   UNL     1      -1.319   5.342  -7.241  0.00  0.00    -0.243 NA
ATOM      7  C   UNL     1      -1.722   5.824  -6.051  0.00  0.00    +0.110 A 
ATOM      8  C   UNL     1      -0.877   6.517  -5.207  0.00  0.00    +0.103 A 
ATOM      9  C   UNL     1       0.478   6.443  -5.506  0.00  0.00    +0.083 A 
ATOM     10  C   UNL     1       0.257   5.276  -8.970  0.00  0.00    +0.057 A 
ENDROOT
BRANCH   2  11
ATOM     11  N   UNL     1       3.581   6.773  -9.238  0.00  0.00    -0.172 NA
ATOM     12  C   UNL     1       4.614   5.785  -9.270  0.00  0.00    +0.269 C 
ATOM     13  O   UNL     1       4.653   4.974  -8.299  0.00  0.00    -0.268 OA
BRANCH  12  14
ATOM     14  C   UNL     1       5.838   5.949 -10.025  0.00  0.00    +0.057 C 
ATOM     15  C   UNL     1       5.907   6.092 -11.328  0.00  0.00    -0.004 C 
BRANCH  15  16
ATOM     16  C   UNL     1       6.785   7.055 -12.023  0.00  0.00    +0.099 C 
BRANCH  16  17
ATOM     17  N   UNL     1       7.707   6.432 -12.938  0.00  0.00    -0.267 NA
ATOM     18  C   UNL     1       7.065   5.531 -13.868  0.00  0.00    +0.090 C 
ATOM     19  C   UNL     1       8.854   5.848 -12.293  0.00  0.00    +0.090 C 
ENDBRANCH  16  17
ENDBRANCH  15  16
ENDBRANCH  12  14
ENDBRANCH   2  11
BRANCH   8  20
ATOM     20  C   UNL     1      -1.379   7.318  -4.114  0.00  0.00    +0.103 C 
ATOM     21  N   UNL     1      -2.073   7.587  -3.223  0.00  0.00    -0.191 NA
ENDBRANCH   8  20
BRANCH   1  22
ATOM     22  O   UNL     1       1.540   5.956 -10.923  0.00  0.00    -0.474 OA
BRANCH  22  24
ATOM     23  C   UNL     1      -0.131   7.387 -11.939  0.00  0.00    +0.051 C 
ATOM     24  C   UNL     1       0.480   5.999 -11.858  0.00  0.00    +0.206 C 
ENDBRANCH  22  24
ENDBRANCH   1  22
BRANCH   9  25
ATOM     25  N   UNL     1       1.419   7.119  -4.711  0.00  0.00    -0.212 NA
BRANCH  25  26
ATOM     26  C   UNL     1       2.335   6.528  -3.821  0.00  0.00    +0.072 A 
ATOM     27  C   UNL     1       1.792   5.733  -2.817  0.00  0.00    +0.031 A 
ATOM     28  C   UNL     1       2.484   5.428  -1.672  0.00  0.00    +0.093 A 
ATOM     29 CL   UNL     1       2.046   4.006  -0.753  0.00  0.00    -0.079 Cl
ATOM     30  C   UNL     1       3.609   6.140  -1.336  0.00  0.00    +0.150 A 
ATOM     31  C   UNL     1       4.093   7.082  -2.235  0.00  0.00    +0.039 A 
ATOM     32  C   UNL     1       3.464   7.249  -3.444  0.00  0.00    +0.020 A 
BRANCH  30  33
ATOM     33  O   UNL     1       3.971   6.145   0.010  0.00  0.00    -0.468 OA
BRANCH  33  34
ATOM     34  C   UNL     1       4.234   7.321   0.736  0.00  0.00    +0.251 C 
BRANCH  34  35
ATOM     35  C   UNL     1       2.977   8.095   0.875  0.00  0.00    +0.103 A 
ATOM     36  N   UNL     1       1.938   7.583   1.566  0.00  0.00    -0.244 NA
ATOM     37  C   UNL     1       1.060   8.352   2.246  0.00  0.00    +0.099 A 
ATOM     38  C   UNL     1       1.004   9.681   1.898  0.00  0.00    +0.021 A 
ATOM     39  C   UNL     1       1.746  10.169   0.837  0.00  0.00    +0.003 A 
ATOM     40  C   UNL     1       2.838   9.402   0.451  0.00  0.00    +0.018 A 
ENDBRANCH  34  35
ENDBRANCH  33  34
ENDBRANCH  30  33
ENDBRANCH  25  26
ENDBRANCH   9  25
TORSDOF 12
ENDMDL
MODEL 2
REMARK VINA RESULT:      -8.1      2.826      4.698
REMARK  Name = 
REMARK  12 active torsions:
REMARK  status: ('A' for Active; 'I' for Inactive)
REMARK    1  A    between atoms: C_2  and  O_3
REMARK    2  A    between atoms: O_3  and  C_4
REMARK    3  A    between atoms: C_9  and  C_10
REMARK    4  A    between atoms: C_12  and  N_13
REMARK    5  A    between atoms: N_13  and  C_14
REMARK    6  A    between atoms: C_17  and  O_18
REMARK    7  A    between atoms: O_18  and  C_19
REMARK    8  A    between atoms: C_19  and  C_20
REMARK    9  A    between atoms: C_31  and  N_32
REMARK   10  A    between atoms: C_33  and  C_35
REMARK   11  A    between atoms: C_36  and  C_37
REMARK   12  A    between atoms: C_37  and  N_38
REMARK                            x       y       z     vdW  Elec       q    Type
REMARK                         _______ _______ _______ _____ _____    ______ ____
ROOT
ATOM      1  C   UNL     1       3.990   5.344  -8.218  0.00  0.00    +0.155 A 
ATOM      2  C   UNL     1       2.810   4.713  -7.895  0.00  0.00    +0.108 A 
ATOM      3  C   UNL     1       2.321   4.744  -6.596  0.00  0.00    +0.023 A 
ATOM      4  C   UNL     1       2.899   5.555  -5.627  0.00  0.00    +0.035 A 
ATOM      5  C   UNL     1       4.141   6.082  -5.959  0.00  0.00    +0.086 A 
ATOM      6  N   UNL     1       4.941   6.589  -5.008  0.00  0.00    -0.243 NA
ATOM      7  C   UNL     1       4.676   6.332  -3.714  0.00  0.00    +0.110 A 
ATOM      8  C   UNL     1       3.568   5.611  -3.313  0.00  0.00    +0.103 A 
ATOM      9  C   UNL     1       2.589   5.413  -4.278  0.00  0.00    +0.083 A 
ATOM     10  C   UNL     1       4.548   6.170  -7.277  0.00  0.00    +0.057 A 
ENDROOT
BRANCH   2  11
ATOM     11  N   UNL     1       2.029   4.100  -8.928  0.00  0.00    -0.172 NA
ATOM     12  C   UNL     1       1.154   4.897  -9.731  0.00  0.00    +0.269 C 
ATOM     13  O   UNL     1       0.555   5.846  -9.146  0.00  0.00    -0.268 OA
BRANCH  12  14
ATOM     14  C   UNL     1       0.560   4.419 -10.962  0.00  0.00    +0.057 C 
ATOM     15  C   UNL     1       0.579   5.059 -12.107  0.00  0.00    -0.004 C 
BRANCH  15  16
ATOM     16  C   UNL     1       0.841   4.430 -13.418  0.00  0.00    +0.099 C 
BRANCH  16  17
ATOM     17  N   UNL     1       1.687   5.221 -14.274  0.00  0.00    -0.267 NA
ATOM     18  C   UNL     1       3.076   5.210 -13.870  0.00  0.00    +0.090 C 
ATOM     19  C   UNL     1       1.184   6.549 -14.515  0.00  0.00    +0.090 C 
ENDBRANCH  16  17
ENDBRANCH  15  16
ENDBRANCH  12  14
ENDBRANCH   2  11
BRANCH   8  20
ATOM     20  C   UNL     1       3.465   5.048  -1.987  0.00  0.00    +0.103 C 
ATOM     21  N   UNL     1       3.848   4.565  -1.003  0.00  0.00    -0.191 NA
ENDBRANCH   8  20
BRANCH   1  22
ATOM     22  O   UNL     1       4.582   5.047  -9.436  0.00  0.00    -0.474 OA
BRANCH  22  24
ATOM     23  C   UNL     1       4.820   6.941 -10.929  0.00  0.00    +0.051 C 
ATOM     24  C   UNL     1       5.515   5.890 -10.081  0.00  0.00    +0.206 C 
ENDBRANCH  22  24
ENDBRANCH   1  22
BRANCH   9  25
ATOM     25  N   UNL     1       1.426   4.686  -3.971  0.00  0.00    -0.212 NA
BRANCH  25  26
ATOM     26  C   UNL     1       0.240   5.206  -3.418  0.00  0.00    +0.072 A 
ATOM     27  C   UNL     1      -0.171   6.444  -3.899  0.00  0.00    +0.031 A 
ATOM     28  C   UNL     1      -1.043   7.245  -3.204  0.00  0.00    +0.093 A 
ATOM     29 CL   UNL     1      -1.974   8.452  -4.059  0.00  0.00    -0.079 Cl
ATOM     30  C   UNL     1      -1.300   6.996  -1.878  0.00  0.00    +0.150 A 
ATOM     31  C   UNL     1      -0.758   5.855  -1.299  0.00  0.00    +0.039 A 
ATOM     32  C   UNL     1      -0.019   4.991  -2.068  0.00  0.00    +0.020 A 
BRANCH  30  33
ATOM     33  O   UNL     1      -1.762   8.067  -1.116  0.00  0.00    -0.468 OA
BRANCH  33  34
ATOM     34  C   UNL     1      -1.909   8.016   0.282  0.00  0.00    +0.251 C 
BRANCH  34  35
ATOM     35  C   UNL     1      -0.955   8.966   0.904  0.00  0.00    +0.103 A 
ATOM     36  N   UNL     1      -1.404   9.952   1.706  0.00  0.00    -0.244 NA
ATOM     37  C   UNL     1      -0.684  10.441   2.739  0.00  0.00    +0.099 A 
ATOM     38  C   UNL     1       0.669  10.201   2.717  0.00  0.00    +0.021 A 
ATOM     39  C   UNL     1       1.261   9.573   1.636  0.00  0.00    +0.003 A 
ATOM     40  C   UNL     1       0.417   8.824   0.827  0.00  0.00    +0.018 A 
ENDBRANCH  34  35
ENDBRANCH  33  34
ENDBRANCH  30  33
ENDBRANCH  25  26
ENDBRANCH   9  25
TORSDOF 12
ENDMDL
MODEL 3
REMARK VINA RESULT:      -8.0      1.923      2.332
REMARK  Name = 
REMARK  12 active torsions:
REMARK  status: ('A' for Active; 'I' for Inactive)
REMARK    1  A    between atoms: C_2  and  O_3
REMARK    2  A    between atoms: O_3  and  C_4
REMARK    3  A    between atoms: C_9  and  C_10
REMARK    4  A    between atoms: C_12  and  N_13
REMARK    5  A    between atoms: N_13  and  C_14
REMARK    6  A    between atoms: C_17  and  O_18
REMARK    7  A    between atoms: O_18  and  C_19
REMARK    8  A    between atoms: C_19  and  C_20
REMARK    9  A    between atoms: C_31  and  N_32
REMARK   10  A    between atoms: C_33  and  C_35
REMARK   11  A    between atoms: C_36  and  C_37
REMARK   12  A    between atoms: C_37  and  N_38
REMARK                            x       y       z     vdW  Elec       q    Type
REMARK                         _______ _______ _______ _____ _____    ______ ____
ROOT
ATOM      1  C   UNL     1       0.493   5.977  -8.639  0.00  0.00    +0.155 A 
ATOM      2  C   UNL     1       1.533   5.835  -7.748  0.00  0.00    +0.108 A 
ATOM      3  C   UNL     1       1.288   5.526  -6.416  0.00  0.00    +0.023 A 
ATOM      4  C   UNL     1       0.018   5.172  -5.979  0.00  0.00    +0.035 A 
ATOM      5  C   UNL     1      -1.011   5.436  -6.875  0.00  0.00    +0.086 A 
ATOM      6  N   UNL     1      -2.287   5.460  -6.458  0.00  0.00    -0.243 NA
ATOM      7  C   UNL     1      -2.551   5.514  -5.139  0.00  0.00    +0.110 A 
ATOM      8  C   UNL     1      -1.556   5.486  -4.182  0.00  0.00    +0.103 A 
ATOM      9  C   UNL     1      -0.295   5.106  -4.625  0.00  0.00    +0.083 A 
ATOM     10  C   UNL     1      -0.758   5.601  -8.224  0.00  0.00    +0.057 A 
ENDROOT
BRANCH   2  11
ATOM     11  N   UNL     1       2.884   5.911  -8.218  0.00  0.00    -0.172 NA
ATOM     12  C   UNL     1       3.433   4.841  -8.992  0.00  0.00    +0.269 C 
ATOM     13  O   UNL     1       3.079   3.669  -8.670  0.00  0.00    -0.268 OA
BRANCH  12  14
ATOM     14  C   UNL     1       4.667   4.960  -9.738  0.00  0.00    +0.057 C 
ATOM     15  C   UNL     1       5.559   5.909  -9.574  0.00  0.00    -0.004 C 
BRANCH  15  16
ATOM     16  C   UNL     1       7.020   5.693  -9.547  0.00  0.00    +0.099 C 
BRANCH  16  17
ATOM     17  N   UNL     1       7.723   6.402 -10.586  0.00  0.00    -0.267 NA
ATOM     18  C   UNL     1       7.005   7.560 -11.071  0.00  0.00    +0.090 C 
ATOM     19  C   UNL     1       8.195   5.550 -11.647  0.00  0.00    +0.090 C 
ENDBRANCH  16  17
ENDBRANCH  15  16
ENDBRANCH  12  14
ENDBRANCH   2  11
BRANCH   8  20
ATOM     20  C   UNL     1      -1.801   5.885  -2.815  0.00  0.00    +0.103 C 
ATOM     21  N   UNL     1      -2.202   5.777  -1.731  0.00  0.00    -0.191 NA
ENDBRANCH   8  20
BRANCH   1  22
ATOM     22  O   UNL     1       0.757   6.564  -9.867  0.00  0.00    -0.474 OA
BRANCH  22  24
ATOM     23  C   UNL     1      -0.542   7.577 -11.644  0.00  0.00    +0.051 C 
ATOM     24  C   UNL     1       0.013   6.299 -11.039  0.00  0.00    +0.206 C 
ENDBRANCH  22  24
ENDBRANCH   1  22
BRANCH   9  25
ATOM     25  N   UNL     1       0.787   5.053  -3.729  0.00  0.00    -0.212 NA
BRANCH  25  26
ATOM     26  C   UNL     1       1.413   6.152  -3.112  0.00  0.00    +0.072 A 
ATOM     27  C   UNL     1       2.676   6.486  -3.587  0.00  0.00    +0.031 A 
ATOM     28  C   UNL     1       3.556   7.241  -2.853  0.00  0.00    +0.093 A 
ATOM     29 CL   UNL     1       4.830   8.118  -3.669  0.00  0.00    -0.079 Cl
ATOM     30  C   UNL     1       3.346   7.434  -1.510  0.00  0.00    +0.150 A 
ATOM     31  C   UNL     1       2.169   6.956  -0.946  0.00  0.00    +0.039 A 
ATOM     32  C   UNL     1       1.236   6.342  -1.745  0.00  0.00    +0.020 A 
BRANCH  30  33
ATOM     33  O   UNL     1       4.461   7.754  -0.738  0.00  0.00    -0.468 OA
BRANCH  33  34
ATOM     34  C   UNL     1       4.388   8.088   0.627  0.00  0.00    +0.251 C 
BRANCH  34  35
ATOM     35  C   UNL     1       4.192   9.552   0.756  0.00  0.00    +0.103 A 
ATOM     36  N   UNL     1       4.725  10.219   1.800  0.00  0.00    -0.244 NA
ATOM     37  C   UNL     1       5.128  11.505   1.718  0.00  0.00    +0.099 A 
ATOM     38  C   UNL     1       4.623  12.246   0.677  0.00  0.00    +0.021 A 
ATOM     39  C   UNL     1       3.675  11.714  -0.179  0.00  0.00    +0.003 A 
ATOM     40  C   UNL     1       3.599  10.328  -0.221  0.00  0.00    +0.018 A 
ENDBRANCH  34  35
ENDBRANCH  33  34
ENDBRANCH  30  33
ENDBRANCH  25  26
ENDBRANCH   9  25
TORSDOF 12
ENDMDL
MODEL 4
REMARK VINA RESULT:      -7.9      2.569     10.028
REMARK  Name = 
REMARK  12 active torsions:
REMARK  status: ('A' for Active; 'I' for Inactive)
REMARK    1  A    between atoms: C_2  and  O_3
REMARK    2  A    between atoms: O_3  and  C_4
REMARK    3  A    between atoms: C_9  and  C_10
REMARK    4  A    between atoms: C_12  and  N_13
REMARK    5  A    between atoms: N_13  and  C_14
REMARK    6  A    between atoms: C_17  and  O_18
REMARK    7  A    between atoms: O_18  and  C_19
REMARK    8  A    between atoms: C_19  and  C_20
REMARK    9  A    between atoms: C_31  and  N_32
REMARK   10  A    between atoms: C_33  and  C_35
REMARK   11  A    between atoms: C_36  and  C_37
REMARK   12  A    between atoms: C_37  and  N_38
REMARK                            x       y       z     vdW  Elec       q    Type
REMARK                         _______ _______ _______ _____ _____    ______ ____
ROOT
ATOM      1  C   UNL     1       0.258   6.762   0.199  0.00  0.00    +0.155 A 
ATOM      2  C   UNL     1       1.166   6.297  -0.726  0.00  0.00    +0.108 A 
ATOM      3  C   UNL     1       0.806   6.149  -2.059  0.00  0.00    +0.023 A 
ATOM      4  C   UNL     1      -0.406   6.629  -2.538  0.00  0.00    +0.035 A 
ATOM      5  C   UNL     1      -1.330   6.984  -1.562  0.00  0.00    +0.086 A 
ATOM      6  N   UNL     1      -2.626   7.135  -1.875  0.00  0.00    -0.243 NA
ATOM      7  C   UNL     1      -3.081   6.671  -3.054  0.00  0.00    +0.110 A 
ATOM      8  C   UNL     1      -2.250   6.091  -3.992  0.00  0.00    +0.103 A 
ATOM      9  C   UNL     1      -0.887   6.271  -3.794  0.00  0.00    +0.083 A 
ATOM     10  C   UNL     1      -0.928   7.266  -0.270  0.00  0.00    +0.057 A 
ENDROOT
BRANCH   2  11
ATOM     11  N   UNL     1       2.521   6.057  -0.329  0.00  0.00    -0.172 NA
ATOM     12  C   UNL     1       3.412   7.157  -0.125  0.00  0.00    +0.269 C 
ATOM     13  O   UNL     1       3.286   8.142  -0.910  0.00  0.00    -0.268 OA
BRANCH  12  14
ATOM     14  C   UNL     1       4.688   7.023   0.545  0.00  0.00    +0.057 C 
ATOM     15  C   UNL     1       5.163   7.861   1.436  0.00  0.00    -0.004 C 
BRANCH  15  16
ATOM     16  C   UNL     1       5.843   7.462   2.686  0.00  0.00    +0.099 C 
BRANCH  16  17
ATOM     17  N   UNL     1       6.158   8.574   3.546  0.00  0.00    -0.267 NA
ATOM     18  C   UNL     1       5.420   9.773   3.219  0.00  0.00    +0.090 C 
ATOM     19  C   UNL     1       7.572   8.807   3.692  0.00  0.00    +0.090 C 
ENDBRANCH  16  17
ENDBRANCH  15  16
ENDBRANCH  12  14
ENDBRANCH   2  11
BRANCH   8  20
ATOM     20  C   UNL     1      -2.769   5.296  -5.082  0.00  0.00    +0.103 C 
ATOM     21  N   UNL     1      -3.024   5.041  -6.185  0.00  0.00    -0.191 NA
ENDBRANCH   8  20
BRANCH   1  22
ATOM     22  O   UNL     1       0.560   6.619   1.544  0.00  0.00    -0.474 OA
BRANCH  22  24
ATOM     23  C   UNL     1       1.736   8.162   2.997  0.00  0.00    +0.051 C 
ATOM     24  C   UNL     1       0.396   7.649   2.499  0.00  0.00    +0.206 C 
ENDBRANCH  22  24
ENDBRANCH   1  22
BRANCH   9  25
ATOM     25  N   UNL     1       0.041   5.715  -4.691  0.00  0.00    -0.212 NA
BRANCH  25  26
ATOM     26  C   UNL     1       0.602   6.355  -5.812  0.00  0.00    +0.072 A 
ATOM     27  C   UNL     1       0.253   5.836  -7.054  0.00  0.00    +0.031 A 
ATOM     28  C   UNL     1       1.001   6.073  -8.181  0.00  0.00    +0.093 A 
ATOM     29 CL   UNL     1       0.255   5.931  -9.756  0.00  0.00    -0.079 Cl
ATOM     30  C   UNL     1       2.276   6.569  -8.070  0.00  0.00    +0.150 A 
ATOM     31  C   UNL     1       2.739   6.938  -6.813  0.00  0.00    +0.039 A 
ATOM     32  C   UNL     1       1.905   6.834  -5.727  0.00  0.00    +0.020 A 
BRANCH  30  33
ATOM     33  O   UNL     1       3.139   6.328  -9.137  0.00  0.00    -0.468 OA
BRANCH  33  34
ATOM     34  C   UNL     1       4.203   5.408  -9.080  0.00  0.00    +0.251 C 
BRANCH  34  35
ATOM     35  C   UNL     1       5.341   5.937  -9.869  0.00  0.00    +0.103 A 
ATOM     36  N   UNL     1       5.119   6.767 -10.908  0.00  0.00    -0.244 NA
ATOM     37  C   UNL     1       5.992   7.729 -11.276  0.00  0.00    +0.099 A 
ATOM     38  C   UNL     1       7.286   7.593 -10.833  0.00  0.00    +0.021 A 
ATOM     39  C   UNL     1       7.679   6.470 -10.126  0.00  0.00    +0.003 A 
ATOM     40  C   UNL     1       6.663   5.743  -9.520  0.00  0.00    +0.018 A 
ENDBRANCH  34  35
ENDBRANCH  33  34
ENDBRANCH  30  33
ENDBRANCH  25  26
ENDBRANCH   9  25
TORSDOF 12
ENDMDL
MODEL 5
REMARK VINA RESULT:      -7.9      3.672      9.774
REMARK  Name = 
REMARK  12 active torsions:
REMARK  status: ('A' for Active; 'I' for Inactive)
REMARK    1  A    between atoms: C_2  and  O_3
REMARK    2  A    between atoms: O_3  and  C_4
REMARK    3  A    between atoms: C_9  and  C_10
REMARK    4  A    between atoms: C_12  and  N_13
REMARK    5  A    between atoms: N_13  and  C_14
REMARK    6  A    between atoms: C_17  and  O_18
REMARK    7  A    between atoms: O_18  and  C_19
REMARK    8  A    between atoms: C_19  and  C_20
REMARK    9  A    between atoms: C_31  and  N_32
REMARK   10  A    between atoms: C_33  and  C_35
REMARK   11  A    between atoms: C_36  and  C_37
REMARK   12  A    between atoms: C_37  and  N_38
REMARK                            x       y       z     vdW  Elec       q    Type
REMARK                         _______ _______ _______ _____ _____    ______ ____
ROOT
ATOM      1  C   UNL     1      -0.911   7.448   2.776  0.00  0.00    +0.155 A 
ATOM      2  C   UNL     1      -0.667   7.237   1.437  0.00  0.00    +0.108 A 
ATOM      3  C   UNL     1       0.517   7.670   0.856  0.00  0.00    +0.023 A 
ATOM      4  C   UNL     1       1.563   8.160   1.627  0.00  0.00    +0.035 A 
ATOM      5  C   UNL     1       1.238   8.459   2.945  0.00  0.00    +0.086 A 
ATOM      6  N   UNL     1       2.043   9.238   3.684  0.00  0.00    -0.243 NA
ATOM      7  C   UNL     1       3.005   9.959   3.079  0.00  0.00    +0.110 A 
ATOM      8  C   UNL     1       3.241   9.886   1.720  0.00  0.00    +0.103 A 
ATOM      9  C   UNL     1       2.643   8.825   1.054  0.00  0.00    +0.083 A 
ATOM     10  C   UNL     1       0.126   7.901   3.549  0.00  0.00    +0.057 A 
ENDROOT
BRANCH   2  11
ATOM     11  N   UNL     1      -1.600   6.479   0.658  0.00  0.00    -0.172 NA
ATOM     12  C   UNL     1      -1.826   6.814  -0.713  0.00  0.00    +0.269 C 
ATOM     13  O   UNL     1      -1.813   8.046  -1.005  0.00  0.00    -0.268 OA
BRANCH  12  14
ATOM     14  C   UNL     1      -2.519   5.939  -1.635  0.00  0.00    +0.057 C 
ATOM     15  C   UNL     1      -3.011   6.304  -2.795  0.00  0.00    -0.004 C 
BRANCH  15  16
ATOM     16  C   UNL     1      -2.899   5.517  -4.041  0.00  0.00    +0.099 C 
BRANCH  16  17
ATOM     17  N   UNL     1      -1.963   6.071  -4.985  0.00  0.00    -0.267 NA
ATOM     18  C   UNL     1      -1.800   7.502  -4.852  0.00  0.00    +0.090 C 
ATOM     19  C   UNL     1      -2.200   5.658  -6.343  0.00  0.00    +0.090 C 
ENDBRANCH  16  17
ENDBRANCH  15  16
ENDBRANCH  12  14
ENDBRANCH   2  11
BRANCH   8  20
ATOM     20  C   UNL     1       4.018  10.888   1.027  0.00  0.00    +0.103 C 
ATOM     21  N   UNL     1       4.197  11.832   0.376  0.00  0.00    -0.191 NA
ENDBRANCH   8  20
BRANCH   1  22
ATOM     22  O   UNL     1      -2.203   7.266   3.244  0.00  0.00    -0.474 OA
BRANCH  22  24
ATOM     23  C   UNL     1      -3.170   9.397   2.614  0.00  0.00    +0.051 C 
ATOM     24  C   UNL     1      -3.036   8.323   3.679  0.00  0.00    +0.206 C 
ENDBRANCH  22  24
ENDBRANCH   1  22
BRANCH   9  25
ATOM     25  N   UNL     1       2.818   8.666  -0.332  0.00  0.00    -0.212 NA
BRANCH  25  26
ATOM     26  C   UNL     1       3.696   7.765  -0.963  0.00  0.00    +0.072 A 
ATOM     27  C   UNL     1       4.123   8.115  -2.239  0.00  0.00    +0.031 A 
ATOM     28  C   UNL     1       4.633   7.191  -3.117  0.00  0.00    +0.093 A 
ATOM     29 CL   UNL     1       5.674   7.721  -4.418  0.00  0.00    -0.079 Cl
ATOM     30  C   UNL     1       4.456   5.849  -2.886  0.00  0.00    +0.150 A 
ATOM     31  C   UNL     1       3.865   5.453  -1.692  0.00  0.00    +0.039 A 
ATOM     32  C   UNL     1       3.510   6.401  -0.765  0.00  0.00    +0.020 A 
BRANCH  30  33
ATOM     33  O   UNL     1       4.533   5.005  -3.992  0.00  0.00    -0.468 OA
BRANCH  33  34
ATOM     34  C   UNL     1       3.409   4.403  -4.586  0.00  0.00    +0.251 C 
BRANCH  34  35
ATOM     35  C   UNL     1       2.988   5.214  -5.754  0.00  0.00    +0.103 A 
ATOM     36  N   UNL     1       1.743   5.727  -5.811  0.00  0.00    -0.244 NA
ATOM     37  C   UNL     1       1.457   6.889  -6.437  0.00  0.00    +0.099 A 
ATOM     38  C   UNL     1       2.376   7.339  -7.354  0.00  0.00    +0.021 A 
ATOM     39  C   UNL     1       3.485   6.580  -7.679  0.00  0.00    +0.003 A 
ATOM     40  C   UNL     1       3.853   5.609  -6.756  0.00  0.00    +0.018 A 
ENDBRANCH  34  35
ENDBRANCH  33  34
ENDBRANCH  30  33
ENDBRANCH  25  26
ENDBRANCH   9  25
TORSDOF 12
ENDMDL
MODEL 6
REMARK VINA RESULT:      -7.7      1.657      2.220
REMARK  Name = 
REMARK  12 active torsions:
REMARK  status: ('A' for Active; 'I' for Inactive)
REMARK    1  A    between atoms: C_2  and  O_3
REMARK    2  A    between atoms: O_3  and  C_4
REMARK    3  A    between atoms: C_9  and  C_10
REMARK    4  A    between atoms: C_12  and  N_13
REMARK    5  A    between atoms: N_13  and  C_14
REMARK    6  A    between atoms: C_17  and  O_18
REMARK    7  A    between atoms: O_18  and  C_19
REMARK    8  A    between atoms: C_19  and  C_20
REMARK    9  A    between atoms: C_31  and  N_32
REMARK   10  A    between atoms: C_33  and  C_35
REMARK   11  A    between atoms: C_36  and  C_37
REMARK   12  A    between atoms: C_37  and  N_38
REMARK                            x       y       z     vdW  Elec       q    Type
REMARK                         _______ _______ _______ _____ _____    ______ ____
ROOT
ATOM      1  C   UNL     1       1.395   6.302  -8.036  0.00  0.00    +0.155 A 
ATOM      2  C   UNL     1       2.644   6.142  -7.477  0.00  0.00    +0.108 A 
ATOM      3  C   UNL     1       2.782   5.759  -6.150  0.00  0.00    +0.023 A 
ATOM      4  C   UNL     1       1.688   5.350  -5.398  0.00  0.00    +0.035 A 
ATOM      5  C   UNL     1       0.447   5.632  -5.957  0.00  0.00    +0.086 A 
ATOM      6  N   UNL     1      -0.662   5.600  -5.202  0.00  0.00    -0.243 NA
ATOM      7  C   UNL     1      -0.550   5.580  -3.861  0.00  0.00    +0.110 A 
ATOM      8  C   UNL     1       0.673   5.531  -3.221  0.00  0.00    +0.103 A 
ATOM      9  C   UNL     1       1.765   5.208  -4.016  0.00  0.00    +0.083 A 
ATOM     10  C   UNL     1       0.313   5.871  -7.312  0.00  0.00    +0.057 A 
ENDROOT
BRANCH   2  11
ATOM     11  N   UNL     1       3.809   6.277  -8.298  0.00  0.00    -0.172 NA
ATOM     12  C   UNL     1       4.130   5.266  -9.258  0.00  0.00    +0.269 C 
ATOM     13  O   UNL     1       3.889   4.070  -8.922  0.00  0.00    -0.268 OA
BRANCH  12  14
ATOM     14  C   UNL     1       5.106   5.458 -10.309  0.00  0.00    +0.057 C 
ATOM     15  C   UNL     1       5.678   6.601 -10.607  0.00  0.00    -0.004 C 
BRANCH  15  16
ATOM     16  C   UNL     1       7.113   6.768 -10.916  0.00  0.00    +0.099 C 
BRANCH  16  17
ATOM     17  N   UNL     1       7.535   6.040 -12.085  0.00  0.00    -0.267 NA
ATOM     18  C   UNL     1       8.964   5.827 -12.138  0.00  0.00    +0.090 C 
ATOM     19  C   UNL     1       7.001   6.565 -13.315  0.00  0.00    +0.090 C 
ENDBRANCH  16  17
ENDBRANCH  15  16
ENDBRANCH  12  14
ENDBRANCH   2  11
BRANCH   8  20
ATOM     20  C   UNL     1       0.813   5.853  -1.819  0.00  0.00    +0.103 C 
ATOM     21  N   UNL     1       0.607   6.434  -0.835  0.00  0.00    -0.191 NA
ENDBRANCH   8  20
BRANCH   1  22
ATOM     22  O   UNL     1       1.300   6.956  -9.254  0.00  0.00    -0.474 OA
BRANCH  22  24
ATOM     23  C   UNL     1      -0.293   7.050 -11.078  0.00  0.00    +0.051 C 
ATOM     24  C   UNL     1       0.889   6.330 -10.452  0.00  0.00    +0.206 C 
ENDBRANCH  22  24
ENDBRANCH   1  22
BRANCH   9  25
ATOM     25  N   UNL     1       3.053   5.137  -3.460  0.00  0.00    -0.212 NA
BRANCH  25  26
ATOM     26  C   UNL     1       3.744   6.186  -2.824  0.00  0.00    +0.072 A 
ATOM     27  C   UNL     1       4.035   6.002  -1.476  0.00  0.00    +0.031 A 
ATOM     28  C   UNL     1       4.328   7.052  -0.642  0.00  0.00    +0.093 A 
ATOM     29 CL   UNL     1       5.240   6.763   0.821  0.00  0.00    -0.079 Cl
ATOM     30  C   UNL     1       4.047   8.339  -1.030  0.00  0.00    +0.150 A 
ATOM     31  C   UNL     1       3.579   8.558  -2.319  0.00  0.00    +0.039 A 
ATOM     32  C   UNL     1       3.447   7.497  -3.181  0.00  0.00    +0.020 A 
BRANCH  30  33
ATOM     33  O   UNL     1       3.892   9.281  -0.014  0.00  0.00    -0.468 OA
BRANCH  33  34
ATOM     34  C   UNL     1       2.792  10.155   0.070  0.00  0.00    +0.251 C 
BRANCH  34  35
ATOM     35  C   UNL     1       1.836   9.633   1.077  0.00  0.00    +0.103 A 
ATOM     36  N   UNL     1       0.522   9.917   0.976  0.00  0.00    -0.244 NA
ATOM     37  C   UNL     1      -0.443   9.076   1.404  0.00  0.00    +0.099 A 
ATOM     38  C   UNL     1      -0.066   8.109   2.305  0.00  0.00    +0.021 A 
ATOM     39  C   UNL     1       1.222   8.073   2.810  0.00  0.00    +0.003 A 
ATOM     40  C   UNL     1       2.189   8.735   2.065  0.00  0.00    +0.018 A 
ENDBRANCH  34  35
ENDBRANCH  33  34
ENDBRANCH  30  33
ENDBRANCH  25  26
ENDBRANCH   9  25
TORSDOF 12
ENDMDL
MODEL 7
REMARK VINA RESULT:      -7.6      3.294      5.935
REMARK  Name = 
REMARK  12 active torsions:
REMARK  status: ('A' for Active; 'I' for Inactive)
REMARK    1  A    between atoms: C_2  and  O_3
REMARK    2  A    between atoms: O_3  and  C_4
REMARK    3  A    between atoms: C_9  and  C_10
REMARK    4  A    between atoms: C_12  and  N_13
REMARK    5  A    between atoms: N_13  and  C_14
REMARK    6  A    between atoms: C_17  and  O_18
REMARK    7  A    between atoms: O_18  and  C_19
REMARK    8  A    between atoms: C_19  and  C_20
REMARK    9  A    between atoms: C_31  and  N_32
REMARK   10  A    between atoms: C_33  and  C_35
REMARK   11  A    between atoms: C_36  and  C_37
REMARK   12  A    between atoms: C_37  and  N_38
REMARK                            x       y       z     vdW  Elec       q    Type
REMARK                         _______ _______ _______ _____ _____    ______ ____
ROOT
ATOM      1  C   UNL     1       3.904   6.037 -11.496  0.00  0.00    +0.155 A 
ATOM      2  C   UNL     1       2.621   5.560 -11.344  0.00  0.00    +0.108 A 
ATOM      3  C   UNL     1       2.066   5.412 -10.080  0.00  0.00    +0.023 A 
ATOM      4  C   UNL     1       2.704   5.904  -8.948  0.00  0.00    +0.035 A 
ATOM      5  C   UNL     1       4.032   6.271  -9.130  0.00  0.00    +0.086 A 
ATOM      6  N   UNL     1       4.843   6.435  -8.073  0.00  0.00    -0.243 NA
ATOM      7  C   UNL     1       4.461   5.973  -6.869  0.00  0.00    +0.110 A 
ATOM      8  C   UNL     1       3.232   5.381  -6.657  0.00  0.00    +0.103 A 
ATOM      9  C   UNL     1       2.294   5.548  -7.668  0.00  0.00    +0.083 A 
ATOM     10  C   UNL     1       4.528   6.553 -10.390  0.00  0.00    +0.057 A 
ENDROOT
BRANCH   2  11
ATOM     11  N   UNL     1       1.818   5.307 -12.503  0.00  0.00    -0.172 NA
ATOM     12  C   UNL     1       1.267   6.399 -13.243  0.00  0.00    +0.269 C 
ATOM     13  O   UNL     1       0.879   7.400 -12.573  0.00  0.00    -0.268 OA
BRANCH  12  14
ATOM     14  C   UNL     1       0.698   6.247 -14.566  0.00  0.00    +0.057 C 
ATOM     15  C   UNL     1       0.126   7.206 -15.256  0.00  0.00    -0.004 C 
BRANCH  15  16
ATOM     16  C   UNL     1       0.331   7.439 -16.700  0.00  0.00    +0.099 C 
BRANCH  16  17
ATOM     17  N   UNL     1       1.198   8.553 -16.983  0.00  0.00    -0.267 NA
ATOM     18  C   UNL     1       1.104   9.612 -16.002  0.00  0.00    +0.090 C 
ATOM     19  C   UNL     1       1.098   9.033 -18.337  0.00  0.00    +0.090 C 
ENDBRANCH  16  17
ENDBRANCH  15  16
ENDBRANCH  12  14
ENDBRANCH   2  11
BRANCH   8  20
ATOM     20  C   UNL     1       2.959   4.589  -5.480  0.00  0.00    +0.103 C 
ATOM     21  N   UNL     1       2.572   4.377  -4.406  0.00  0.00    -0.191 NA
ENDBRANCH   8  20
BRANCH   1  22
ATOM     22  O   UNL     1       4.515   5.896 -12.732  0.00  0.00    -0.474 OA
BRANCH  22  24
ATOM     23  C   UNL     1       6.829   5.431 -13.282  0.00  0.00    +0.051 C 
ATOM     24  C   UNL     1       5.756   6.484 -13.067  0.00  0.00    +0.206 C 
ENDBRANCH  22  24
ENDBRANCH   1  22
BRANCH   9  25
ATOM     25  N   UNL     1       1.014   4.979  -7.550  0.00  0.00    -0.212 NA
BRANCH  25  26
ATOM     26  C   UNL     1      -0.159   5.644  -7.143  0.00  0.00    +0.072 A 
ATOM     27  C   UNL     1      -0.043   6.468  -6.029  0.00  0.00    +0.031 A 
ATOM     28  C   UNL     1      -1.132   6.852  -5.288  0.00  0.00    +0.093 A 
ATOM     29 CL   UNL     1      -1.046   8.302  -4.314  0.00  0.00    -0.079 Cl
ATOM     30  C   UNL     1      -2.330   6.195  -5.432  0.00  0.00    +0.150 A 
ATOM     31  C   UNL     1      -2.442   5.227  -6.422  0.00  0.00    +0.039 A 
ATOM     32  C   UNL     1      -1.376   4.979  -7.251  0.00  0.00    +0.020 A 
BRANCH  30  33
ATOM     33  O   UNL     1      -3.218   6.268  -4.361  0.00  0.00    -0.468 OA
BRANCH  33  34
ATOM     34  C   UNL     1      -3.305   5.285  -3.358  0.00  0.00    +0.251 C 
BRANCH  34  35
ATOM     35  C   UNL     1      -2.448   5.685  -2.215  0.00  0.00    +0.103 A 
ATOM     36  N   UNL     1      -1.310   5.011  -1.952  0.00  0.00    -0.244 NA
ATOM     37  C   UNL     1      -0.225   5.595  -1.401  0.00  0.00    +0.099 A 
ATOM     38  C   UNL     1      -0.429   6.785  -0.744  0.00  0.00    +0.021 A 
ATOM     39  C   UNL     1      -1.704   7.297  -0.583  0.00  0.00    +0.003 A 
ATOM     40  C   UNL     1      -2.670   6.820  -1.460  0.00  0.00    +0.018 A 
ENDBRANCH  34  35
ENDBRANCH  33  34
ENDBRANCH  30  33
ENDBRANCH  25  26
ENDBRANCH   9  25
TORSDOF 12
ENDMDL
MODEL 8
REMARK VINA RESULT:      -7.6      2.338      2.916
REMARK  Name = 
REMARK  12 active torsions:
REMARK  status: ('A' for Active; 'I' for Inactive)
REMARK    1  A    between atoms: C_2  and  O_3
REMARK    2  A    between atoms: O_3  and  C_4
REMARK    3  A    between atoms: C_9  and  C_10
REMARK    4  A    between atoms: C_12  and  N_13
REMARK    5  A    between atoms: N_13  and  C_14
REMARK    6  A    between atoms: C_17  and  O_18
REMARK    7  A    between atoms: O_18  and  C_19
REMARK    8  A    between atoms: C_19  and  C_20
REMARK    9  A    between atoms: C_31  and  N_32
REMARK   10  A    between atoms: C_33  and  C_35
REMARK   11  A    between atoms: C_36  and  C_37
REMARK   12  A    between atoms: C_37  and  N_38
REMARK                            x       y       z     vdW  Elec       q    Type
REMARK                         _______ _______ _______ _____ _____    ______ ____
ROOT
ATOM      1  C   UNL     1       1.251   6.169  -7.883  0.00  0.00    +0.155 A 
ATOM      2  C   UNL     1       2.504   6.008  -7.333  0.00  0.00    +0.108 A 
ATOM      3  C   UNL     1       2.652   5.651  -6.000  0.00  0.00    +0.023 A 
ATOM      4  C   UNL     1       1.561   5.268  -5.229  0.00  0.00    +0.035 A 
ATOM      5  C   UNL     1       0.318   5.550  -5.782  0.00  0.00    +0.086 A 
ATOM      6  N   UNL     1      -0.784   5.545  -5.015  0.00  0.00    -0.243 NA
ATOM      7  C   UNL     1      -0.658   5.551  -3.675  0.00  0.00    +0.110 A 
ATOM      8  C   UNL     1       0.570   5.502  -3.046  0.00  0.00    +0.103 A 
ATOM      9  C   UNL     1       1.651   5.152  -3.845  0.00  0.00    +0.083 A 
ATOM     10  C   UNL     1       0.173   5.764  -7.140  0.00  0.00    +0.057 A 
ENDROOT
BRANCH   2  11
ATOM     11  N   UNL     1       3.662   6.115  -8.169  0.00  0.00    -0.172 NA
ATOM     12  C   UNL     1       3.941   5.102  -9.139  0.00  0.00    +0.269 C 
ATOM     13  O   UNL     1       3.669   3.911  -8.809  0.00  0.00    -0.268 OA
BRANCH  12  14
ATOM     14  C   UNL     1       4.909   5.274 -10.201  0.00  0.00    +0.057 C 
ATOM     15  C   UNL     1       5.854   6.183 -10.221  0.00  0.00    -0.004 C 
BRANCH  15  16
ATOM     16  C   UNL     1       7.248   5.939 -10.645  0.00  0.00    +0.099 C 
BRANCH  16  17
ATOM     17  N   UNL     1       7.585   6.570 -11.894  0.00  0.00    -0.267 NA
ATOM     18  C   UNL     1       6.682   7.639 -12.254  0.00  0.00    +0.090 C 
ATOM     19  C   UNL     1       7.808   5.638 -12.970  0.00  0.00    +0.090 C 
ENDBRANCH  16  17
ENDBRANCH  15  16
ENDBRANCH  12  14
ENDBRANCH   2  11
BRANCH   8  20
ATOM     20  C   UNL     1       0.727   5.851  -1.653  0.00  0.00    +0.103 C 
ATOM     21  N   UNL     1       0.382   6.135  -0.582  0.00  0.00    -0.191 NA
ENDBRANCH   8  20
BRANCH   1  22
ATOM     22  O   UNL     1       1.150   6.800  -9.112  0.00  0.00    -0.474 OA
BRANCH  22  24
ATOM     23  C   UNL     1      -0.142   7.205 -11.122  0.00  0.00    +0.051 C 
ATOM     24  C   UNL     1       0.596   6.194 -10.263  0.00  0.00    +0.206 C 
ENDBRANCH  22  24
ENDBRANCH   1  22
BRANCH   9  25
ATOM     25  N   UNL     1       2.944   5.080  -3.301  0.00  0.00    -0.212 NA
BRANCH  25  26
ATOM     26  C   UNL     1       3.665   6.142  -2.722  0.00  0.00    +0.072 A 
ATOM     27  C   UNL     1       3.921   6.041  -1.359  0.00  0.00    +0.031 A 
ATOM     28  C   UNL     1       4.240   7.133  -0.592  0.00  0.00    +0.093 A 
ATOM     29 CL   UNL     1       5.111   6.910   0.908  0.00  0.00    -0.079 Cl
ATOM     30  C   UNL     1       4.019   8.401  -1.072  0.00  0.00    +0.150 A 
ATOM     31  C   UNL     1       3.586   8.548  -2.384  0.00  0.00    +0.039 A 
ATOM     32  C   UNL     1       3.428   7.437  -3.174  0.00  0.00    +0.020 A 
BRANCH  30  33
ATOM     33  O   UNL     1       3.882   9.416  -0.127  0.00  0.00    -0.468 OA
BRANCH  33  34
ATOM     34  C   UNL     1       3.368  10.690  -0.428  0.00  0.00    +0.251 C 
BRANCH  34  35
ATOM     35  C   UNL     1       4.215  11.719   0.220  0.00  0.00    +0.103 A 
ATOM     36  N   UNL     1       4.780  11.476   1.420  0.00  0.00    -0.244 NA
ATOM     37  C   UNL     1       5.964  12.007   1.793  0.00  0.00    +0.099 A 
ATOM     38  C   UNL     1       6.392  13.113   1.099  0.00  0.00    +0.021 A 
ATOM     39  C   UNL     1       5.593  13.697   0.132  0.00  0.00    +0.003 A 
ATOM     40  C   UNL     1       4.592  12.894  -0.400  0.00  0.00    +0.018 A 
ENDBRANCH  34  35
ENDBRANCH  33  34
ENDBRANCH  30  33
ENDBRANCH  25  26
ENDBRANCH   9  25
TORSDOF 12
ENDMDL
MODEL 9
REMARK VINA RESULT:      -7.6      3.550      8.956
REMARK  Name = 
REMARK  12 active torsions:
REMARK  status: ('A' for Active; 'I' for Inactive)
REMARK    1  A    between atoms: C_2  and  O_3
REMARK    2  A    between atoms: O_3  and  C_4
REMARK    3  A    between atoms: C_9  and  C_10
REMARK    4  A    between atoms: C_12  and  N_13
REMARK    5  A    between atoms: N_13  and  C_14
REMARK    6  A    between atoms: C_17  and  O_18
REMARK    7  A    between atoms: O_18  and  C_19
REMARK    8  A    between atoms: C_19  and  C_20
REMARK    9  A    between atoms: C_31  and  N_32
REMARK   10  A    between atoms: C_33  and  C_35
REMARK   11  A    between atoms: C_36  and  C_37
REMARK   12  A    between atoms: C_37  and  N_38
REMARK                            x       y       z     vdW  Elec       q    Type
REMARK                         _______ _______ _______ _____ _____    ______ ____
ROOT
ATOM      1  C   UNL     1       2.054   9.832   1.011  0.00  0.00    +0.155 A 
ATOM      2  C   UNL     1       1.906   8.602   0.410  0.00  0.00    +0.108 A 
ATOM      3  C   UNL     1       0.698   7.921   0.478  0.00  0.00    +0.023 A 
ATOM      4  C   UNL     1      -0.445   8.526   0.987  0.00  0.00    +0.035 A 
ATOM      5  C   UNL     1      -0.229   9.711   1.678  0.00  0.00    +0.086 A 
ATOM      6  N   UNL     1      -1.176  10.207   2.491  0.00  0.00    -0.243 NA
ATOM      7  C   UNL     1      -2.206   9.424   2.860  0.00  0.00    +0.110 A 
ATOM      8  C   UNL     1      -2.367   8.137   2.386  0.00  0.00    +0.103 A 
ATOM      9  C   UNL     1      -1.585   7.789   1.292  0.00  0.00    +0.083 A 
ATOM     10  C   UNL     1       0.925  10.448   1.487  0.00  0.00    +0.057 A 
ENDROOT
BRANCH   2  11
ATOM     11  N   UNL     1       2.978   8.064  -0.373  0.00  0.00    -0.172 NA
ATOM     12  C   UNL     1       3.669   6.893   0.070  0.00  0.00    +0.269 C 
ATOM     13  O   UNL     1       3.854   6.781   1.317  0.00  0.00    -0.268 OA
BRANCH  12  14
ATOM     14  C   UNL     1       4.552   6.129  -0.785  0.00  0.00    +0.057 C 
ATOM     15  C   UNL     1       4.163   5.348  -1.766  0.00  0.00    -0.004 C 
BRANCH  15  16
ATOM     16  C   UNL     1       4.809   5.278  -3.092  0.00  0.00    +0.099 C 
BRANCH  16  17
ATOM     17  N   UNL     1       4.038   5.901  -4.137  0.00  0.00    -0.267 NA
ATOM     18  C   UNL     1       3.903   5.074  -5.316  0.00  0.00    +0.090 C 
ATOM     19  C   UNL     1       4.458   7.245  -4.441  0.00  0.00    +0.090 C 
ENDBRANCH  16  17
ENDBRANCH  15  16
ENDBRANCH  12  14
ENDBRANCH   2  11
BRANCH   8  20
ATOM     20  C   UNL     1      -3.253   7.194   3.028  0.00  0.00    +0.103 C 
ATOM     21  N   UNL     1      -4.252   6.807   3.476  0.00  0.00    -0.191 NA
ENDBRANCH   8  20
BRANCH   1  22
ATOM     22  O   UNL     1       3.335  10.336   1.170  0.00  0.00    -0.474 OA
BRANCH  22  24
ATOM     23  C   UNL     1       3.577  11.744  -0.788  0.00  0.00    +0.051 C 
ATOM     24  C   UNL     1       3.739  11.613   0.716  0.00  0.00    +0.206 C 
ENDBRANCH  22  24
ENDBRANCH   1  22
BRANCH   9  25
ATOM     25  N   UNL     1      -1.670   6.499   0.740  0.00  0.00    -0.212 NA
BRANCH  25  26
ATOM     26  C   UNL     1      -1.775   6.185  -0.628  0.00  0.00    +0.072 A 
ATOM     27  C   UNL     1      -0.599   5.794  -1.261  0.00  0.00    +0.031 A 
ATOM     28  C   UNL     1      -0.452   5.845  -2.625  0.00  0.00    +0.093 A 
ATOM     29 CL   UNL     1       0.741   4.831  -3.402  0.00  0.00    -0.079 Cl
ATOM     30  C   UNL     1      -1.338   6.567  -3.387  0.00  0.00    +0.150 A 
ATOM     31  C   UNL     1      -2.443   7.134  -2.764  0.00  0.00    +0.039 A 
ATOM     32  C   UNL     1      -2.643   6.928  -1.422  0.00  0.00    +0.020 A 
BRANCH  30  33
ATOM     33  O   UNL     1      -0.889   6.994  -4.635  0.00  0.00    -0.468 OA
BRANCH  33  34
ATOM     34  C   UNL     1      -1.125   6.284  -5.827  0.00  0.00    +0.251 C 
BRANCH  34  35
ATOM     35  C   UNL     1       0.097   6.332  -6.667  0.00  0.00    +0.103 A 
ATOM     36  N   UNL     1       0.177   5.592  -7.791  0.00  0.00    -0.244 NA
ATOM     37  C   UNL     1       0.885   5.979  -8.874  0.00  0.00    +0.099 A 
ATOM     38  C   UNL     1       1.846   6.941  -8.673  0.00  0.00    +0.021 A 
ATOM     39  C   UNL     1       2.126   7.409  -7.401  0.00  0.00    +0.003 A 
ATOM     40  C   UNL     1       1.136   7.214  -6.447  0.00  0.00    +0.018 A 
ENDBRANCH  34  35
ENDBRANCH  33  34
ENDBRANCH  30  33
ENDBRANCH  25  26
ENDBRANCH   9  25
TORSDOF 12
ENDMDL
