MODEL 1
REMARK VINA RESULT:      -7.1      0.000      0.000
REMARK  Name = 
REMARK  6 active torsions:
REMARK  status: ('A' for Active; 'I' for Inactive)
REMARK    1  A    between atoms: C_6  and  C_7
REMARK    2  A    between atoms: C_7  and  O_8
REMARK    3  A    between atoms: O_8  and  C_9
REMARK    4  A    between atoms: C_9  and  C_10
REMARK    5  A    between atoms: C_9  and  C_16
REMARK    6  A    between atoms: C_10  and  N_11
REMARK                            x       y       z     vdW  Elec       q    Type
REMARK                         _______ _______ _______ _____ _____    ______ ____
ROOT
ATOM      1  C   UNL     1      -0.109   5.967  -5.226  0.00  0.00    +0.161 C 
ENDROOT
BRANCH   1   2
ATOM      2  C   UNL     1       1.163   6.769  -4.605  0.00  0.00    +0.017 A 
ATOM      3  C   UNL     1       1.806   6.192  -3.552  0.00  0.00    +0.057 A 
ATOM      4 CL   UNL     1       0.969   5.213  -2.399  0.00  0.00    -0.082 Cl
ATOM      5  C   UNL     1       3.111   6.599  -3.301  0.00  0.00    +0.023 A 
ATOM      6  C   UNL     1       3.936   6.908  -4.375  0.00  0.00    +0.058 A 
ATOM      7 CL   UNL     1       5.459   7.765  -4.150  0.00  0.00    -0.082 Cl
ATOM      8  C   UNL     1       3.375   6.831  -5.643  0.00  0.00    +0.011 A 
ATOM      9  C   UNL     1       1.993   6.923  -5.722  0.00  0.00    -0.000 A 
ENDBRANCH   1   2
BRANCH   1  10
ATOM     10  O   UNL     1       0.233   6.379  -6.653  0.00  0.00    -0.345 OA
BRANCH  10  11
ATOM     11  C   UNL     1      -0.366   5.469  -7.484  0.00  0.00    +0.170 C 
BRANCH  11  14
ATOM     12 CL   UNL     1       2.412   3.870  -7.688  0.00  0.00    -0.075 Cl
ATOM     13  C   UNL     1       1.687   4.917  -8.867  0.00  0.00    +0.085 A 
ATOM     14  C   UNL     1       0.405   5.445  -8.767  0.00  0.00    +0.024 A 
ATOM     15  C   UNL     1      -0.067   5.858  -9.978  0.00  0.00    +0.006 A 
ATOM     16  C   UNL     1       0.862   6.546 -10.717  0.00  0.00    +0.036 A 
ATOM     17  S   UNL     1       2.305   5.751 -10.232  0.00  0.00    -0.075 S 
ENDBRANCH  11  14
ENDBRANCH  10  11
ENDBRANCH   1  10
BRANCH   1  18
ATOM     18  C   UNL     1      -1.214   7.192  -5.068  0.00  0.00    +0.142 C 
BRANCH  18  19
ATOM     19  N   UNL     1      -1.982   6.586  -3.974  0.00  0.00    -0.305 N 
ATOM     20  C   UNL     1      -2.352   5.295  -3.890  0.00  0.00    +0.179 A 
ATOM     21  N   UNL     1      -2.696   4.998  -2.612  0.00  0.00    -0.222 NA
ATOM     22  C   UNL     1      -2.806   6.163  -1.928  0.00  0.00    +0.119 A 
ATOM     23  C   UNL     1      -2.093   7.065  -2.710  0.00  0.00    +0.098 A 
ENDBRANCH  18  19
ENDBRANCH   1  18
TORSDOF 6
ENDMDL
MODEL 2
REMARK VINA RESULT:      -6.9      4.315      7.052
REMARK  Name = 
REMARK  6 active torsions:
REMARK  status: ('A' for Active; 'I' for Inactive)
REMARK    1  A    between atoms: C_6  and  C_7
REMARK    2  A    between atoms: C_7  and  O_8
REMARK    3  A    between atoms: O_8  and  C_9
REMARK    4  A    between atoms: C_9  and  C_10
REMARK    5  A    between atoms: C_9  and  C_16
REMARK    6  A    between atoms: C_10  and  N_11
REMARK                            x       y       z     vdW  Elec       q    Type
REMARK                         _______ _______ _______ _____ _____    ______ ____
ROOT
ATOM      1  C   UNL     1       3.644   5.962  -9.164  0.00  0.00    +0.161 C 
ENDROOT
BRANCH   1   2
ATOM      2  C   UNL     1       4.874   5.387 -10.062  0.00  0.00    +0.017 A 
ATOM      3  C   UNL     1       4.942   5.800 -11.357  0.00  0.00    +0.057 A 
ATOM      4 CL   UNL     1       3.523   6.167 -12.273  0.00  0.00    -0.082 Cl
ATOM      5  C   UNL     1       6.174   5.701 -11.994  0.00  0.00    +0.023 A 
ATOM      6  C   UNL     1       7.330   5.929 -11.259  0.00  0.00    +0.058 A 
ATOM      7 CL   UNL     1       8.918   5.478 -11.875  0.00  0.00    -0.082 Cl
ATOM      8  C   UNL     1       7.173   6.201  -9.905  0.00  0.00    +0.011 A 
ATOM      9  C   UNL     1       5.994   5.771  -9.314  0.00  0.00    -0.000 A 
ENDBRANCH   1   2
BRANCH   1  10
ATOM     10  O   UNL     1       4.330   5.592  -7.854  0.00  0.00    -0.345 OA
BRANCH  10  11
ATOM     11  C   UNL     1       3.351   5.149  -7.004  0.00  0.00    +0.170 C 
BRANCH  11  14
ATOM     12 CL   UNL     1       1.143   4.923  -4.683  0.00  0.00    -0.075 Cl
ATOM     13  C   UNL     1       2.606   5.856  -4.686  0.00  0.00    +0.085 A 
ATOM     14  C   UNL     1       3.589   5.774  -5.665  0.00  0.00    +0.024 A 
ATOM     15  C   UNL     1       4.783   6.263  -5.224  0.00  0.00    +0.006 A 
ATOM     16  C   UNL     1       4.664   7.435  -4.521  0.00  0.00    +0.036 A 
ATOM     17  S   UNL     1       3.144   7.194  -3.758  0.00  0.00    -0.075 S 
ENDBRANCH  11  14
ENDBRANCH  10  11
ENDBRANCH   1  10
BRANCH   1  18
ATOM     18  C   UNL     1       2.737   4.576  -9.156  0.00  0.00    +0.142 C 
BRANCH  18  19
ATOM     19  N   UNL     1       1.522   5.166  -9.730  0.00  0.00    -0.305 N 
ATOM     20  C   UNL     1       1.182   6.468  -9.691  0.00  0.00    +0.179 A 
ATOM     21  N   UNL     1       0.230   6.723 -10.622  0.00  0.00    -0.222 NA
ATOM     22  C   UNL     1      -0.237   5.535 -11.077  0.00  0.00    +0.119 A 
ATOM     23  C   UNL     1       0.764   4.637 -10.722  0.00  0.00    +0.098 A 
ENDBRANCH  18  19
ENDBRANCH   1  18
TORSDOF 6
ENDMDL
MODEL 3
REMARK VINA RESULT:      -6.9      1.511      1.983
REMARK  Name = 
REMARK  6 active torsions:
REMARK  status: ('A' for Active; 'I' for Inactive)
REMARK    1  A    between atoms: C_6  and  C_7
REMARK    2  A    between atoms: C_7  and  O_8
REMARK    3  A    between atoms: O_8  and  C_9
REMARK    4  A    between atoms: C_9  and  C_10
REMARK    5  A    between atoms: C_9  and  C_16
REMARK    6  A    between atoms: C_10  and  N_11
REMARK                            x       y       z     vdW  Elec       q    Type
REMARK                         _______ _______ _______ _____ _____    ______ ____
ROOT
ATOM      1  C   UNL     1       0.274   5.528  -5.405  0.00  0.00    +0.161 C 
ENDROOT
BRANCH   1   2
ATOM      2  C   UNL     1       1.772   5.471  -4.771  0.00  0.00    +0.017 A 
ATOM      3  C   UNL     1       2.726   4.822  -5.492  0.00  0.00    +0.057 A 
ATOM      4 CL   UNL     1       2.345   3.471  -6.501  0.00  0.00    -0.082 Cl
ATOM      5  C   UNL     1       4.053   5.133  -5.219  0.00  0.00    +0.023 A 
ATOM      6  C   UNL     1       4.381   6.439  -4.881  0.00  0.00    +0.058 A 
ATOM      7 CL   UNL     1       5.944   6.844  -4.177  0.00  0.00    -0.082 Cl
ATOM      8  C   UNL     1       3.336   7.350  -4.796  0.00  0.00    +0.011 A 
ATOM      9  C   UNL     1       2.068   6.827  -4.584  0.00  0.00    -0.000 A 
ENDBRANCH   1   2
BRANCH   1  10
ATOM     10  O   UNL     1       0.695   6.499  -6.503  0.00  0.00    -0.345 OA
BRANCH  10  11
ATOM     11  C   UNL     1       0.266   5.968  -7.690  0.00  0.00    +0.170 C 
BRANCH  11  14
ATOM     12 CL   UNL     1       0.093   4.543 -10.563  0.00  0.00    -0.075 Cl
ATOM     13  C   UNL     1       1.423   5.423  -9.880  0.00  0.00    +0.085 A 
ATOM     14  C   UNL     1       1.361   6.146  -8.694  0.00  0.00    +0.024 A 
ATOM     15  C   UNL     1       2.366   7.065  -8.610  0.00  0.00    +0.006 A 
ATOM     16  C   UNL     1       3.584   6.575  -9.009  0.00  0.00    +0.036 A 
ATOM     17  S   UNL     1       3.099   5.480 -10.240  0.00  0.00    -0.075 S 
ENDBRANCH  11  14
ENDBRANCH  10  11
ENDBRANCH   1  10
BRANCH   1  18
ATOM     18  C   UNL     1      -0.301   6.755  -4.451  0.00  0.00    +0.142 C 
BRANCH  18  19
ATOM     19  N   UNL     1      -1.387   5.989  -3.828  0.00  0.00    -0.305 N 
ATOM     20  C   UNL     1      -1.326   5.352  -2.644  0.00  0.00    +0.179 A 
ATOM     21  N   UNL     1      -2.580   5.086  -2.200  0.00  0.00    -0.222 NA
ATOM     22  C   UNL     1      -3.441   5.309  -3.223  0.00  0.00    +0.119 A 
ATOM     23  C   UNL     1      -2.712   6.119  -4.087  0.00  0.00    +0.098 A 
ENDBRANCH  18  19
ENDBRANCH   1  18
TORSDOF 6
ENDMDL
MODEL 4
REMARK VINA RESULT:      -6.8      3.583      6.591
REMARK  Name = 
REMARK  6 active torsions:
REMARK  status: ('A' for Active; 'I' for Inactive)
REMARK    1  A    between atoms: C_6  and  C_7
REMARK    2  A    between atoms: C_7  and  O_8
REMARK    3  A    between atoms: O_8  and  C_9
REMARK    4  A    between atoms: C_9  and  C_10
REMARK    5  A    between atoms: C_9  and  C_16
REMARK    6  A    between atoms: C_10  and  N_11
REMARK                            x       y       z     vdW  Elec       q    Type
REMARK                         _______ _______ _______ _____ _____    ______ ____
ROOT
ATOM      1  C   UNL     1       1.295   5.019  -5.118  0.00  0.00    +0.161 C 
ENDROOT
BRANCH   1   2
ATOM      2  C   UNL     1      -0.042   5.861  -4.726  0.00  0.00    +0.017 A 
ATOM      3  C   UNL     1      -1.164   5.617  -5.457  0.00  0.00    +0.057 A 
ATOM      4 CL   UNL     1      -1.087   5.167  -7.125  0.00  0.00    -0.082 Cl
ATOM      5  C   UNL     1      -2.384   5.960  -4.885  0.00  0.00    +0.023 A 
ATOM      6  C   UNL     1      -2.550   5.810  -3.515  0.00  0.00    +0.058 A 
ATOM      7 CL   UNL     1      -3.905   6.546  -2.664  0.00  0.00    -0.082 Cl
ATOM      8  C   UNL     1      -1.451   5.361  -2.793  0.00  0.00    +0.011 A 
ATOM      9  C   UNL     1      -0.204   5.550  -3.371  0.00  0.00    -0.000 A 
ENDBRANCH   1   2
BRANCH   1  10
ATOM     10  O   UNL     1       1.960   5.308  -3.777  0.00  0.00    -0.345 OA
BRANCH  10  11
ATOM     11  C   UNL     1       3.299   5.465  -4.022  0.00  0.00    +0.170 C 
BRANCH  11  14
ATOM     12 CL   UNL     1       3.960   4.282  -1.110  0.00  0.00    -0.075 Cl
ATOM     13  C   UNL     1       4.005   5.936  -1.632  0.00  0.00    +0.085 A 
ATOM     14  C   UNL     1       3.860   6.348  -2.952  0.00  0.00    +0.024 A 
ATOM     15  C   UNL     1       4.353   7.605  -3.146  0.00  0.00    +0.006 A 
ATOM     16  C   UNL     1       4.007   8.483  -2.150  0.00  0.00    +0.036 A 
ATOM     17  S   UNL     1       3.983   7.430  -0.793  0.00  0.00    -0.075 S 
ENDBRANCH  11  14
ENDBRANCH  10  11
ENDBRANCH   1  10
BRANCH   1  18
ATOM     18  C   UNL     1       2.103   6.259  -5.860  0.00  0.00    +0.142 C 
BRANCH  18  19
ATOM     19  N   UNL     1       2.446   5.527  -7.086  0.00  0.00    -0.305 N 
ATOM     20  C   UNL     1       3.374   5.891  -7.989  0.00  0.00    +0.179 A 
ATOM     21  N   UNL     1       3.700   4.829  -8.767  0.00  0.00    -0.222 NA
ATOM     22  C   UNL     1       2.788   3.852  -8.542  0.00  0.00    +0.119 A 
ATOM     23  C   UNL     1       2.226   4.210  -7.322  0.00  0.00    +0.098 A 
ENDBRANCH  18  19
ENDBRANCH   1  18
TORSDOF 6
ENDMDL
MODEL 5
REMARK VINA RESULT:      -6.8      4.469      6.372
REMARK  Name = 
REMARK  6 active torsions:
REMARK  status: ('A' for Active; 'I' for Inactive)
REMARK    1  A    between atoms: C_6  and  C_7
REMARK    2  A    between atoms: C_7  and  O_8
REMARK    3  A    between atoms: O_8  and  C_9
REMARK    4  A    between atoms: C_9  and  C_10
REMARK    5  A    between atoms: C_9  and  C_16
REMARK    6  A    between atoms: C_10  and  N_11
REMARK                            x       y       z     vdW  Elec       q    Type
REMARK                         _______ _______ _______ _____ _____    ______ ____
ROOT
ATOM      1  C   UNL     1       3.365   5.425 -10.204  0.00  0.00    +0.161 C 
ENDROOT
BRANCH   1   2
ATOM      2  C   UNL     1       4.849   6.025 -10.499  0.00  0.00    +0.017 A 
ATOM      3  C   UNL     1       5.867   5.575  -9.716  0.00  0.00    +0.057 A 
ATOM      4 CL   UNL     1       5.615   5.117  -8.068  0.00  0.00    -0.082 Cl
ATOM      5  C   UNL     1       7.159   5.708 -10.211  0.00  0.00    +0.023 A 
ATOM      6  C   UNL     1       7.375   5.554 -11.574  0.00  0.00    +0.058 A 
ATOM      7 CL   UNL     1       8.885   6.055 -12.330  0.00  0.00    -0.082 Cl
ATOM      8  C   UNL     1       6.259   5.319 -12.367  0.00  0.00    +0.011 A 
ATOM      9  C   UNL     1       5.032   5.714 -11.852  0.00  0.00    -0.000 A 
ENDBRANCH   1   2
BRANCH   1  10
ATOM     10  O   UNL     1       2.828   5.887 -11.554  0.00  0.00    -0.345 OA
BRANCH  10  11
ATOM     11  C   UNL     1       1.498   5.562 -11.586  0.00  0.00    +0.170 C 
BRANCH  11  14
ATOM     12 CL   UNL     1       0.934   3.781 -14.198  0.00  0.00    -0.075 Cl
ATOM     13  C   UNL     1       0.798   5.501 -14.022  0.00  0.00    +0.085 A 
ATOM     14  C   UNL     1       0.905   6.180 -12.813  0.00  0.00    +0.024 A 
ATOM     15  C   UNL     1       0.345   7.421 -12.879  0.00  0.00    +0.006 A 
ATOM     16  C   UNL     1       0.658   8.097 -14.032  0.00  0.00    +0.036 A 
ATOM     17  S   UNL     1       0.752   6.794 -15.148  0.00  0.00    -0.075 S 
ENDBRANCH  11  14
ENDBRANCH  10  11
ENDBRANCH   1  10
BRANCH   1  18
ATOM     18  C   UNL     1       2.759   6.760  -9.432  0.00  0.00    +0.142 C 
BRANCH  18  19
ATOM     19  N   UNL     1       2.323   6.067  -8.214  0.00  0.00    -0.305 N 
ATOM     20  C   UNL     1       2.084   4.747  -8.099  0.00  0.00    +0.179 A 
ATOM     21  N   UNL     1       2.079   4.393  -6.790  0.00  0.00    -0.222 NA
ATOM     22  C   UNL     1       2.047   5.529  -6.051  0.00  0.00    +0.119 A 
ATOM     23  C   UNL     1       2.481   6.506  -6.941  0.00  0.00    +0.098 A 
ENDBRANCH  18  19
ENDBRANCH   1  18
TORSDOF 6
ENDMDL
MODEL 6
REMARK VINA RESULT:      -6.6      2.683      4.759
REMARK  Name = 
REMARK  6 active torsions:
REMARK  status: ('A' for Active; 'I' for Inactive)
REMARK    1  A    between atoms: C_6  and  C_7
REMARK    2  A    between atoms: C_7  and  O_8
REMARK    3  A    between atoms: O_8  and  C_9
REMARK    4  A    between atoms: C_9  and  C_10
REMARK    5  A    between atoms: C_9  and  C_16
REMARK    6  A    between atoms: C_10  and  N_11
REMARK                            x       y       z     vdW  Elec       q    Type
REMARK                         _______ _______ _______ _____ _____    ______ ____
ROOT
ATOM      1  C   UNL     1       1.540   5.721  -6.362  0.00  0.00    +0.161 C 
ENDROOT
BRANCH   1   2
ATOM      2  C   UNL     1       0.354   5.236  -5.359  0.00  0.00    +0.017 A 
ATOM      3  C   UNL     1       0.236   5.896  -4.174  0.00  0.00    +0.057 A 
ATOM      4 CL   UNL     1       1.609   6.560  -3.360  0.00  0.00    -0.082 Cl
ATOM      5  C   UNL     1      -0.990   5.824  -3.524  0.00  0.00    +0.023 A 
ATOM      6  C   UNL     1      -2.153   5.798  -4.283  0.00  0.00    +0.058 A 
ATOM      7 CL   UNL     1      -3.704   5.348  -3.578  0.00  0.00    -0.082 Cl
ATOM      8  C   UNL     1      -2.005   5.803  -5.664  0.00  0.00    +0.011 A 
ATOM      9  C   UNL     1      -0.786   5.365  -6.163  0.00  0.00    -0.000 A 
ENDBRANCH   1   2
BRANCH   1  10
ATOM     10  O   UNL     1       0.814   5.196  -7.596  0.00  0.00    -0.345 OA
BRANCH  10  11
ATOM     11  C   UNL     1       1.770   4.689  -8.436  0.00  0.00    +0.170 C 
BRANCH  11  14
ATOM     12 CL   UNL     1       4.052   5.357 -10.595  0.00  0.00    -0.075 Cl
ATOM     13  C   UNL     1       2.334   5.540 -10.757  0.00  0.00    +0.085 A 
ATOM     14  C   UNL     1       1.403   5.077  -9.834  0.00  0.00    +0.024 A 
ATOM     15  C   UNL     1       0.161   4.960 -10.385  0.00  0.00    +0.006 A 
ATOM     16  C   UNL     1      -0.185   6.026 -11.176  0.00  0.00    +0.036 A 
ATOM     17  S   UNL     1       1.348   6.450 -11.824  0.00  0.00    -0.075 S 
ENDBRANCH  11  14
ENDBRANCH  10  11
ENDBRANCH   1  10
BRANCH   1  18
ATOM     18  C   UNL     1       2.469   4.354  -6.248  0.00  0.00    +0.142 C 
BRANCH  18  19
ATOM     19  N   UNL     1       3.617   4.985  -5.586  0.00  0.00    -0.305 N 
ATOM     20  C   UNL     1       4.097   6.217  -5.841  0.00  0.00    +0.179 A 
ATOM     21  N   UNL     1       4.887   6.623  -4.816  0.00  0.00    -0.222 NA
ATOM     22  C   UNL     1       5.133   5.549  -4.027  0.00  0.00    +0.119 A 
ATOM     23  C   UNL     1       4.122   4.659  -4.370  0.00  0.00    +0.098 A 
ENDBRANCH  18  19
ENDBRANCH   1  18
TORSDOF 6
ENDMDL
MODEL 7
REMARK VINA RESULT:      -6.5      3.300      6.236
REMARK  Name = 
REMARK  6 active torsions:
REMARK  status: ('A' for Active; 'I' for Inactive)
REMARK    1  A    between atoms: C_6  and  C_7
REMARK    2  A    between atoms: C_7  and  O_8
REMARK    3  A    between atoms: O_8  and  C_9
REMARK    4  A    between atoms: C_9  and  C_10
REMARK    5  A    between atoms: C_9  and  C_16
REMARK    6  A    between atoms: C_10  and  N_11
REMARK                            x       y       z     vdW  Elec       q    Type
REMARK                         _______ _______ _______ _____ _____    ______ ____
ROOT
ATOM      1  C   UNL     1       1.739   5.680  -6.756  0.00  0.00    +0.161 C 
ENDROOT
BRANCH   1   2
ATOM      2  C   UNL     1       1.803   6.058  -8.337  0.00  0.00    +0.017 A 
ATOM      3  C   UNL     1       2.751   5.430  -9.087  0.00  0.00    +0.057 A 
ATOM      4 CL   UNL     1       4.276   4.959  -8.421  0.00  0.00    -0.082 Cl
ATOM      5  C   UNL     1       2.549   5.383 -10.462  0.00  0.00    +0.023 A 
ATOM      6  C   UNL     1       1.254   5.247 -10.945  0.00  0.00    +0.058 A 
ATOM      7 CL   UNL     1       0.868   5.538 -12.639  0.00  0.00    -0.082 Cl
ATOM      8  C   UNL     1       0.231   5.211 -10.007  0.00  0.00    +0.011 A 
ATOM      9  C   UNL     1       0.501   5.770  -8.765  0.00  0.00    -0.000 A 
ENDBRANCH   1   2
BRANCH   1  10
ATOM     10  O   UNL     1       0.318   6.210  -6.610  0.00  0.00    -0.345 OA
BRANCH  10  11
ATOM     11  C   UNL     1       0.249   6.836  -5.393  0.00  0.00    +0.170 C 
BRANCH  11  14
ATOM     12 CL   UNL     1      -2.638   5.880  -6.425  0.00  0.00    -0.075 Cl
ATOM     13  C   UNL     1      -1.961   5.727  -4.834  0.00  0.00    +0.085 A 
ATOM     14  C   UNL     1      -0.642   6.022  -4.509  0.00  0.00    +0.024 A 
ATOM     15  C   UNL     1      -0.263   5.425  -3.343  0.00  0.00    +0.006 A 
ATOM     16  C   UNL     1      -1.211   5.514  -2.355  0.00  0.00    +0.036 A 
ATOM     17  S   UNL     1      -2.651   5.450  -3.289  0.00  0.00    -0.075 S 
ENDBRANCH  11  14
ENDBRANCH  10  11
ENDBRANCH   1  10
BRANCH   1  18
ATOM     18  C   UNL     1       2.395   7.090  -6.186  0.00  0.00    +0.142 C 
BRANCH  18  19
ATOM     19  N   UNL     1       3.511   6.475  -5.458  0.00  0.00    -0.305 N 
ATOM     20  C   UNL     1       4.513   7.134  -4.846  0.00  0.00    +0.179 A 
ATOM     21  N   UNL     1       5.136   6.309  -3.968  0.00  0.00    -0.222 NA
ATOM     22  C   UNL     1       4.711   5.045  -4.210  0.00  0.00    +0.119 A 
ATOM     23  C   UNL     1       3.530   5.232  -4.918  0.00  0.00    +0.098 A 
ENDBRANCH  18  19
ENDBRANCH   1  18
TORSDOF 6
ENDMDL
MODEL 8
REMARK VINA RESULT:      -6.5      4.462      6.982
REMARK  Name = 
REMARK  6 active torsions:
REMARK  status: ('A' for Active; 'I' for Inactive)
REMARK    1  A    between atoms: C_6  and  C_7
REMARK    2  A    between atoms: C_7  and  O_8
REMARK    3  A    between atoms: O_8  and  C_9
REMARK    4  A    between atoms: C_9  and  C_10
REMARK    5  A    between atoms: C_9  and  C_16
REMARK    6  A    between atoms: C_10  and  N_11
REMARK                            x       y       z     vdW  Elec       q    Type
REMARK                         _______ _______ _______ _____ _____    ______ ____
ROOT
ATOM      1  C   UNL     1       3.566   6.231 -10.012  0.00  0.00    +0.161 C 
ENDROOT
BRANCH   1   2
ATOM      2  C   UNL     1       4.943   5.607 -10.614  0.00  0.00    +0.017 A 
ATOM      3  C   UNL     1       5.122   5.684 -11.961  0.00  0.00    +0.057 A 
ATOM      4 CL   UNL     1       3.790   5.624 -13.063  0.00  0.00    -0.082 Cl
ATOM      5  C   UNL     1       6.424   5.583 -12.439  0.00  0.00    +0.023 A 
ATOM      6  C   UNL     1       7.457   6.134 -11.692  0.00  0.00    +0.058 A 
ATOM      7 CL   UNL     1       9.143   5.746 -12.025  0.00  0.00    -0.082 Cl
ATOM      8  C   UNL     1       7.117   6.717 -10.478  0.00  0.00    +0.011 A 
ATOM      9  C   UNL     1       5.924   6.306  -9.900  0.00  0.00    -0.000 A 
ENDBRANCH   1   2
BRANCH   1  10
ATOM     10  O   UNL     1       4.081   6.180  -8.579  0.00  0.00    -0.345 OA
BRANCH  10  11
ATOM     11  C   UNL     1       3.333   7.070  -7.854  0.00  0.00    +0.170 C 
BRANCH  11  14
ATOM     12 CL   UNL     1       4.416   5.256  -5.435  0.00  0.00    -0.075 Cl
ATOM     13  C   UNL     1       2.802   5.356  -6.063  0.00  0.00    +0.085 A 
ATOM     14  C   UNL     1       2.381   6.285  -7.007  0.00  0.00    +0.024 A 
ATOM     15  C   UNL     1       1.025   6.430  -7.004  0.00  0.00    +0.006 A 
ATOM     16  C   UNL     1       0.351   5.237  -6.922  0.00  0.00    +0.036 A 
ATOM     17  S   UNL     1       1.434   4.328  -5.947  0.00  0.00    -0.075 S 
ENDBRANCH  11  14
ENDBRANCH  10  11
ENDBRANCH   1  10
BRANCH   1  18
ATOM     18  C   UNL     1       2.755   4.797  -9.840  0.00  0.00    +0.142 C 
BRANCH  18  19
ATOM     19  N   UNL     1       1.539   5.204 -10.556  0.00  0.00    -0.305 N 
ATOM     20  C   UNL     1       0.466   4.427 -10.795  0.00  0.00    +0.179 A 
ATOM     21  N   UNL     1      -0.598   5.201 -11.120  0.00  0.00    -0.222 NA
ATOM     22  C   UNL     1      -0.145   6.457 -11.353  0.00  0.00    +0.119 A 
ATOM     23  C   UNL     1       1.096   6.474 -10.727  0.00  0.00    +0.098 A 
ENDBRANCH  18  19
ENDBRANCH   1  18
TORSDOF 6
ENDMDL
MODEL 9
REMARK VINA RESULT:      -6.5      3.501      5.660
REMARK  Name = 
REMARK  6 active torsions:
REMARK  status: ('A' for Active; 'I' for Inactive)
REMARK    1  A    between atoms: C_6  and  C_7
REMARK    2  A    between atoms: C_7  and  O_8
REMARK    3  A    between atoms: O_8  and  C_9
REMARK    4  A    between atoms: C_9  and  C_10
REMARK    5  A    between atoms: C_9  and  C_16
REMARK    6  A    between atoms: C_10  and  N_11
REMARK                            x       y       z     vdW  Elec       q    Type
REMARK                         _______ _______ _______ _____ _____    ______ ____
ROOT
ATOM      1  C   UNL     1       2.251   6.348  -4.469  0.00  0.00    +0.161 C 
ENDROOT
BRANCH   1   2
ATOM      2  C   UNL     1       3.309   6.208  -3.240  0.00  0.00    +0.017 A 
ATOM      3  C   UNL     1       4.282   7.156  -3.148  0.00  0.00    +0.057 A 
ATOM      4 CL   UNL     1       4.939   7.926  -4.550  0.00  0.00    -0.082 Cl
ATOM      5  C   UNL     1       4.893   7.324  -1.911  0.00  0.00    +0.023 A 
ATOM      6  C   UNL     1       4.132   7.172  -0.760  0.00  0.00    +0.058 A 
ATOM      7 CL   UNL     1       4.882   7.009   0.826  0.00  0.00    -0.082 Cl
ATOM      8  C   UNL     1       2.801   6.813  -0.927  0.00  0.00    +0.011 A 
ATOM      9  C   UNL     1       2.467   6.191  -2.122  0.00  0.00    -0.000 A 
ENDBRANCH   1   2
BRANCH   1  10
ATOM     10  O   UNL     1       1.394   5.195  -3.960  0.00  0.00    -0.345 OA
BRANCH  10  11
ATOM     11  C   UNL     1       0.285   5.139  -4.763  0.00  0.00    +0.170 C 
BRANCH  11  14
ATOM     12 CL   UNL     1      -2.464   5.972  -6.198  0.00  0.00    -0.075 Cl
ATOM     13  C   UNL     1      -2.042   6.115  -4.521  0.00  0.00    +0.085 A 
ATOM     14  C   UNL     1      -0.891   5.583  -3.952  0.00  0.00    +0.024 A 
ATOM     15  C   UNL     1      -1.008   5.458  -2.599  0.00  0.00    +0.006 A 
ATOM     16  C   UNL     1      -1.582   6.552  -2.001  0.00  0.00    +0.036 A 
ATOM     17  S   UNL     1      -2.675   7.048  -3.229  0.00  0.00    -0.075 S 
ENDBRANCH  11  14
ENDBRANCH  10  11
ENDBRANCH   1  10
BRANCH   1  18
ATOM     18  C   UNL     1       3.053   5.367  -5.536  0.00  0.00    +0.142 C 
BRANCH  18  19
ATOM     19  N   UNL     1       2.785   6.169  -6.736  0.00  0.00    -0.305 N 
ATOM     20  C   UNL     1       2.085   7.318  -6.778  0.00  0.00    +0.179 A 
ATOM     21  N   UNL     1       2.353   7.978  -7.932  0.00  0.00    -0.222 NA
ATOM     22  C   UNL     1       3.016   7.128  -8.754  0.00  0.00    +0.119 A 
ATOM     23  C   UNL     1       3.500   6.154  -7.888  0.00  0.00    +0.098 A 
ENDBRANCH  18  19
ENDBRANCH   1  18
TORSDOF 6
ENDMDL
