MODEL 1
REMARK VINA RESULT:      -6.8      0.000      0.000
REMARK  Name = 
REMARK  7 active torsions:
REMARK  status: ('A' for Active; 'I' for Inactive)
REMARK    1  A    between atoms: C_2  and  N_3
REMARK    2  A    between atoms: N_3  and  C_4
REMARK    3  A    between atoms: N_3  and  C_6
REMARK    4  A    between atoms: C_6  and  C_7
REMARK    5  A    between atoms: C_7  and  S_8
REMARK    6  A    between atoms: S_8  and  C_11
REMARK    7  A    between atoms: C_41  and  C_42
REMARK                            x       y       z     vdW  Elec       q    Type
REMARK                         _______ _______ _______ _____ _____    ______ ____
ROOT
ATOM      1  C   UNL     1       2.163   6.924  -9.323  0.00  0.00    +0.160 C 
ATOM      2  C   UNL     1       2.029   6.819  -7.631  0.00  0.00    +0.197 C 
ATOM      3  N   UNL     1       3.147   5.727  -7.498  0.00  0.00    -0.265 N 
ATOM      4  C   UNL     1       4.249   6.085  -6.620  0.00  0.00    +0.270 C 
ATOM      5  C   UNL     1       4.174   7.028  -5.553  0.00  0.00    +0.175 A 
ATOM      6  N   UNL     1       2.940   7.280  -5.185  0.00  0.00    -0.207 NA
ATOM      7  C   UNL     1       3.080   7.022  -3.846  0.00  0.00    +0.213 A 
ATOM      8  C   UNL     1       2.790   5.653  -3.289  0.00  0.00    +0.150 C 
ATOM      9  C   UNL     1       3.048   5.589  -1.848  0.00  0.00    +0.163 C 
ATOM     10  C   UNL     1       2.508   4.692  -0.826  0.00  0.00    +0.102 C 
ATOM     11  C   UNL     1       0.866   4.831  -0.841  0.00  0.00    +0.181 C 
ATOM     12  C   UNL     1       0.948   6.448  -1.064  0.00  0.00    +0.002 C 
ATOM     13  C   UNL     1       0.567   6.949   0.120  0.00  0.00    -0.024 C 
ATOM     14  C   UNL     1      -0.768   6.438   0.494  0.00  0.00    -0.007 C 
ATOM     15  C   UNL     1      -1.418   5.961  -0.591  0.00  0.00    -0.003 C 
ATOM     16  C   UNL     1      -1.488   6.931  -1.568  0.00  0.00    +0.142 C 
ATOM     17  N   UNL     1      -2.331   7.406  -2.523  0.00  0.00    -0.197 NA
ATOM     18  C   UNL     1      -3.442   6.692  -3.034  0.00  0.00    +0.265 C 
ATOM     19  C   UNL     1      -2.855   5.496  -3.663  0.00  0.00    +0.055 C 
ATOM     20  C   UNL     1      -1.548   5.753  -3.867  0.00  0.00    -0.018 C 
ATOM     21  C   UNL     1      -1.469   6.874  -4.989  0.00  0.00    +0.062 C 
ATOM     22  C   UNL     1      -0.158   5.959  -5.659  0.00  0.00    +0.173 C 
ATOM     23  O   UNL     1      -0.264   6.655  -6.995  0.00  0.00    -0.451 OA
ATOM     24  C   UNL     1      -0.338   7.910  -4.452  0.00  0.00    +0.008 C 
ATOM     25  O   UNL     1      -4.641   6.928  -2.867  0.00  0.00    -0.268 OA
ATOM     26  C   UNL     1       1.343   7.913   0.946  0.00  0.00    +0.031 C 
ATOM     27  O   UNL     1       0.884   4.425  -2.305  0.00  0.00    -0.218 OA
ATOM     28  O   UNL     1       3.915   6.366  -1.443  0.00  0.00    -0.295 OA
ATOM     29  O   UNL     1       4.176   7.728  -3.573  0.00  0.00    -0.435 OA
ATOM     30  C   UNL     1       4.953   7.757  -4.655  0.00  0.00    +0.205 A 
ATOM     31  O   UNL     1       5.452   5.728  -6.858  0.00  0.00    -0.268 OA
ATOM     32  C   UNL     1       3.875   5.742  -8.785  0.00  0.00    +0.096 C 
ATOM     33  C   UNL     1       0.682   5.951  -7.806  0.00  0.00    +0.337 C 
ATOM     34  O   UNL     1       0.028   6.184  -8.898  0.00  0.00    -0.248 OA
ATOM     35  C   UNL     1       3.720   7.142  -9.284  0.00  0.00    +0.047 C 
ENDROOT
BRANCH   1  36
ATOM     36  S   UNL     1       2.131   5.181  -9.917  0.00  0.00    -0.008 S 
ATOM     37  O   UNL     1       2.063   4.152  -8.899  0.00  0.00    -0.173 OA
ATOM     38  O   UNL     1       3.325   4.907 -10.833  0.00  0.00    -0.173 OA
BRANCH  36  39
ATOM     39  C   UNL     1       0.963   4.848 -11.196  0.00  0.00    +0.168 C 
BRANCH  39  40
ATOM     40  C   UNL     1       1.491   5.489 -12.456  0.00  0.00    +0.098 C 
BRANCH  40  41
ATOM     41  N   UNL     1       0.500   6.148 -13.251  0.00  0.00    -0.271 NA
BRANCH  41  43
ATOM     42  C   UNL     1      -0.663   7.812 -11.848  0.00  0.00    +0.019 C 
ATOM     43  C   UNL     1       0.434   7.548 -12.834  0.00  0.00    +0.072 C 
ENDBRANCH  41  43
BRANCH  41  44
ATOM     44  C   UNL     1       1.022   6.218 -14.616  0.00  0.00    +0.072 C 
ATOM     45  C   UNL     1       0.163   7.105 -15.474  0.00  0.00    +0.019 C 
ENDBRANCH  41  44
ENDBRANCH  40  41
ENDBRANCH  39  40
ENDBRANCH  36  39
ENDBRANCH   1  36
BRANCH  22  46
ATOM     46  C   UNL     1      -1.166   4.715  -6.023  0.00  0.00    +0.041 C 
ATOM     47  C   UNL     1      -0.278   3.638  -6.559  0.00  0.00    +0.004 C 
ATOM     48  C   UNL     1      -2.162   5.228  -6.995  0.00  0.00    +0.004 C 
ENDBRANCH  22  46
TORSDOF 7
ENDMDL
MODEL 2
REMARK VINA RESULT:      -6.2      2.640      6.035
REMARK  Name = 
REMARK  7 active torsions:
REMARK  status: ('A' for Active; 'I' for Inactive)
REMARK    1  A    between atoms: C_2  and  N_3
REMARK    2  A    between atoms: N_3  and  C_4
REMARK    3  A    between atoms: N_3  and  C_6
REMARK    4  A    between atoms: C_6  and  C_7
REMARK    5  A    between atoms: C_7  and  S_8
REMARK    6  A    between atoms: S_8  and  C_11
REMARK    7  A    between atoms: C_41  and  C_42
REMARK                            x       y       z     vdW  Elec       q    Type
REMARK                         _______ _______ _______ _____ _____    ______ ____
ROOT
ATOM      1  C   UNL     1       2.680   4.609  -5.675  0.00  0.00    +0.160 C 
ATOM      2  C   UNL     1       2.098   5.245  -4.209  0.00  0.00    +0.197 C 
ATOM      3  N   UNL     1       1.072   6.207  -4.903  0.00  0.00    -0.265 N 
ATOM      4  C   UNL     1      -0.310   6.028  -4.487  0.00  0.00    +0.270 C 
ATOM      5  C   UNL     1      -0.725   5.475  -3.241  0.00  0.00    +0.175 A 
ATOM      6  N   UNL     1       0.231   5.475  -2.342  0.00  0.00    -0.207 NA
ATOM      7  C   UNL     1      -0.446   6.118  -1.339  0.00  0.00    +0.213 A 
ATOM      8  C   UNL     1      -0.361   7.615  -1.187  0.00  0.00    +0.150 C 
ATOM      9  C   UNL     1      -1.195   8.095  -0.081  0.00  0.00    +0.163 C 
ATOM     10  C   UNL     1      -1.097   9.313   0.722  0.00  0.00    +0.102 C 
ATOM     11  C   UNL     1       0.395   9.343   1.424  0.00  0.00    +0.181 C 
ATOM     12  C   UNL     1       0.349   7.737   1.721  0.00  0.00    +0.002 C 
ATOM     13  C   UNL     1       0.179   7.668   3.050  0.00  0.00    -0.024 C 
ATOM     14  C   UNL     1       1.255   8.401   3.748  0.00  0.00    -0.007 C 
ATOM     15  C   UNL     1       2.317   8.582   2.932  0.00  0.00    -0.003 C 
ATOM     16  C   UNL     1       2.750   7.369   2.440  0.00  0.00    +0.142 C 
ATOM     17  N   UNL     1       3.896   6.710   2.121  0.00  0.00    -0.197 NA
ATOM     18  C   UNL     1       5.147   7.338   1.908  0.00  0.00    +0.265 C 
ATOM     19  C   UNL     1       4.924   8.216   0.745  0.00  0.00    +0.055 C 
ATOM     20  C   UNL     1       3.813   7.778   0.121  0.00  0.00    -0.018 C 
ATOM     21  C   UNL     1       4.166   6.363  -0.508  0.00  0.00    +0.062 C 
ATOM     22  C   UNL     1       3.293   6.889  -1.910  0.00  0.00    +0.173 C 
ATOM     23  O   UNL     1       3.920   5.828  -2.783  0.00  0.00    -0.451 OA
ATOM     24  C   UNL     1       2.873   5.435  -0.176  0.00  0.00    +0.008 C 
ATOM     25  O   UNL     1       6.155   7.288   2.615  0.00  0.00    -0.268 OA
ATOM     26  C   UNL     1      -0.909   6.933   3.750  0.00  0.00    +0.031 C 
ATOM     27  O   UNL     1       1.007   9.272   0.035  0.00  0.00    -0.218 OA
ATOM     28  O   UNL     1      -2.182   7.399   0.161  0.00  0.00    -0.295 OA
ATOM     29  O   UNL     1      -1.584   5.425  -1.325  0.00  0.00    -0.435 OA
ATOM     30  C   UNL     1      -1.837   4.985  -2.556  0.00  0.00    +0.205 A 
ATOM     31  O   UNL     1      -1.287   6.171  -5.296  0.00  0.00    -0.268 OA
ATOM     32  C   UNL     1       0.949   5.721  -6.294  0.00  0.00    +0.096 C 
ATOM     33  C   UNL     1       3.429   6.147  -4.089  0.00  0.00    +0.337 C 
ATOM     34  O   UNL     1       4.469   5.656  -4.680  0.00  0.00    -0.248 OA
ATOM     35  C   UNL     1       1.241   4.258  -6.205  0.00  0.00    +0.047 C 
ENDROOT
BRANCH   1  36
ATOM     36  S   UNL     1       3.028   6.077  -6.732  0.00  0.00    -0.008 S 
ATOM     37  O   UNL     1       2.944   7.372  -6.087  0.00  0.00    -0.173 OA
ATOM     38  O   UNL     1       2.128   6.069  -7.969  0.00  0.00    -0.173 OA
BRANCH  36  39
ATOM     39  C   UNL     1       4.501   5.973  -7.696  0.00  0.00    +0.168 C 
BRANCH  39  40
ATOM     40  C   UNL     1       4.226   5.006  -8.821  0.00  0.00    +0.098 C 
BRANCH  40  41
ATOM     41  N   UNL     1       4.954   5.267 -10.025  0.00  0.00    -0.271 NA
BRANCH  41  43
ATOM     42  C   UNL     1       3.096   6.042 -11.452  0.00  0.00    +0.019 C 
ATOM     43  C   UNL     1       4.335   6.410 -10.695  0.00  0.00    +0.072 C 
ENDBRANCH  41  43
BRANCH  41  44
ATOM     44  C   UNL     1       6.270   5.766  -9.631  0.00  0.00    +0.072 C 
ATOM     45  C   UNL     1       6.698   6.906 -10.514  0.00  0.00    +0.019 C 
ENDBRANCH  41  44
ENDBRANCH  40  41
ENDBRANCH  39  40
ENDBRANCH  36  39
ENDBRANCH   1  36
BRANCH  22  46
ATOM     46  C   UNL     1       4.409   8.054  -2.212  0.00  0.00    +0.041 C 
ATOM     47  C   UNL     1       3.634   9.330  -2.277  0.00  0.00    +0.004 C 
ATOM     48  C   UNL     1       5.094   7.689  -3.477  0.00  0.00    +0.004 C 
ENDBRANCH  22  46
TORSDOF 7
ENDMDL
MODEL 3
REMARK VINA RESULT:      -5.2      1.158      1.685
REMARK  Name = 
REMARK  7 active torsions:
REMARK  status: ('A' for Active; 'I' for Inactive)
REMARK    1  A    between atoms: C_2  and  N_3
REMARK    2  A    between atoms: N_3  and  C_4
REMARK    3  A    between atoms: N_3  and  C_6
REMARK    4  A    between atoms: C_6  and  C_7
REMARK    5  A    between atoms: C_7  and  S_8
REMARK    6  A    between atoms: S_8  and  C_11
REMARK    7  A    between atoms: C_41  and  C_42
REMARK                            x       y       z     vdW  Elec       q    Type
REMARK                         _______ _______ _______ _____ _____    ______ ____
ROOT
ATOM      1  C   UNL     1       2.340   7.001  -9.274  0.00  0.00    +0.160 C 
ATOM      2  C   UNL     1       2.169   6.877  -7.586  0.00  0.00    +0.197 C 
ATOM      3  N   UNL     1       3.279   5.779  -7.442  0.00  0.00    -0.265 N 
ATOM      4  C   UNL     1       4.364   6.122  -6.536  0.00  0.00    +0.270 C 
ATOM      5  C   UNL     1       4.268   7.052  -5.459  0.00  0.00    +0.175 A 
ATOM      6  N   UNL     1       3.028   7.304  -5.115  0.00  0.00    -0.207 NA
ATOM      7  C   UNL     1       3.138   7.030  -3.777  0.00  0.00    +0.213 A 
ATOM      8  C   UNL     1       2.830   5.655  -3.243  0.00  0.00    +0.150 C 
ATOM      9  C   UNL     1       3.055   5.573  -1.797  0.00  0.00    +0.163 C 
ATOM     10  C   UNL     1       2.491   4.667  -0.798  0.00  0.00    +0.102 C 
ATOM     11  C   UNL     1       0.849   4.813  -0.847  0.00  0.00    +0.181 C 
ATOM     12  C   UNL     1       0.942   6.432  -1.050  0.00  0.00    +0.002 C 
ATOM     13  C   UNL     1       0.537   6.920   0.132  0.00  0.00    -0.024 C 
ATOM     14  C   UNL     1      -0.807   6.410   0.470  0.00  0.00    -0.007 C 
ATOM     15  C   UNL     1      -1.435   5.949  -0.635  0.00  0.00    -0.003 C 
ATOM     16  C   UNL     1      -1.480   6.931  -1.601  0.00  0.00    +0.142 C 
ATOM     17  N   UNL     1      -2.299   7.420  -2.569  0.00  0.00    -0.197 NA
ATOM     18  C   UNL     1      -3.402   6.718  -3.112  0.00  0.00    +0.265 C 
ATOM     19  C   UNL     1      -2.806   5.526  -3.742  0.00  0.00    +0.055 C 
ATOM     20  C   UNL     1      -1.494   5.781  -3.914  0.00  0.00    -0.018 C 
ATOM     21  C   UNL     1      -1.386   6.915  -5.021  0.00  0.00    +0.062 C 
ATOM     22  C   UNL     1      -0.065   6.002  -5.673  0.00  0.00    +0.173 C 
ATOM     23  O   UNL     1      -0.138   6.715  -7.003  0.00  0.00    -0.451 OA
ATOM     24  C   UNL     1      -0.263   7.940  -4.447  0.00  0.00    +0.008 C 
ATOM     25  O   UNL     1      -4.603   6.956  -2.969  0.00  0.00    -0.268 OA
ATOM     26  C   UNL     1       1.299   7.871   0.986  0.00  0.00    +0.031 C 
ATOM     27  O   UNL     1       0.898   4.424  -2.315  0.00  0.00    -0.218 OA
ATOM     28  O   UNL     1       3.917   6.342  -1.364  0.00  0.00    -0.295 OA
ATOM     29  O   UNL     1       4.230   7.728  -3.471  0.00  0.00    -0.435 OA
ATOM     30  C   UNL     1       5.030   7.766  -4.536  0.00  0.00    +0.205 A 
ATOM     31  O   UNL     1       5.570   5.763  -6.752  0.00  0.00    -0.268 OA
ATOM     32  C   UNL     1       4.035   5.806  -8.712  0.00  0.00    +0.096 C 
ATOM     33  C   UNL     1       0.823   6.017  -7.801  0.00  0.00    +0.337 C 
ATOM     34  O   UNL     1       0.194   6.265  -8.904  0.00  0.00    -0.248 OA
ATOM     35  C   UNL     1       3.897   7.213  -9.197  0.00  0.00    +0.047 C 
ENDROOT
BRANCH   1  36
ATOM     36  S   UNL     1       2.315   5.265  -9.889  0.00  0.00    -0.008 S 
ATOM     37  O   UNL     1       1.525   4.320  -9.125  0.00  0.00    -0.173 OA
ATOM     38  O   UNL     1       3.740   4.730 -10.037  0.00  0.00    -0.173 OA
BRANCH  36  39
ATOM     39  C   UNL     1       1.976   5.087 -11.611  0.00  0.00    +0.168 C 
BRANCH  39  40
ATOM     40  C   UNL     1       2.774   6.147 -12.331  0.00  0.00    +0.098 C 
BRANCH  40  41
ATOM     41  N   UNL     1       3.737   5.642 -13.261  0.00  0.00    -0.271 NA
BRANCH  41  43
ATOM     42  C   UNL     1       4.589   6.682 -15.330  0.00  0.00    +0.019 C 
ATOM     43  C   UNL     1       3.400   6.150 -14.590  0.00  0.00    +0.072 C 
ENDBRANCH  41  43
BRANCH  41  44
ATOM     44  C   UNL     1       5.011   6.290 -12.954  0.00  0.00    +0.072 C 
ATOM     45  C   UNL     1       5.931   5.348 -12.227  0.00  0.00    +0.019 C 
ENDBRANCH  41  44
ENDBRANCH  40  41
ENDBRANCH  39  40
ENDBRANCH  36  39
ENDBRANCH   1  36
BRANCH  22  46
ATOM     46  C   UNL     1      -1.068   4.767  -6.074  0.00  0.00    +0.041 C 
ATOM     47  C   UNL     1      -0.167   3.658  -6.514  0.00  0.00    +0.004 C 
ATOM     48  C   UNL     1      -1.982   5.269  -7.130  0.00  0.00    +0.004 C 
ENDBRANCH  22  46
TORSDOF 7
ENDMDL
MODEL 4
REMARK VINA RESULT:      -4.6      2.881     10.226
REMARK  Name = 
REMARK  7 active torsions:
REMARK  status: ('A' for Active; 'I' for Inactive)
REMARK    1  A    between atoms: C_2  and  N_3
REMARK    2  A    between atoms: N_3  and  C_4
REMARK    3  A    between atoms: N_3  and  C_6
REMARK    4  A    between atoms: C_6  and  C_7
REMARK    5  A    between atoms: C_7  and  S_8
REMARK    6  A    between atoms: S_8  and  C_11
REMARK    7  A    between atoms: C_41  and  C_42
REMARK                            x       y       z     vdW  Elec       q    Type
REMARK                         _______ _______ _______ _____ _____    ______ ____
ROOT
ATOM      1  C   UNL     1       1.595   6.905  -6.122  0.00  0.00    +0.160 C 
ATOM      2  C   UNL     1       1.934   6.751  -7.782  0.00  0.00    +0.197 C 
ATOM      3  N   UNL     1       0.860   5.633  -8.013  0.00  0.00    -0.265 N 
ATOM      4  C   UNL     1      -0.134   5.941  -9.029  0.00  0.00    +0.270 C 
ATOM      5  C   UNL     1       0.054   6.852 -10.109  0.00  0.00    +0.175 A 
ATOM      6  N   UNL     1       1.319   7.119 -10.334  0.00  0.00    -0.207 NA
ATOM      7  C   UNL     1       1.346   6.818 -11.670  0.00  0.00    +0.213 A 
ATOM      8  C   UNL     1       1.726   5.438 -12.144  0.00  0.00    +0.150 C 
ATOM      9  C   UNL     1       1.646   5.326 -13.603  0.00  0.00    +0.163 C 
ATOM     10  C   UNL     1       2.320   4.410 -14.522  0.00  0.00    +0.102 C 
ATOM     11  C   UNL     1       3.946   4.583 -14.314  0.00  0.00    +0.181 C 
ATOM     12  C   UNL     1       3.810   6.204 -14.154  0.00  0.00    +0.002 C 
ATOM     13  C   UNL     1       4.323   6.677 -15.300  0.00  0.00    -0.024 C 
ATOM     14  C   UNL     1       5.702   6.183 -15.493  0.00  0.00    -0.007 C 
ATOM     15  C   UNL     1       6.223   5.753 -14.322  0.00  0.00    -0.003 C 
ATOM     16  C   UNL     1       6.158   6.753 -13.377  0.00  0.00    +0.142 C 
ATOM     17  N   UNL     1       6.870   7.274 -12.343  0.00  0.00    -0.197 NA
ATOM     18  C   UNL     1       7.924   6.600 -11.678  0.00  0.00    +0.265 C 
ATOM     19  C   UNL     1       7.285   5.411 -11.087  0.00  0.00    +0.055 C 
ATOM     20  C   UNL     1       5.959   5.647 -11.050  0.00  0.00    -0.018 C 
ATOM     21  C   UNL     1       5.725   6.800  -9.983  0.00  0.00    +0.062 C 
ATOM     22  C   UNL     1       4.359   5.878  -9.446  0.00  0.00    +0.173 C 
ATOM     23  O   UNL     1       4.290   6.616  -8.131  0.00  0.00    -0.451 OA
ATOM     24  C   UNL     1       4.650   7.795 -10.686  0.00  0.00    +0.008 C 
ATOM     25  O   UNL     1       9.130   6.855 -11.707  0.00  0.00    -0.268 OA
ATOM     26  C   UNL     1       3.636   7.599 -16.245  0.00  0.00    +0.031 C 
ATOM     27  O   UNL     1       3.757   4.222 -12.850  0.00  0.00    -0.218 OA
ATOM     28  O   UNL     1       0.820   6.071 -14.134  0.00  0.00    -0.295 OA
ATOM     29  O   UNL     1       0.280   7.492 -12.097  0.00  0.00    -0.435 OA
ATOM     30  C   UNL     1      -0.623   7.537 -11.118  0.00  0.00    +0.205 A 
ATOM     31  O   UNL     1      -1.350   5.566  -8.926  0.00  0.00    -0.268 OA
ATOM     32  C   UNL     1      -0.019   5.671  -6.825  0.00  0.00    +0.096 C 
ATOM     33  C   UNL     1       3.265   5.918  -7.417  0.00  0.00    +0.337 C 
ATOM     34  O   UNL     1       3.777   6.197  -6.263  0.00  0.00    -0.248 OA
ATOM     35  C   UNL     1       0.050   7.089  -6.357  0.00  0.00    +0.047 C 
ENDROOT
BRANCH   1  36
ATOM     36  S   UNL     1       1.584   5.182  -5.472  0.00  0.00    -0.008 S 
ATOM     37  O   UNL     1       1.838   4.126  -6.433  0.00  0.00    -0.173 OA
ATOM     38  O   UNL     1       0.271   4.894  -4.742  0.00  0.00    -0.173 OA
BRANCH  36  39
ATOM     39  C   UNL     1       2.550   4.924  -4.019  0.00  0.00    +0.168 C 
BRANCH  39  40
ATOM     40  C   UNL     1       2.073   5.918  -2.989  0.00  0.00    +0.098 C 
BRANCH  40  41
ATOM     41  N   UNL     1       3.117   6.575  -2.263  0.00  0.00    -0.271 NA
BRANCH  41  43
ATOM     42  C   UNL     1       4.308   4.872  -0.933  0.00  0.00    +0.019 C 
ATOM     43  C   UNL     1       4.266   5.673  -2.198  0.00  0.00    +0.072 C 
ENDBRANCH  41  43
BRANCH  41  44
ATOM     44  C   UNL     1       3.589   7.680  -3.097  0.00  0.00    +0.072 C 
ATOM     45  C   UNL     1       5.070   7.574  -3.339  0.00  0.00    +0.019 C 
ENDBRANCH  41  44
ENDBRANCH  40  41
ENDBRANCH  39  40
ENDBRANCH  36  39
ENDBRANCH   1  36
BRANCH  22  46
ATOM     46  C   UNL     1       5.336   4.667  -8.923  0.00  0.00    +0.041 C 
ATOM     47  C   UNL     1       4.416   3.533  -8.604  0.00  0.00    +0.004 C 
ATOM     48  C   UNL     1       6.093   5.187  -7.758  0.00  0.00    +0.004 C 
ENDBRANCH  22  46
TORSDOF 7
ENDMDL
