MODEL 1
REMARK VINA RESULT:      -6.6      0.000      0.000
REMARK  Name = 
REMARK  1 active torsions:
REMARK  status: ('A' for Active; 'I' for Inactive)
REMARK    1  A    between atoms: C_2  and  C_4
REMARK                            x       y       z     vdW  Elec       q    Type
REMARK                         _______ _______ _______ _____ _____    ______ ____
ROOT
ATOM      1  C   UNL     1       5.321   5.828 -10.615  0.00  0.00    +0.016 C 
ATOM      2  C   UNL     1       5.126   7.338 -10.723  0.00  0.00    +0.001 C 
ATOM      3  C   UNL     1       6.360   7.880 -11.393  0.00  0.00    +0.000 C 
ATOM      4  C   UNL     1       7.610   7.581 -10.574  0.00  0.00    +0.000 C 
ATOM      5  C   UNL     1       7.697   6.069 -10.418  0.00  0.00    +0.000 C 
ATOM      6  C   UNL     1       7.821   5.371 -11.752  0.00  0.00    +0.000 C 
ATOM      7  C   UNL     1       6.609   5.710 -12.612  0.00  0.00    +0.000 C 
ATOM      8  C   UNL     1       6.583   7.213 -12.745  0.00  0.00    +0.000 C 
ATOM      9  C   UNL     1       6.473   5.643  -9.677  0.00  0.00    +0.001 C 
ATOM     10  C   UNL     1       5.409   5.188 -11.916  0.00  0.00    +0.001 C 
ENDROOT
BRANCH   1  12
ATOM     11  C   UNL     1       4.714   5.154  -8.336  0.00  0.00    +0.020 C 
ATOM     12  C   UNL     1       3.979   5.334  -9.808  0.00  0.00    +0.092 C 
ATOM     13  N   UNL     1       3.541   6.816  -9.448  0.00  0.00    -0.133 NA
ENDBRANCH   1  12
TORSDOF 1
ENDMDL
MODEL 2
REMARK VINA RESULT:      -6.5      0.122      2.068
REMARK  Name = 
REMARK  1 active torsions:
REMARK  status: ('A' for Active; 'I' for Inactive)
REMARK    1  A    between atoms: C_2  and  C_4
REMARK                            x       y       z     vdW  Elec       q    Type
REMARK                         _______ _______ _______ _____ _____    ______ ____
ROOT
ATOM      1  C   UNL     1       5.342   5.955 -10.454  0.00  0.00    +0.016 C 
ATOM      2  C   UNL     1       5.363   5.206 -11.784  0.00  0.00    +0.001 C 
ATOM      3  C   UNL     1       6.592   5.671 -12.516  0.00  0.00    +0.000 C 
ATOM      4  C   UNL     1       6.546   7.172 -12.775  0.00  0.00    +0.000 C 
ATOM      5  C   UNL     1       6.427   7.861 -11.421  0.00  0.00    +0.000 C 
ATOM      6  C   UNL     1       7.613   7.565 -10.533  0.00  0.00    +0.000 C 
ATOM      7  C   UNL     1       7.714   6.059 -10.315  0.00  0.00    +0.000 C 
ATOM      8  C   UNL     1       7.846   5.434 -11.682  0.00  0.00    +0.000 C 
ATOM      9  C   UNL     1       5.145   7.396 -10.815  0.00  0.00    +0.001 C 
ATOM     10  C   UNL     1       6.481   5.626  -9.616  0.00  0.00    +0.001 C 
ENDROOT
BRANCH   1  12
ATOM     11  C   UNL     1       4.586   5.112  -8.278  0.00  0.00    +0.020 C 
ATOM     12  C   UNL     1       3.940   5.453  -9.763  0.00  0.00    +0.092 C 
ATOM     13  N   UNL     1       3.542   6.915  -9.294  0.00  0.00    -0.133 NA
ENDBRANCH   1  12
TORSDOF 1
ENDMDL
MODEL 3
REMARK VINA RESULT:      -6.1      7.298      9.777
REMARK  Name = 
REMARK  1 active torsions:
REMARK  status: ('A' for Active; 'I' for Inactive)
REMARK    1  A    between atoms: C_2  and  C_4
REMARK                            x       y       z     vdW  Elec       q    Type
REMARK                         _______ _______ _______ _____ _____    ______ ____
ROOT
ATOM      1  C   UNL     1      -0.319   6.046  -5.175  0.00  0.00    +0.016 C 
ATOM      2  C   UNL     1      -0.361   5.439  -3.775  0.00  0.00    +0.001 C 
ATOM      3  C   UNL     1      -1.716   5.765  -3.210  0.00  0.00    +0.000 C 
ATOM      4  C   UNL     1      -1.931   7.271  -3.122  0.00  0.00    +0.000 C 
ATOM      5  C   UNL     1      -1.780   7.832  -4.530  0.00  0.00    +0.000 C 
ATOM      6  C   UNL     1      -2.807   7.258  -5.477  0.00  0.00    +0.000 C 
ATOM      7  C   UNL     1      -2.651   5.742  -5.530  0.00  0.00    +0.000 C 
ATOM      8  C   UNL     1      -2.825   5.243  -4.117  0.00  0.00    +0.000 C 
ATOM      9  C   UNL     1      -0.386   7.528  -4.966  0.00  0.00    +0.001 C 
ATOM     10  C   UNL     1      -1.300   5.452  -6.065  0.00  0.00    +0.001 C 
ENDROOT
BRANCH   1  12
ATOM     11  C   UNL     1       1.851   5.493  -4.172  0.00  0.00    +0.020 C 
ATOM     12  C   UNL     1       1.209   5.716  -5.681  0.00  0.00    +0.092 C 
ATOM     13  N   UNL     1       0.920   4.163  -5.827  0.00  0.00    -0.133 NA
ENDBRANCH   1  12
TORSDOF 1
ENDMDL
MODEL 4
REMARK VINA RESULT:      -6.0      7.177      9.921
REMARK  Name = 
REMARK  1 active torsions:
REMARK  status: ('A' for Active; 'I' for Inactive)
REMARK    1  A    between atoms: C_2  and  C_4
REMARK                            x       y       z     vdW  Elec       q    Type
REMARK                         _______ _______ _______ _____ _____    ______ ____
ROOT
ATOM      1  C   UNL     1      -0.356   5.898  -4.757  0.00  0.00    +0.016 C 
ATOM      2  C   UNL     1      -0.357   7.416  -4.915  0.00  0.00    +0.001 C 
ATOM      3  C   UNL     1      -1.733   7.884  -4.526  0.00  0.00    +0.000 C 
ATOM      4  C   UNL     1      -2.800   7.274  -5.428  0.00  0.00    +0.000 C 
ATOM      5  C   UNL     1      -2.685   5.760  -5.304  0.00  0.00    +0.000 C 
ATOM      6  C   UNL     1      -2.932   5.291  -3.890  0.00  0.00    +0.000 C 
ATOM      7  C   UNL     1      -1.913   5.942  -2.960  0.00  0.00    +0.000 C 
ATOM      8  C   UNL     1      -2.083   7.433  -3.112  0.00  0.00    +0.000 C 
ATOM      9  C   UNL     1      -1.321   5.393  -5.785  0.00  0.00    +0.001 C 
ATOM     10  C   UNL     1      -0.568   5.484  -3.382  0.00  0.00    +0.001 C 
ENDROOT
BRANCH   1  12
ATOM     11  C   UNL     1       1.039   6.210  -6.750  0.00  0.00    +0.020 C 
ATOM     12  C   UNL     1       1.142   5.468  -5.275  0.00  0.00    +0.092 C 
ATOM     13  N   UNL     1       1.827   6.750  -4.638  0.00  0.00    -0.133 NA
ENDBRANCH   1  12
TORSDOF 1
ENDMDL
MODEL 5
REMARK VINA RESULT:      -6.0      7.325      9.787
REMARK  Name = 
REMARK  1 active torsions:
REMARK  status: ('A' for Active; 'I' for Inactive)
REMARK    1  A    between atoms: C_2  and  C_4
REMARK                            x       y       z     vdW  Elec       q    Type
REMARK                         _______ _______ _______ _____ _____    ______ ____
ROOT
ATOM      1  C   UNL     1      -0.258   6.266  -4.900  0.00  0.00    +0.016 C 
ATOM      2  C   UNL     1      -1.113   5.514  -5.918  0.00  0.00    +0.001 C 
ATOM      3  C   UNL     1      -2.546   5.743  -5.521  0.00  0.00    +0.000 C 
ATOM      4  C   UNL     1      -2.825   5.207  -4.122  0.00  0.00    +0.000 C 
ATOM      5  C   UNL     1      -1.878   5.922  -3.167  0.00  0.00    +0.000 C 
ATOM      6  C   UNL     1      -2.105   7.415  -3.161  0.00  0.00    +0.000 C 
ATOM      7  C   UNL     1      -1.893   7.961  -4.569  0.00  0.00    +0.000 C 
ATOM      8  C   UNL     1      -2.865   7.233  -5.464  0.00  0.00    +0.000 C 
ATOM      9  C   UNL     1      -0.492   5.569  -3.595  0.00  0.00    +0.001 C 
ATOM     10  C   UNL     1      -0.483   7.700  -4.942  0.00  0.00    +0.001 C 
ENDROOT
BRANCH   1  12
ATOM     11  C   UNL     1       0.929   4.395  -5.954  0.00  0.00    +0.020 C 
ATOM     12  C   UNL     1       1.276   5.899  -5.356  0.00  0.00    +0.092 C 
ATOM     13  N   UNL     1       1.101   6.550  -6.792  0.00  0.00    -0.133 NA
ENDBRANCH   1  12
TORSDOF 1
ENDMDL
MODEL 6
REMARK VINA RESULT:      -5.9      1.941      3.603
REMARK  Name = 
REMARK  1 active torsions:
REMARK  status: ('A' for Active; 'I' for Inactive)
REMARK    1  A    between atoms: C_2  and  C_4
REMARK                            x       y       z     vdW  Elec       q    Type
REMARK                         _______ _______ _______ _____ _____    ______ ____
ROOT
ATOM      1  C   UNL     1       6.288   6.044 -12.450  0.00  0.00    +0.016 C 
ATOM      2  C   UNL     1       4.992   5.484 -11.868  0.00  0.00    +0.001 C 
ATOM      3  C   UNL     1       4.899   6.001 -10.459  0.00  0.00    +0.000 C 
ATOM      4  C   UNL     1       6.082   5.533  -9.619  0.00  0.00    +0.000 C 
ATOM      5  C   UNL     1       7.347   6.037 -10.300  0.00  0.00    +0.000 C 
ATOM      6  C   UNL     1       7.382   7.545 -10.376  0.00  0.00    +0.000 C 
ATOM      7  C   UNL     1       6.170   8.038 -11.158  0.00  0.00    +0.000 C 
ATOM      8  C   UNL     1       4.952   7.524 -10.432  0.00  0.00    +0.000 C 
ATOM      9  C   UNL     1       7.386   5.408 -11.653  0.00  0.00    +0.001 C 
ATOM     10  C   UNL     1       6.275   7.493 -12.533  0.00  0.00    +0.001 C 
ENDROOT
BRANCH   1  12
ATOM     11  C   UNL     1       6.832   6.741 -14.738  0.00  0.00    +0.020 C 
ATOM     12  C   UNL     1       6.349   5.370 -13.946  0.00  0.00    +0.092 C 
ATOM     13  N   UNL     1       7.853   4.898 -13.770  0.00  0.00    -0.133 NA
ENDBRANCH   1  12
TORSDOF 1
ENDMDL
MODEL 7
REMARK VINA RESULT:      -5.6      3.340      5.012
REMARK  Name = 
REMARK  1 active torsions:
REMARK  status: ('A' for Active; 'I' for Inactive)
REMARK    1  A    between atoms: C_2  and  C_4
REMARK                            x       y       z     vdW  Elec       q    Type
REMARK                         _______ _______ _______ _____ _____    ______ ____
ROOT
ATOM      1  C   UNL     1       3.062   5.924  -6.733  0.00  0.00    +0.016 C 
ATOM      2  C   UNL     1       4.521   5.700  -7.122  0.00  0.00    +0.001 C 
ATOM      3  C   UNL     1       4.533   5.451  -8.605  0.00  0.00    +0.000 C 
ATOM      4  C   UNL     1       3.712   4.219  -8.966  0.00  0.00    +0.000 C 
ATOM      5  C   UNL     1       2.293   4.459  -8.467  0.00  0.00    +0.000 C 
ATOM      6  C   UNL     1       1.661   5.663  -9.126  0.00  0.00    +0.000 C 
ATOM      7  C   UNL     1       2.505   6.898  -8.830  0.00  0.00    +0.000 C 
ATOM      8  C   UNL     1       3.889   6.610  -9.358  0.00  0.00    +0.000 C 
ATOM      9  C   UNL     1       2.380   4.614  -6.985  0.00  0.00    +0.001 C 
ATOM     10  C   UNL     1       2.496   7.104  -7.362  0.00  0.00    +0.001 C 
ENDROOT
BRANCH   1  12
ATOM     11  C   UNL     1       4.494   5.192  -4.881  0.00  0.00    +0.020 C 
ATOM     12  C   UNL     1       3.132   6.106  -5.102  0.00  0.00    +0.092 C 
ATOM     13  N   UNL     1       3.994   7.434  -5.198  0.00  0.00    -0.133 NA
ENDBRANCH   1  12
TORSDOF 1
ENDMDL
MODEL 8
REMARK VINA RESULT:      -5.5      5.082      6.473
REMARK  Name = 
REMARK  1 active torsions:
REMARK  status: ('A' for Active; 'I' for Inactive)
REMARK    1  A    between atoms: C_2  and  C_4
REMARK                            x       y       z     vdW  Elec       q    Type
REMARK                         _______ _______ _______ _____ _____    ______ ____
ROOT
ATOM      1  C   UNL     1       0.567   5.549  -6.454  0.00  0.00    +0.016 C 
ATOM      2  C   UNL     1      -0.123   5.519  -7.816  0.00  0.00    +0.001 C 
ATOM      3  C   UNL     1       0.964   5.651  -8.847  0.00  0.00    +0.000 C 
ATOM      4  C   UNL     1       1.723   6.963  -8.686  0.00  0.00    +0.000 C 
ATOM      5  C   UNL     1       2.305   6.978  -7.279  0.00  0.00    +0.000 C 
ATOM      6  C   UNL     1       3.270   5.837  -7.057  0.00  0.00    +0.000 C 
ATOM      7  C   UNL     1       2.544   4.514  -7.278  0.00  0.00    +0.000 C 
ATOM      8  C   UNL     1       2.005   4.550  -8.686  0.00  0.00    +0.000 C 
ATOM      9  C   UNL     1       1.149   6.924  -6.336  0.00  0.00    +0.001 C 
ATOM     10  C   UNL     1       1.465   4.424  -6.265  0.00  0.00    +0.001 C 
ENDROOT
BRANCH   1  12
ATOM     11  C   UNL     1      -0.725   7.102  -5.064  0.00  0.00    +0.020 C 
ATOM     12  C   UNL     1      -0.688   5.482  -5.397  0.00  0.00    +0.092 C 
ATOM     13  N   UNL     1      -1.776   5.654  -6.538  0.00  0.00    -0.133 NA
ENDBRANCH   1  12
TORSDOF 1
ENDMDL
MODEL 9
REMARK VINA RESULT:      -5.5      3.321      4.723
REMARK  Name = 
REMARK  1 active torsions:
REMARK  status: ('A' for Active; 'I' for Inactive)
REMARK    1  A    between atoms: C_2  and  C_4
REMARK                            x       y       z     vdW  Elec       q    Type
REMARK                         _______ _______ _______ _____ _____    ______ ____
ROOT
ATOM      1  C   UNL     1       3.082   5.722  -6.741  0.00  0.00    +0.016 C 
ATOM      2  C   UNL     1       2.494   7.006  -7.321  0.00  0.00    +0.001 C 
ATOM      3  C   UNL     1       2.511   6.845  -8.816  0.00  0.00    +0.000 C 
ATOM      4  C   UNL     1       3.931   6.652  -9.335  0.00  0.00    +0.000 C 
ATOM      5  C   UNL     1       4.499   5.416  -8.650  0.00  0.00    +0.000 C 
ATOM      6  C   UNL     1       3.700   4.176  -8.973  0.00  0.00    +0.000 C 
ATOM      7  C   UNL     1       2.258   4.375  -8.520  0.00  0.00    +0.000 C 
ATOM      8  C   UNL     1       1.745   5.597  -9.240  0.00  0.00    +0.000 C 
ATOM      9  C   UNL     1       4.513   5.706  -7.186  0.00  0.00    +0.001 C 
ATOM     10  C   UNL     1       2.275   4.555  -7.048  0.00  0.00    +0.001 C 
ENDROOT
BRANCH   1  12
ATOM     11  C   UNL     1       4.514   5.212  -4.816  0.00  0.00    +0.020 C 
ATOM     12  C   UNL     1       3.100   6.014  -5.125  0.00  0.00    +0.092 C 
ATOM     13  N   UNL     1       3.874   7.389  -5.292  0.00  0.00    -0.133 NA
ENDBRANCH   1  12
TORSDOF 1
ENDMDL
