MODEL 1
REMARK VINA RESULT:     -10.2      0.000      0.000
REMARK  Name = 
REMARK  4 active torsions:
REMARK  status: ('A' for Active; 'I' for Inactive)
REMARK    1  A    between atoms: C_8  and  C_9
REMARK    2  A    between atoms: C_9  and  C_10
REMARK    3  A    between atoms: C_10  and  N_11
REMARK    4  A    between atoms: C_14  and  C_15
REMARK                            x       y       z     vdW  Elec       q    Type
REMARK                         _______ _______ _______ _____ _____    ______ ____
ROOT
ATOM      1  N   UNL     1       1.541   4.962  -9.675  0.00  0.00    -0.272 NA
ATOM      2  C   UNL     1       2.533   4.217  -8.976  0.00  0.00    +0.072 C 
ATOM      3  C   UNL     1       3.941   4.529  -9.283  0.00  0.00    +0.023 C 
ATOM      4  C   UNL     1       4.241   5.861  -9.853  0.00  0.00    +0.046 C 
ATOM      5  C   UNL     1       3.080   6.736 -10.149  0.00  0.00    +0.023 C 
ATOM      6  C   UNL     1       2.021   5.800 -10.729  0.00  0.00    +0.072 C 
ENDROOT
BRANCH   4   7
ATOM      7  C   UNL     1       4.853   5.638 -11.200  0.00  0.00    +0.100 A 
ATOM      8  C   UNL     1       6.202   5.474 -11.348  0.00  0.00    +0.054 A 
ATOM      9  C   UNL     1       6.402   5.473 -12.724  0.00  0.00    +0.179 A 
ATOM     10  C   UNL     1       7.629   5.943 -13.174  0.00  0.00    +0.070 A 
ATOM     11  C   UNL     1       8.699   5.779 -12.301  0.00  0.00    +0.143 A 
ATOM     12  C   UNL     1       8.521   5.695 -10.934  0.00  0.00    +0.030 A 
ATOM     13  F   UNL     1       9.884   6.269 -12.735  0.00  0.00    -0.204 F 
ATOM     14  O   UNL     1       5.193   5.382 -13.244  0.00  0.00    -0.354 OA
ATOM     15  C   UNL     1       7.250   5.501 -10.464  0.00  0.00    +0.007 A 
ATOM     16  N   UNL     1       4.316   5.106 -12.310  0.00  0.00    -0.081 NA
ENDBRANCH   4   7
BRANCH   1  17
ATOM     17  C   UNL     1       0.699   5.719  -8.790  0.00  0.00    +0.077 C 
BRANCH  17  18
ATOM     18  C   UNL     1       0.746   5.089  -7.425  0.00  0.00    +0.050 C 
BRANCH  18  21
ATOM     19  C   UNL     1       2.367   6.940  -6.039  0.00  0.00    +0.052 C 
ATOM     20  C   UNL     1       1.255   6.426  -5.490  0.00  0.00    +0.061 A 
ATOM     21  C   UNL     1       0.264   6.040  -6.391  0.00  0.00    +0.049 A 
ATOM     22  C   UNL     1      -1.044   5.842  -5.964  0.00  0.00    +0.259 A 
ATOM     23  O   UNL     1      -1.830   5.105  -6.620  0.00  0.00    -0.267 OA
ATOM     24  N   UNL     1      -1.313   6.289  -4.710  0.00  0.00    -0.282 N 
ATOM     25  C   UNL     1      -2.620   6.053  -4.135  0.00  0.00    +0.110 C 
ATOM     26  C   UNL     1      -2.817   6.943  -2.945  0.00  0.00    +0.028 C 
ATOM     27  C   UNL     1      -1.720   6.884  -1.937  0.00  0.00    +0.043 C 
ATOM     28  C   UNL     1      -0.706   5.670  -2.425  0.00  0.00    +0.208 C 
ATOM     29  O   UNL     1       0.467   6.264  -1.657  0.00  0.00    -0.215 OA
ATOM     30  C   UNL     1      -0.336   6.484  -3.783  0.00  0.00    +0.153 A 
ATOM     31  N   UNL     1       0.945   6.423  -4.168  0.00  0.00    -0.234 NA
ENDBRANCH  18  21
ENDBRANCH  17  18
ENDBRANCH   1  17
TORSDOF 4
ENDMDL
MODEL 2
REMARK VINA RESULT:      -9.7      3.628     10.084
REMARK  Name = 
REMARK  4 active torsions:
REMARK  status: ('A' for Active; 'I' for Inactive)
REMARK    1  A    between atoms: C_8  and  C_9
REMARK    2  A    between atoms: C_9  and  C_10
REMARK    3  A    between atoms: C_10  and  N_11
REMARK    4  A    between atoms: C_14  and  C_15
REMARK                            x       y       z     vdW  Elec       q    Type
REMARK                         _______ _______ _______ _____ _____    ______ ____
ROOT
ATOM      1  N   UNL     1       3.583   5.058  -5.780  0.00  0.00    -0.272 NA
ATOM      2  C   UNL     1       2.626   4.116  -6.253  0.00  0.00    +0.072 C 
ATOM      3  C   UNL     1       1.223   4.330  -5.850  0.00  0.00    +0.023 C 
ATOM      4  C   UNL     1       0.824   5.700  -5.456  0.00  0.00    +0.046 C 
ATOM      5  C   UNL     1       1.899   6.722  -5.415  0.00  0.00    +0.023 C 
ATOM      6  C   UNL     1       3.105   6.000  -4.817  0.00  0.00    +0.072 C 
ENDROOT
BRANCH   4   7
ATOM      7  C   UNL     1       0.362   5.633  -4.034  0.00  0.00    +0.100 A 
ATOM      8  C   UNL     1      -0.968   5.608  -3.721  0.00  0.00    +0.054 A 
ATOM      9  C   UNL     1      -1.000   5.726  -2.337  0.00  0.00    +0.179 A 
ATOM     10  C   UNL     1      -2.120   6.340  -1.790  0.00  0.00    +0.070 A 
ATOM     11  C   UNL     1      -3.297   6.214  -2.519  0.00  0.00    +0.143 A 
ATOM     12  C   UNL     1      -3.293   6.014  -3.886  0.00  0.00    +0.030 A 
ATOM     13  F   UNL     1      -4.375   6.842  -1.996  0.00  0.00    -0.204 F 
ATOM     14  O   UNL     1       0.250   5.559  -1.951  0.00  0.00    -0.354 OA
ATOM     15  C   UNL     1      -2.109   5.669  -4.479  0.00  0.00    +0.007 A 
ATOM     16  N   UNL     1       0.982   5.135  -2.953  0.00  0.00    -0.081 NA
ENDBRANCH   4   7
BRANCH   1  17
ATOM     17  C   UNL     1       4.252   5.745  -6.849  0.00  0.00    +0.077 C 
BRANCH  17  18
ATOM     18  C   UNL     1       4.046   4.969  -8.122  0.00  0.00    +0.050 C 
BRANCH  18  21
ATOM     19  C   UNL     1       2.013   6.352  -9.511  0.00  0.00    +0.052 C 
ATOM     20  C   UNL     1       3.136   5.946 -10.124  0.00  0.00    +0.061 A 
ATOM     21  C   UNL     1       4.260   5.839  -9.307  0.00  0.00    +0.049 A 
ATOM     22  C   UNL     1       5.536   5.788  -9.859  0.00  0.00    +0.259 A 
ATOM     23  O   UNL     1       6.494   5.274  -9.219  0.00  0.00    -0.267 OA
ATOM     24  N   UNL     1       5.603   6.103 -11.179  0.00  0.00    -0.282 N 
ATOM     25  C   UNL     1       6.869   5.997 -11.872  0.00  0.00    +0.110 C 
ATOM     26  C   UNL     1       6.798   6.742 -13.171  0.00  0.00    +0.028 C 
ATOM     27  C   UNL     1       5.634   6.384 -14.029  0.00  0.00    +0.043 C 
ATOM     28  C   UNL     1       4.889   5.103 -13.291  0.00  0.00    +0.208 C 
ATOM     29  O   UNL     1       3.564   5.404 -13.979  0.00  0.00    -0.215 OA
ATOM     30  C   UNL     1       4.522   6.022 -12.001  0.00  0.00    +0.153 A 
ATOM     31  N   UNL     1       3.313   5.817 -11.464  0.00  0.00    -0.234 NA
ENDBRANCH  18  21
ENDBRANCH  17  18
ENDBRANCH   1  17
TORSDOF 4
ENDMDL
MODEL 3
REMARK VINA RESULT:      -9.6      2.995      4.506
REMARK  Name = 
REMARK  4 active torsions:
REMARK  status: ('A' for Active; 'I' for Inactive)
REMARK    1  A    between atoms: C_8  and  C_9
REMARK    2  A    between atoms: C_9  and  C_10
REMARK    3  A    between atoms: C_10  and  N_11
REMARK    4  A    between atoms: C_14  and  C_15
REMARK                            x       y       z     vdW  Elec       q    Type
REMARK                         _______ _______ _______ _____ _____    ______ ____
ROOT
ATOM      1  N   UNL     1       0.774   6.081  -5.757  0.00  0.00    -0.272 NA
ATOM      2  C   UNL     1       1.041   4.700  -5.980  0.00  0.00    +0.072 C 
ATOM      3  C   UNL     1       2.211   4.372  -6.816  0.00  0.00    +0.023 C 
ATOM      4  C   UNL     1       3.280   5.389  -6.928  0.00  0.00    +0.046 C 
ATOM      5  C   UNL     1       3.036   6.690  -6.258  0.00  0.00    +0.023 C 
ATOM      6  C   UNL     1       1.563   6.997  -6.521  0.00  0.00    +0.072 C 
ENDROOT
BRANCH   4   7
ATOM      7  C   UNL     1       3.383   5.763  -8.374  0.00  0.00    +0.100 A 
ATOM      8  C   UNL     1       4.578   5.715  -9.036  0.00  0.00    +0.054 A 
ATOM      9  C   UNL     1       4.312   6.291 -10.272  0.00  0.00    +0.179 A 
ATOM     10  C   UNL     1       5.370   6.942 -10.896  0.00  0.00    +0.070 A 
ATOM     11  C   UNL     1       6.639   6.462 -10.595  0.00  0.00    +0.143 A 
ATOM     12  C   UNL     1       6.912   5.812  -9.407  0.00  0.00    +0.030 A 
ATOM     13  F   UNL     1       7.664   7.121 -11.181  0.00  0.00    -0.204 F 
ATOM     14  O   UNL     1       2.998   6.388 -10.328  0.00  0.00    -0.354 OA
ATOM     15  C   UNL     1       5.854   5.404  -8.641  0.00  0.00    +0.007 A 
ATOM     16  N   UNL     1       2.451   5.724  -9.339  0.00  0.00    -0.081 NA
ENDBRANCH   4   7
BRANCH   1  17
ATOM     17  C   UNL     1       0.823   6.431  -4.365  0.00  0.00    +0.077 C 
BRANCH  17  18
ATOM     18  C   UNL     1       0.646   5.181  -3.547  0.00  0.00    +0.050 C 
BRANCH  18  21
ATOM     19  C   UNL     1      -0.866   5.647  -1.208  0.00  0.00    +0.052 C 
ATOM     20  C   UNL     1       0.391   6.101  -1.339  0.00  0.00    +0.061 A 
ATOM     21  C   UNL     1       1.212   5.359  -2.186  0.00  0.00    +0.049 A 
ATOM     22  C   UNL     1       2.595   5.493  -2.130  0.00  0.00    +0.259 A 
ATOM     23  O   UNL     1       3.312   5.190  -3.123  0.00  0.00    -0.267 OA
ATOM     24  N   UNL     1       3.062   6.178  -1.054  0.00  0.00    -0.282 N 
ATOM     25  C   UNL     1       4.480   6.451  -0.944  0.00  0.00    +0.110 C 
ATOM     26  C   UNL     1       4.809   6.857   0.461  0.00  0.00    +0.028 C 
ATOM     27  C   UNL     1       3.962   7.956   1.005  0.00  0.00    +0.043 C 
ATOM     28  C   UNL     1       3.026   8.487  -0.254  0.00  0.00    +0.208 C 
ATOM     29  O   UNL     1       1.974   9.051   0.693  0.00  0.00    -0.215 OA
ATOM     30  C   UNL     1       2.283   7.043  -0.349  0.00  0.00    +0.153 A 
ATOM     31  N   UNL     1       0.968   7.080  -0.595  0.00  0.00    -0.234 NA
ENDBRANCH  18  21
ENDBRANCH  17  18
ENDBRANCH   1  17
TORSDOF 4
ENDMDL
MODEL 4
REMARK VINA RESULT:      -9.6      3.548     10.039
REMARK  Name = 
REMARK  4 active torsions:
REMARK  status: ('A' for Active; 'I' for Inactive)
REMARK    1  A    between atoms: C_8  and  C_9
REMARK    2  A    between atoms: C_9  and  C_10
REMARK    3  A    between atoms: C_10  and  N_11
REMARK    4  A    between atoms: C_14  and  C_15
REMARK                            x       y       z     vdW  Elec       q    Type
REMARK                         _______ _______ _______ _____ _____    ______ ____
ROOT
ATOM      1  N   UNL     1       0.755   5.153  -7.742  0.00  0.00    -0.272 NA
ATOM      2  C   UNL     1      -0.661   5.160  -7.592  0.00  0.00    +0.072 C 
ATOM      3  C   UNL     1      -1.197   5.715  -6.335  0.00  0.00    +0.023 C 
ATOM      4  C   UNL     1      -0.340   6.656  -5.581  0.00  0.00    +0.046 C 
ATOM      5  C   UNL     1       1.025   6.889  -6.114  0.00  0.00    +0.023 C 
ATOM      6  C   UNL     1       1.505   5.516  -6.579  0.00  0.00    +0.072 C 
ENDROOT
BRANCH   4   7
ATOM      7  C   UNL     1      -0.083   6.043  -4.240  0.00  0.00    +0.100 A 
ATOM      8  C   UNL     1      -0.997   6.141  -3.228  0.00  0.00    +0.054 A 
ATOM      9  C   UNL     1      -0.342   5.619  -2.119  0.00  0.00    +0.179 A 
ATOM     10  C   UNL     1      -0.717   6.125  -0.880  0.00  0.00    +0.070 A 
ATOM     11  C   UNL     1      -2.028   6.579  -0.783  0.00  0.00    +0.143 A 
ATOM     12  C   UNL     1      -2.730   7.027  -1.885  0.00  0.00    +0.030 A 
ATOM     13  F   UNL     1      -2.375   7.100   0.417  0.00  0.00    -0.204 F 
ATOM     14  O   UNL     1       0.747   5.053  -2.601  0.00  0.00    -0.354 OA
ATOM     15  C   UNL     1      -2.214   6.763  -3.124  0.00  0.00    +0.007 A 
ATOM     16  N   UNL     1       0.690   4.996  -3.909  0.00  0.00    -0.081 NA
ENDBRANCH   4   7
BRANCH   1  17
ATOM     17  C   UNL     1       1.191   5.927  -8.870  0.00  0.00    +0.077 C 
BRANCH  17  18
ATOM     18  C   UNL     1       2.115   5.082  -9.705  0.00  0.00    +0.050 C 
BRANCH  18  21
ATOM     19  C   UNL     1       1.946   6.244 -12.274  0.00  0.00    +0.052 C 
ATOM     20  C   UNL     1       3.125   5.907 -11.728  0.00  0.00    +0.061 A 
ATOM     21  C   UNL     1       3.167   5.920 -10.335  0.00  0.00    +0.049 A 
ATOM     22  C   UNL     1       4.384   5.951  -9.662  0.00  0.00    +0.259 A 
ATOM     23  O   UNL     1       4.473   5.539  -8.473  0.00  0.00    -0.267 OA
ATOM     24  N   UNL     1       5.464   6.219 -10.441  0.00  0.00    -0.282 N 
ATOM     25  C   UNL     1       6.788   6.187  -9.857  0.00  0.00    +0.110 C 
ATOM     26  C   UNL     1       7.759   6.874 -10.770  0.00  0.00    +0.028 C 
ATOM     27  C   UNL     1       7.734   6.392 -12.180  0.00  0.00    +0.043 C 
ATOM     28  C   UNL     1       6.718   5.085 -12.205  0.00  0.00    +0.208 C 
ATOM     29  O   UNL     1       6.448   5.253 -13.695  0.00  0.00    -0.215 OA
ATOM     30  C   UNL     1       5.456   6.021 -11.787  0.00  0.00    +0.153 A 
ATOM     31  N   UNL     1       4.296   5.741 -12.394  0.00  0.00    -0.234 NA
ENDBRANCH  18  21
ENDBRANCH  17  18
ENDBRANCH   1  17
TORSDOF 4
ENDMDL
MODEL 5
REMARK VINA RESULT:      -9.3      3.240      9.013
REMARK  Name = 
REMARK  4 active torsions:
REMARK  status: ('A' for Active; 'I' for Inactive)
REMARK    1  A    between atoms: C_8  and  C_9
REMARK    2  A    between atoms: C_9  and  C_10
REMARK    3  A    between atoms: C_10  and  N_11
REMARK    4  A    between atoms: C_14  and  C_15
REMARK                            x       y       z     vdW  Elec       q    Type
REMARK                         _______ _______ _______ _____ _____    ______ ____
ROOT
ATOM      1  N   UNL     1      -0.416   5.143  -6.827  0.00  0.00    -0.272 NA
ATOM      2  C   UNL     1      -1.588   5.705  -6.245  0.00  0.00    +0.072 C 
ATOM      3  C   UNL     1      -1.459   6.254  -4.882  0.00  0.00    +0.023 C 
ATOM      4  C   UNL     1      -0.108   6.653  -4.429  0.00  0.00    +0.046 C 
ATOM      5  C   UNL     1       1.016   6.380  -5.358  0.00  0.00    +0.023 C 
ATOM      6  C   UNL     1       0.708   5.008  -5.953  0.00  0.00    +0.072 C 
ENDROOT
BRANCH   4   7
ATOM      7  C   UNL     1       0.222   5.813  -3.235  0.00  0.00    +0.100 A 
ATOM      8  C   UNL     1       1.303   6.093  -2.447  0.00  0.00    +0.054 A 
ATOM      9  C   UNL     1       1.383   5.016  -1.573  0.00  0.00    +0.179 A 
ATOM     10  C   UNL     1       2.649   4.687  -1.103  0.00  0.00    +0.070 A 
ATOM     11  C   UNL     1       3.555   5.738  -1.020  0.00  0.00    +0.143 A 
ATOM     12  C   UNL     1       3.452   6.859  -1.821  0.00  0.00    +0.030 A 
ATOM     13  F   UNL     1       4.795   5.403  -0.593  0.00  0.00    -0.204 F 
ATOM     14  O   UNL     1       0.253   4.355  -1.741  0.00  0.00    -0.354 OA
ATOM     15  C   UNL     1       2.286   7.048  -2.511  0.00  0.00    +0.007 A 
ATOM     16  N   UNL     1      -0.581   5.059  -2.468  0.00  0.00    -0.081 NA
ENDBRANCH   4   7
BRANCH   1  17
ATOM     17  C   UNL     1      -0.024   5.818  -8.032  0.00  0.00    +0.077 C 
BRANCH  17  18
ATOM     18  C   UNL     1       1.045   5.006  -8.713  0.00  0.00    +0.050 C 
BRANCH  18  21
ATOM     19  C   UNL     1       0.516   6.669 -10.933  0.00  0.00    +0.052 C 
ATOM     20  C   UNL     1       1.738   6.161 -10.706  0.00  0.00    +0.061 A 
ATOM     21  C   UNL     1       2.038   5.891  -9.372  0.00  0.00    +0.049 A 
ATOM     22  C   UNL     1       3.355   5.716  -8.963  0.00  0.00    +0.259 A 
ATOM     23  O   UNL     1       3.622   5.069  -7.913  0.00  0.00    -0.267 OA
ATOM     24  N   UNL     1       4.293   6.074  -9.878  0.00  0.00    -0.282 N 
ATOM     25  C   UNL     1       5.693   5.850  -9.586  0.00  0.00    +0.110 C 
ATOM     26  C   UNL     1       6.540   6.649 -10.530  0.00  0.00    +0.028 C 
ATOM     27  C   UNL     1       6.209   6.464 -11.971  0.00  0.00    +0.043 C 
ATOM     28  C   UNL     1       5.086   5.249 -12.037  0.00  0.00    +0.208 C 
ATOM     29  O   UNL     1       4.563   5.729 -13.384  0.00  0.00    -0.215 OA
ATOM     30  C   UNL     1       4.018   6.152 -11.208  0.00  0.00    +0.153 A 
ATOM     31  N   UNL     1       2.745   6.067 -11.613  0.00  0.00    -0.234 NA
ENDBRANCH  18  21
ENDBRANCH  17  18
ENDBRANCH   1  17
TORSDOF 4
ENDMDL
MODEL 6
REMARK VINA RESULT:      -9.3      1.623      2.081
REMARK  Name = 
REMARK  4 active torsions:
REMARK  status: ('A' for Active; 'I' for Inactive)
REMARK    1  A    between atoms: C_8  and  C_9
REMARK    2  A    between atoms: C_9  and  C_10
REMARK    3  A    between atoms: C_10  and  N_11
REMARK    4  A    between atoms: C_14  and  C_15
REMARK                            x       y       z     vdW  Elec       q    Type
REMARK                         _______ _______ _______ _____ _____    ______ ____
ROOT
ATOM      1  N   UNL     1       2.477   5.739  -7.491  0.00  0.00    -0.272 NA
ATOM      2  C   UNL     1       2.411   6.779  -8.460  0.00  0.00    +0.072 C 
ATOM      3  C   UNL     1       3.366   6.708  -9.582  0.00  0.00    +0.023 C 
ATOM      4  C   UNL     1       3.936   5.383  -9.914  0.00  0.00    +0.046 C 
ATOM      5  C   UNL     1       3.563   4.255  -9.026  0.00  0.00    +0.023 C 
ATOM      6  C   UNL     1       3.583   4.841  -7.616  0.00  0.00    +0.072 C 
ENDROOT
BRANCH   4   7
ATOM      7  C   UNL     1       5.419   5.483  -9.735  0.00  0.00    +0.100 A 
ATOM      8  C   UNL     1       6.217   6.021 -10.705  0.00  0.00    +0.054 A 
ATOM      9  C   UNL     1       7.512   5.780 -10.262  0.00  0.00    +0.179 A 
ATOM     10  C   UNL     1       8.486   5.628 -11.240  0.00  0.00    +0.070 A 
ATOM     11  C   UNL     1       8.258   6.305 -12.433  0.00  0.00    +0.143 A 
ATOM     12  C   UNL     1       6.985   6.629 -12.858  0.00  0.00    +0.030 A 
ATOM     13  F   UNL     1       9.196   6.125 -13.392  0.00  0.00    -0.204 F 
ATOM     14  O   UNL     1       7.375   5.375  -9.014  0.00  0.00    -0.354 OA
ATOM     15  C   UNL     1       5.961   6.517 -11.958  0.00  0.00    +0.007 A 
ATOM     16  N   UNL     1       6.143   5.563  -8.607  0.00  0.00    -0.081 NA
ENDBRANCH   4   7
BRANCH   1  17
ATOM     17  C   UNL     1       1.250   4.997  -7.399  0.00  0.00    +0.077 C 
BRANCH  17  18
ATOM     18  C   UNL     1       1.110   4.471  -5.996  0.00  0.00    +0.050 C 
BRANCH  18  21
ATOM     19  C   UNL     1       2.635   5.894  -4.092  0.00  0.00    +0.052 C 
ATOM     20  C   UNL     1       1.323   5.670  -3.921  0.00  0.00    +0.061 A 
ATOM     21  C   UNL     1       0.581   5.523  -5.091  0.00  0.00    +0.049 A 
ATOM     22  C   UNL     1      -0.804   5.650  -5.074  0.00  0.00    +0.259 A 
ATOM     23  O   UNL     1      -1.511   5.117  -5.972  0.00  0.00    -0.267 OA
ATOM     24  N   UNL     1      -1.319   6.165  -3.927  0.00  0.00    -0.282 N 
ATOM     25  C   UNL     1      -2.755   6.258  -3.770  0.00  0.00    +0.110 C 
ATOM     26  C   UNL     1      -3.080   7.184  -2.637  0.00  0.00    +0.028 C 
ATOM     27  C   UNL     1      -2.375   6.875  -1.360  0.00  0.00    +0.043 C 
ATOM     28  C   UNL     1      -1.576   5.446  -1.605  0.00  0.00    +0.208 C 
ATOM     29  O   UNL     1      -0.577   5.750  -0.497  0.00  0.00    -0.215 OA
ATOM     30  C   UNL     1      -0.641   6.130  -2.747  0.00  0.00    +0.153 A 
ATOM     31  N   UNL     1       0.644   5.758  -2.748  0.00  0.00    -0.234 NA
ENDBRANCH  18  21
ENDBRANCH  17  18
ENDBRANCH   1  17
TORSDOF 4
ENDMDL
MODEL 7
REMARK VINA RESULT:      -9.1      3.803     10.186
REMARK  Name = 
REMARK  4 active torsions:
REMARK  status: ('A' for Active; 'I' for Inactive)
REMARK    1  A    between atoms: C_8  and  C_9
REMARK    2  A    between atoms: C_9  and  C_10
REMARK    3  A    between atoms: C_10  and  N_11
REMARK    4  A    between atoms: C_14  and  C_15
REMARK                            x       y       z     vdW  Elec       q    Type
REMARK                         _______ _______ _______ _____ _____    ______ ____
ROOT
ATOM      1  N   UNL     1      -0.028   5.419  -6.992  0.00  0.00    -0.272 NA
ATOM      2  C   UNL     1      -1.418   5.245  -6.737  0.00  0.00    +0.072 C 
ATOM      3  C   UNL     1      -1.909   5.652  -5.407  0.00  0.00    +0.023 C 
ATOM      4  C   UNL     1      -1.107   6.642  -4.654  0.00  0.00    +0.046 C 
ATOM      5  C   UNL     1       0.173   7.071  -5.269  0.00  0.00    +0.023 C 
ATOM      6  C   UNL     1       0.768   5.797  -5.867  0.00  0.00    +0.072 C 
ENDROOT
BRANCH   4   7
ATOM      7  C   UNL     1      -0.671   5.981  -3.383  0.00  0.00    +0.100 A 
ATOM      8  C   UNL     1      -1.090   6.438  -2.166  0.00  0.00    +0.054 A 
ATOM      9  C   UNL     1      -0.351   5.703  -1.247  0.00  0.00    +0.179 A 
ATOM     10  C   UNL     1      -0.076   6.321  -0.032  0.00  0.00    +0.070 A 
ATOM     11  C   UNL     1      -1.008   7.260   0.394  0.00  0.00    +0.143 A 
ATOM     12  C   UNL     1      -1.814   7.946  -0.493  0.00  0.00    +0.030 A 
ATOM     13  F   UNL     1      -0.716   7.880   1.561  0.00  0.00    -0.204 F 
ATOM     14  O   UNL     1       0.220   4.748  -1.954  0.00  0.00    -0.354 OA
ATOM     15  C   UNL     1      -1.876   7.495  -1.783  0.00  0.00    +0.007 A 
ATOM     16  N   UNL     1      -0.284   4.715  -3.164  0.00  0.00    -0.081 NA
ENDBRANCH   4   7
BRANCH   1  17
ATOM     17  C   UNL     1       0.220   6.309  -8.092  0.00  0.00    +0.077 C 
BRANCH  17  18
ATOM     18  C   UNL     1       0.408   5.491  -9.341  0.00  0.00    +0.050 C 
BRANCH  18  21
ATOM     19  C   UNL     1      -0.376   7.304 -11.359  0.00  0.00    +0.052 C 
ATOM     20  C   UNL     1       0.726   6.547 -11.480  0.00  0.00    +0.061 A 
ATOM     21  C   UNL     1       1.333   6.174 -10.282  0.00  0.00    +0.049 A 
ATOM     22  C   UNL     1       2.645   5.716 -10.264  0.00  0.00    +0.259 A 
ATOM     23  O   UNL     1       3.061   4.991  -9.319  0.00  0.00    -0.267 OA
ATOM     24  N   UNL     1       3.334   5.903 -11.420  0.00  0.00    -0.282 N 
ATOM     25  C   UNL     1       4.680   5.383 -11.538  0.00  0.00    +0.110 C 
ATOM     26  C   UNL     1       5.368   6.023 -12.707  0.00  0.00    +0.028 C 
ATOM     27  C   UNL     1       4.606   5.960 -13.986  0.00  0.00    +0.043 C 
ATOM     28  C   UNL     1       3.284   5.007 -13.693  0.00  0.00    +0.208 C 
ATOM     29  O   UNL     1       2.508   5.633 -14.845  0.00  0.00    -0.215 OA
ATOM     30  C   UNL     1       2.711   6.083 -12.616  0.00  0.00    +0.153 A 
ATOM     31  N   UNL     1       1.387   6.277 -12.635  0.00  0.00    -0.234 NA
ENDBRANCH  18  21
ENDBRANCH  17  18
ENDBRANCH   1  17
TORSDOF 4
ENDMDL
MODEL 8
REMARK VINA RESULT:      -9.1      2.034      2.883
REMARK  Name = 
REMARK  4 active torsions:
REMARK  status: ('A' for Active; 'I' for Inactive)
REMARK    1  A    between atoms: C_8  and  C_9
REMARK    2  A    between atoms: C_9  and  C_10
REMARK    3  A    between atoms: C_10  and  N_11
REMARK    4  A    between atoms: C_14  and  C_15
REMARK                            x       y       z     vdW  Elec       q    Type
REMARK                         _______ _______ _______ _____ _____    ______ ____
ROOT
ATOM      1  N   UNL     1       1.634   5.844  -8.946  0.00  0.00    -0.272 NA
ATOM      2  C   UNL     1       2.208   4.551  -8.787  0.00  0.00    +0.072 C 
ATOM      3  C   UNL     1       3.587   4.367  -9.278  0.00  0.00    +0.023 C 
ATOM      4  C   UNL     1       4.434   5.573  -9.410  0.00  0.00    +0.046 C 
ATOM      5  C   UNL     1       3.789   6.877  -9.120  0.00  0.00    +0.023 C 
ATOM      6  C   UNL     1       2.393   6.769  -9.730  0.00  0.00    +0.072 C 
ENDROOT
BRANCH   4   7
ATOM      7  C   UNL     1       4.811   5.692 -10.853  0.00  0.00    +0.100 A 
ATOM      8  C   UNL     1       6.098   5.493 -11.269  0.00  0.00    +0.054 A 
ATOM      9  C   UNL     1       6.089   5.858 -12.610  0.00  0.00    +0.179 A 
ATOM     10  C   UNL     1       7.278   6.357 -13.127  0.00  0.00    +0.070 A 
ATOM     11  C   UNL     1       8.442   5.894 -12.526  0.00  0.00    +0.143 A 
ATOM     12  C   UNL     1       8.463   5.448 -11.219  0.00  0.00    +0.030 A 
ATOM     13  F   UNL     1       9.594   6.410 -13.014  0.00  0.00    -0.204 F 
ATOM     14  O   UNL     1       4.813   5.987 -12.919  0.00  0.00    -0.354 OA
ATOM     15  C   UNL     1       7.263   5.211 -10.603  0.00  0.00    +0.007 A 
ATOM     16  N   UNL     1       4.061   5.520 -11.953  0.00  0.00    -0.081 NA
ENDBRANCH   4   7
BRANCH   1  17
ATOM     17  C   UNL     1       1.275   6.444  -7.691  0.00  0.00    +0.077 C 
BRANCH  17  18
ATOM     18  C   UNL     1       0.473   5.450  -6.895  0.00  0.00    +0.050 C 
BRANCH  18  21
ATOM     19  C   UNL     1      -0.641   7.168  -4.951  0.00  0.00    +0.052 C 
ATOM     20  C   UNL     1       0.619   6.716  -4.854  0.00  0.00    +0.061 A 
ATOM     21  C   UNL     1       0.864   5.486  -5.463  0.00  0.00    +0.049 A 
ATOM     22  C   UNL     1       1.994   4.746  -5.136  0.00  0.00    +0.259 A 
ATOM     23  O   UNL     1       2.457   3.889  -5.938  0.00  0.00    -0.267 OA
ATOM     24  N   UNL     1       2.666   5.179  -4.037  0.00  0.00    -0.282 N 
ATOM     25  C   UNL     1       3.906   4.533  -3.661  0.00  0.00    +0.110 C 
ATOM     26  C   UNL     1       4.257   4.897  -2.250  0.00  0.00    +0.028 C 
ATOM     27  C   UNL     1       4.255   6.361  -1.968  0.00  0.00    +0.043 C 
ATOM     28  C   UNL     1       4.026   7.114  -3.424  0.00  0.00    +0.208 C 
ATOM     29  O   UNL     1       3.481   8.369  -2.753  0.00  0.00    -0.215 OA
ATOM     30  C   UNL     1       2.548   6.450  -3.568  0.00  0.00    +0.153 A 
ATOM     31  N   UNL     1       1.600   7.245  -4.079  0.00  0.00    -0.234 NA
ENDBRANCH  18  21
ENDBRANCH  17  18
ENDBRANCH   1  17
TORSDOF 4
ENDMDL
MODEL 9
REMARK VINA RESULT:      -9.1      4.156      9.599
REMARK  Name = 
REMARK  4 active torsions:
REMARK  status: ('A' for Active; 'I' for Inactive)
REMARK    1  A    between atoms: C_8  and  C_9
REMARK    2  A    between atoms: C_9  and  C_10
REMARK    3  A    between atoms: C_10  and  N_11
REMARK    4  A    between atoms: C_14  and  C_15
REMARK                            x       y       z     vdW  Elec       q    Type
REMARK                         _______ _______ _______ _____ _____    ______ ____
ROOT
ATOM      1  N   UNL     1       3.695   6.681  -4.063  0.00  0.00    -0.272 NA
ATOM      2  C   UNL     1       4.425   6.240  -2.923  0.00  0.00    +0.072 C 
ATOM      3  C   UNL     1       3.639   5.738  -1.780  0.00  0.00    +0.023 C 
ATOM      4  C   UNL     1       2.269   5.250  -2.053  0.00  0.00    +0.046 C 
ATOM      5  C   UNL     1       1.774   5.392  -3.444  0.00  0.00    +0.023 C 
ATOM      6  C   UNL     1       2.277   6.760  -3.902  0.00  0.00    +0.072 C 
ENDROOT
BRANCH   4   7
ATOM      7  C   UNL     1       1.329   6.109  -1.266  0.00  0.00    +0.100 A 
ATOM      8  C   UNL     1      -0.024   5.940  -1.347  0.00  0.00    +0.054 A 
ATOM      9  C   UNL     1      -0.551   7.010  -0.633  0.00  0.00    +0.179 A 
ATOM     10  C   UNL     1      -1.800   7.470  -1.032  0.00  0.00    +0.070 A 
ATOM     11  C   UNL     1      -2.636   6.524  -1.613  0.00  0.00    +0.143 A 
ATOM     12  C   UNL     1      -2.141   5.407  -2.258  0.00  0.00    +0.030 A 
ATOM     13  F   UNL     1      -3.838   6.987  -2.028  0.00  0.00    -0.204 F 
ATOM     14  O   UNL     1       0.481   7.544  -0.010  0.00  0.00    -0.354 OA
ATOM     15  C   UNL     1      -0.820   5.099  -2.083  0.00  0.00    +0.007 A 
ATOM     16  N   UNL     1       1.528   6.762  -0.110  0.00  0.00    -0.081 NA
ENDBRANCH   4   7
BRANCH   1  17
ATOM     17  C   UNL     1       4.015   5.928  -5.244  0.00  0.00    +0.077 C 
BRANCH  17  18
ATOM     18  C   UNL     1       3.552   6.702  -6.448  0.00  0.00    +0.050 C 
BRANCH  18  21
ATOM     19  C   UNL     1       5.325   5.388  -8.210  0.00  0.00    +0.052 C 
ATOM     20  C   UNL     1       4.074   5.707  -8.577  0.00  0.00    +0.061 A 
ATOM     21  C   UNL     1       3.145   5.781  -7.540  0.00  0.00    +0.049 A 
ATOM     22  C   UNL     1       1.781   5.740  -7.806  0.00  0.00    +0.259 A 
ATOM     23  O   UNL     1       0.951   6.222  -6.988  0.00  0.00    -0.267 OA
ATOM     24  N   UNL     1       1.454   5.376  -9.074  0.00  0.00    -0.282 N 
ATOM     25  C   UNL     1       0.065   5.386  -9.481  0.00  0.00    +0.110 C 
ATOM     26  C   UNL     1      -0.096   4.601 -10.748  0.00  0.00    +0.028 C 
ATOM     27  C   UNL     1       0.835   4.993 -11.844  0.00  0.00    +0.043 C 
ATOM     28  C   UNL     1       1.638   6.339 -11.312  0.00  0.00    +0.208 C 
ATOM     29  O   UNL     1       2.803   6.088 -12.261  0.00  0.00    -0.215 OA
ATOM     30  C   UNL     1       2.328   5.488 -10.110  0.00  0.00    +0.153 A 
ATOM     31  N   UNL     1       3.608   5.779  -9.850  0.00  0.00    -0.234 NA
ENDBRANCH  18  21
ENDBRANCH  17  18
ENDBRANCH   1  17
TORSDOF 4
ENDMDL
