MODEL 1
REMARK VINA RESULT:      -6.6      0.000      0.000
REMARK  Name = 
REMARK  4 active torsions:
REMARK  status: ('A' for Active; 'I' for Inactive)
REMARK    1  A    between atoms: C_2  and  N_5
REMARK    2  A    between atoms: N_5  and  C_6
REMARK    3  A    between atoms: C_6  and  C_7
REMARK    4  A    between atoms: C_7  and  C_9
REMARK                            x       y       z     vdW  Elec       q    Type
REMARK                         _______ _______ _______ _____ _____    ______ ____
ROOT
ATOM      1  C   UNL     1       4.095   5.330 -11.040  0.00  0.00    +0.192 C 
ATOM      2  O   UNL     1       2.987   6.332 -11.351  0.00  0.00    -0.217 OA
ENDROOT
BRANCH   1   3
ATOM      3  C   UNL     1       3.853   5.507  -9.441  0.00  0.00    +0.015 A 
ATOM      4  C   UNL     1       3.035   4.519  -8.931  0.00  0.00    +0.040 A 
ATOM      5  C   UNL     1       2.444   4.721  -7.709  0.00  0.00    +0.199 A 
ATOM      6  O   UNL     1       2.207   3.674  -6.829  0.00  0.00    -0.286 OA
ATOM      7  C   UNL     1       2.150   6.008  -7.320  0.00  0.00    +0.084 A 
ATOM      8  C   UNL     1       2.670   7.050  -8.066  0.00  0.00    +0.199 A 
ATOM      9  O   UNL     1       2.134   8.326  -7.867  0.00  0.00    -0.286 OA
ATOM     10  C   UNL     1       3.559   6.819  -9.099  0.00  0.00    +0.040 A 
ENDBRANCH   1   3
BRANCH   1  11
ATOM     11  C   UNL     1       5.252   6.515 -11.040  0.00  0.00    +0.126 C 
BRANCH  11  12
ATOM     12  N   UNL     1       6.319   5.956 -11.861  0.00  0.00    -0.218 NA
BRANCH  12  14
ATOM     13  C   UNL     1       7.447   6.342 -11.116  0.00  0.00    +0.017 C 
ATOM     14  C   UNL     1       7.539   6.270 -11.160  0.00  0.00    +0.060 C 
ATOM     15  C   UNL     1       8.758   5.815 -11.896  0.00  0.00    +0.017 C 
ATOM     16  C   UNL     1       7.550   6.064  -9.689  0.00  0.00    +0.017 C 
ENDBRANCH  12  14
ENDBRANCH  11  12
ENDBRANCH   1  11
TORSDOF 4
ENDMDL
MODEL 2
REMARK VINA RESULT:      -6.5      4.484      7.489
REMARK  Name = 
REMARK  4 active torsions:
REMARK  status: ('A' for Active; 'I' for Inactive)
REMARK    1  A    between atoms: C_2  and  N_5
REMARK    2  A    between atoms: N_5  and  C_6
REMARK    3  A    between atoms: C_6  and  C_7
REMARK    4  A    between atoms: C_7  and  C_9
REMARK                            x       y       z     vdW  Elec       q    Type
REMARK                         _______ _______ _______ _____ _____    ______ ____
ROOT
ATOM      1  C   UNL     1       1.183   5.435  -4.207  0.00  0.00    +0.192 C 
ATOM      2  O   UNL     1       2.156   6.609  -4.161  0.00  0.00    -0.217 OA
ENDROOT
BRANCH   1   3
ATOM      3  C   UNL     1       1.155   5.477  -5.833  0.00  0.00    +0.015 A 
ATOM      4  C   UNL     1       2.020   4.554  -6.387  0.00  0.00    +0.040 A 
ATOM      5  C   UNL     1       2.387   4.702  -7.700  0.00  0.00    +0.199 A 
ATOM      6  O   UNL     1       2.636   3.609  -8.519  0.00  0.00    -0.286 OA
ATOM      7  C   UNL     1       2.435   5.969  -8.235  0.00  0.00    +0.084 A 
ATOM      8  C   UNL     1       1.890   7.008  -7.502  0.00  0.00    +0.199 A 
ATOM      9  O   UNL     1       2.204   8.315  -7.888  0.00  0.00    -0.286 OA
ATOM     10  C   UNL     1       1.207   6.773  -6.324  0.00  0.00    +0.040 A 
ENDBRANCH   1   3
BRANCH   1  11
ATOM     11  C   UNL     1      -0.130   6.439  -4.116  0.00  0.00    +0.126 C 
BRANCH  11  12
ATOM     12  N   UNL     1      -1.267   5.535  -4.240  0.00  0.00    -0.218 NA
BRANCH  12  14
ATOM     13  C   UNL     1      -2.284   6.316  -4.815  0.00  0.00    +0.017 C 
ATOM     14  C   UNL     1      -2.277   6.291  -4.937  0.00  0.00    +0.060 C 
ATOM     15  C   UNL     1      -2.580   5.732  -6.291  0.00  0.00    +0.017 C 
ATOM     16  C   UNL     1      -2.204   7.771  -4.845  0.00  0.00    +0.017 C 
ENDBRANCH  12  14
ENDBRANCH  11  12
ENDBRANCH   1  11
TORSDOF 4
ENDMDL
MODEL 3
REMARK VINA RESULT:      -6.3      3.074      5.393
REMARK  Name = 
REMARK  4 active torsions:
REMARK  status: ('A' for Active; 'I' for Inactive)
REMARK    1  A    between atoms: C_2  and  N_5
REMARK    2  A    between atoms: N_5  and  C_6
REMARK    3  A    between atoms: C_6  and  C_7
REMARK    4  A    between atoms: C_7  and  C_9
REMARK                            x       y       z     vdW  Elec       q    Type
REMARK                         _______ _______ _______ _____ _____    ______ ____
ROOT
ATOM      1  C   UNL     1       3.536   5.975  -8.730  0.00  0.00    +0.192 C 
ATOM      2  O   UNL     1       3.310   7.434  -9.113  0.00  0.00    -0.217 OA
ENDROOT
BRANCH   1   3
ATOM      3  C   UNL     1       4.819   5.876  -9.724  0.00  0.00    +0.015 A 
ATOM      4  C   UNL     1       5.966   5.508  -9.049  0.00  0.00    +0.040 A 
ATOM      5  C   UNL     1       7.180   5.730  -9.647  0.00  0.00    +0.199 A 
ATOM      6  O   UNL     1       8.257   4.875  -9.457  0.00  0.00    -0.286 OA
ATOM      7  C   UNL     1       7.306   6.789 -10.517  0.00  0.00    +0.084 A 
ATOM      8  C   UNL     1       6.155   7.436 -10.927  0.00  0.00    +0.199 A 
ATOM      9  O   UNL     1       6.293   8.681 -11.551  0.00  0.00    -0.286 OA
ATOM     10  C   UNL     1       4.904   6.965 -10.578  0.00  0.00    +0.040 A 
ENDBRANCH   1   3
BRANCH   1  11
ATOM     11  C   UNL     1       2.517   5.439  -9.920  0.00  0.00    +0.126 C 
BRANCH  11  12
ATOM     12  N   UNL     1       1.382   6.350  -9.840  0.00  0.00    -0.218 NA
BRANCH  12  14
ATOM     13  C   UNL     1       0.704   6.014 -11.025  0.00  0.00    +0.017 C 
ATOM     14  C   UNL     1       0.605   6.090 -11.026  0.00  0.00    +0.060 C 
ATOM     15  C   UNL     1      -0.314   7.219 -11.370  0.00  0.00    +0.017 C 
ATOM     16  C   UNL     1       0.047   4.723 -11.187  0.00  0.00    +0.017 C 
ENDBRANCH  12  14
ENDBRANCH  11  12
ENDBRANCH   1  11
TORSDOF 4
ENDMDL
MODEL 4
REMARK VINA RESULT:      -6.3      1.078      2.119
REMARK  Name = 
REMARK  4 active torsions:
REMARK  status: ('A' for Active; 'I' for Inactive)
REMARK    1  A    between atoms: C_2  and  N_5
REMARK    2  A    between atoms: N_5  and  C_6
REMARK    3  A    between atoms: C_6  and  C_7
REMARK    4  A    between atoms: C_7  and  C_9
REMARK                            x       y       z     vdW  Elec       q    Type
REMARK                         _______ _______ _______ _____ _____    ______ ____
ROOT
ATOM      1  C   UNL     1       4.314   5.201 -10.599  0.00  0.00    +0.192 C 
ATOM      2  O   UNL     1       3.394   6.069 -11.451  0.00  0.00    -0.217 OA
ENDROOT
BRANCH   1   3
ATOM      3  C   UNL     1       3.464   5.554  -9.258  0.00  0.00    +0.015 A 
ATOM      4  C   UNL     1       3.189   6.903  -9.163  0.00  0.00    +0.040 A 
ATOM      5  C   UNL     1       2.814   7.413  -7.946  0.00  0.00    +0.199 A 
ATOM      6  O   UNL     1       1.915   8.466  -7.839  0.00  0.00    -0.286 OA
ATOM      7  C   UNL     1       3.286   6.811  -6.802  0.00  0.00    +0.084 A 
ATOM      8  C   UNL     1       3.922   5.589  -6.922  0.00  0.00    +0.199 A 
ATOM      9  O   UNL     1       4.663   5.128  -5.829  0.00  0.00    -0.286 OA
ATOM     10  C   UNL     1       3.979   4.926  -8.133  0.00  0.00    +0.040 A 
ENDBRANCH   1   3
BRANCH   1  11
ATOM     11  C   UNL     1       5.353   6.461 -10.325  0.00  0.00    +0.126 C 
BRANCH  11  12
ATOM     12  N   UNL     1       6.256   6.421 -11.468  0.00  0.00    -0.218 NA
BRANCH  12  14
ATOM     13  C   UNL     1       7.512   6.504 -10.843  0.00  0.00    +0.017 C 
ATOM     14  C   UNL     1       7.582   6.421 -10.903  0.00  0.00    +0.060 C 
ATOM     15  C   UNL     1       8.598   5.821 -11.822  0.00  0.00    +0.017 C 
ATOM     16  C   UNL     1       7.709   6.063  -9.467  0.00  0.00    +0.017 C 
ENDBRANCH  12  14
ENDBRANCH  11  12
ENDBRANCH   1  11
TORSDOF 4
ENDMDL
MODEL 5
REMARK VINA RESULT:      -6.2      1.584      2.313
REMARK  Name = 
REMARK  4 active torsions:
REMARK  status: ('A' for Active; 'I' for Inactive)
REMARK    1  A    between atoms: C_2  and  N_5
REMARK    2  A    between atoms: N_5  and  C_6
REMARK    3  A    between atoms: C_6  and  C_7
REMARK    4  A    between atoms: C_7  and  C_9
REMARK                            x       y       z     vdW  Elec       q    Type
REMARK                         _______ _______ _______ _____ _____    ______ ____
ROOT
ATOM      1  C   UNL     1       4.391   5.485 -11.392  0.00  0.00    +0.192 C 
ATOM      2  O   UNL     1       4.098   5.987 -12.802  0.00  0.00    -0.217 OA
ENDROOT
BRANCH   1   3
ATOM      3  C   UNL     1       3.093   6.269 -10.804  0.00  0.00    +0.015 A 
ATOM      4  C   UNL     1       3.323   6.769  -9.538  0.00  0.00    +0.040 A 
ATOM      5  C   UNL     1       2.246   7.125  -8.767  0.00  0.00    +0.199 A 
ATOM      6  O   UNL     1       2.305   8.183  -7.870  0.00  0.00    -0.286 OA
ATOM      7  C   UNL     1       1.054   6.461  -8.946  0.00  0.00    +0.084 A 
ATOM      8  C   UNL     1       0.928   5.631 -10.046  0.00  0.00    +0.199 A 
ATOM      9  O   UNL     1      -0.143   4.732 -10.066  0.00  0.00    -0.286 OA
ATOM     10  C   UNL     1       1.918   5.560 -11.007  0.00  0.00    +0.040 A 
ENDBRANCH   1   3
BRANCH   1  11
ATOM     11  C   UNL     1       5.373   6.778 -11.068  0.00  0.00    +0.126 C 
BRANCH  11  12
ATOM     12  N   UNL     1       6.418   6.683 -12.080  0.00  0.00    -0.218 NA
BRANCH  12  14
ATOM     13  C   UNL     1       7.584   6.687 -11.297  0.00  0.00    +0.017 C 
ATOM     14  C   UNL     1       7.653   6.593 -11.342  0.00  0.00    +0.060 C 
ATOM     15  C   UNL     1       8.710   5.838 -12.082  0.00  0.00    +0.017 C 
ATOM     16  C   UNL     1       7.556   6.322  -9.885  0.00  0.00    +0.017 C 
ENDBRANCH  12  14
ENDBRANCH  11  12
ENDBRANCH   1  11
TORSDOF 4
ENDMDL
MODEL 6
REMARK VINA RESULT:      -6.1      4.575      7.945
REMARK  Name = 
REMARK  4 active torsions:
REMARK  status: ('A' for Active; 'I' for Inactive)
REMARK    1  A    between atoms: C_2  and  N_5
REMARK    2  A    between atoms: N_5  and  C_6
REMARK    3  A    between atoms: C_6  and  C_7
REMARK    4  A    between atoms: C_7  and  C_9
REMARK                            x       y       z     vdW  Elec       q    Type
REMARK                         _______ _______ _______ _____ _____    ______ ____
ROOT
ATOM      1  C   UNL     1      -0.576   5.041  -6.209  0.00  0.00    +0.192 C 
ATOM      2  O   UNL     1       0.727   4.283  -5.977  0.00  0.00    -0.217 OA
ENDROOT
BRANCH   1   3
ATOM      3  C   UNL     1       0.205   6.202  -7.037  0.00  0.00    +0.015 A 
ATOM      4  C   UNL     1       0.522   5.796  -8.318  0.00  0.00    +0.040 A 
ATOM      5  C   UNL     1       1.480   6.493  -9.010  0.00  0.00    +0.199 A 
ATOM      6  O   UNL     1       1.415   6.655 -10.387  0.00  0.00    -0.286 OA
ATOM      7  C   UNL     1       2.489   7.110  -8.306  0.00  0.00    +0.084 A 
ATOM      8  C   UNL     1       2.365   7.198  -6.931  0.00  0.00    +0.199 A 
ATOM      9  O   UNL     1       3.505   7.538  -6.194  0.00  0.00    -0.286 OA
ATOM     10  C   UNL     1       1.212   6.792  -6.287  0.00  0.00    +0.040 A 
ENDBRANCH   1   3
BRANCH   1  11
ATOM     11  C   UNL     1      -0.412   5.881  -4.791  0.00  0.00    +0.126 C 
BRANCH  11  12
ATOM     12  N   UNL     1      -1.619   5.545  -4.047  0.00  0.00    -0.218 NA
BRANCH  12  14
ATOM     13  C   UNL     1      -1.950   6.797  -3.503  0.00  0.00    +0.017 C 
ATOM     14  C   UNL     1      -2.072   6.789  -3.477  0.00  0.00    +0.060 C 
ATOM     15  C   UNL     1      -3.354   6.642  -2.722  0.00  0.00    +0.017 C 
ATOM     16  C   UNL     1      -1.945   8.007  -4.316  0.00  0.00    +0.017 C 
ENDBRANCH  12  14
ENDBRANCH  11  12
ENDBRANCH   1  11
TORSDOF 4
ENDMDL
MODEL 7
REMARK VINA RESULT:      -6.1      4.495      8.087
REMARK  Name = 
REMARK  4 active torsions:
REMARK  status: ('A' for Active; 'I' for Inactive)
REMARK    1  A    between atoms: C_2  and  N_5
REMARK    2  A    between atoms: N_5  and  C_6
REMARK    3  A    between atoms: C_6  and  C_7
REMARK    4  A    between atoms: C_7  and  C_9
REMARK                            x       y       z     vdW  Elec       q    Type
REMARK                         _______ _______ _______ _____ _____    ______ ____
ROOT
ATOM      1  C   UNL     1       1.046   5.091  -4.400  0.00  0.00    +0.192 C 
ATOM      2  O   UNL     1       1.833   5.936  -3.405  0.00  0.00    -0.217 OA
ENDROOT
BRANCH   1   3
ATOM      3  C   UNL     1       1.998   5.581  -5.624  0.00  0.00    +0.015 A 
ATOM      4  C   UNL     1       1.507   6.716  -6.236  0.00  0.00    +0.040 A 
ATOM      5  C   UNL     1       1.971   7.043  -7.485  0.00  0.00    +0.199 A 
ATOM      6  O   UNL     1       2.113   8.363  -7.891  0.00  0.00    -0.286 OA
ATOM      7  C   UNL     1       2.377   6.033  -8.326  0.00  0.00    +0.084 A 
ATOM      8  C   UNL     1       2.519   4.762  -7.798  0.00  0.00    +0.199 A 
ATOM      9  O   UNL     1       2.627   3.692  -8.693  0.00  0.00    -0.286 OA
ATOM     10  C   UNL     1       2.379   4.529  -6.444  0.00  0.00    +0.040 A 
ENDBRANCH   1   3
BRANCH   1  11
ATOM     11  C   UNL     1      -0.029   6.318  -4.687  0.00  0.00    +0.126 C 
BRANCH  11  12
ATOM     12  N   UNL     1      -1.252   5.867  -4.036  0.00  0.00    -0.218 NA
BRANCH  12  14
ATOM     13  C   UNL     1      -1.762   7.090  -3.570  0.00  0.00    +0.017 C 
ATOM     14  C   UNL     1      -1.881   7.065  -3.540  0.00  0.00    +0.060 C 
ATOM     15  C   UNL     1      -3.112   6.780  -2.741  0.00  0.00    +0.017 C 
ATOM     16  C   UNL     1      -1.957   8.225  -4.464  0.00  0.00    +0.017 C 
ENDBRANCH  12  14
ENDBRANCH  11  12
ENDBRANCH   1  11
TORSDOF 4
ENDMDL
MODEL 8
REMARK VINA RESULT:      -6.0      1.875      2.692
REMARK  Name = 
REMARK  4 active torsions:
REMARK  status: ('A' for Active; 'I' for Inactive)
REMARK    1  A    between atoms: C_2  and  N_5
REMARK    2  A    between atoms: N_5  and  C_6
REMARK    3  A    between atoms: C_6  and  C_7
REMARK    4  A    between atoms: C_7  and  C_9
REMARK                            x       y       z     vdW  Elec       q    Type
REMARK                         _______ _______ _______ _____ _____    ______ ____
ROOT
ATOM      1  C   UNL     1       4.352   4.451  -9.017  0.00  0.00    +0.192 C 
ATOM      2  O   UNL     1       3.572   5.154 -10.123  0.00  0.00    -0.217 OA
ENDROOT
BRANCH   1   3
ATOM      3  C   UNL     1       3.597   5.332  -7.876  0.00  0.00    +0.015 A 
ATOM      4  C   UNL     1       4.464   5.738  -6.881  0.00  0.00    +0.040 A 
ATOM      5  C   UNL     1       3.941   6.161  -5.686  0.00  0.00    +0.199 A 
ATOM      6  O   UNL     1       4.546   7.159  -4.934  0.00  0.00    -0.286 OA
ATOM      7  C   UNL     1       2.743   5.633  -5.263  0.00  0.00    +0.084 A 
ATOM      8  C   UNL     1       2.009   4.879  -6.162  0.00  0.00    +0.199 A 
ATOM      9  O   UNL     1       0.965   4.097  -5.657  0.00  0.00    -0.286 OA
ATOM     10  C   UNL     1       2.398   4.758  -7.482  0.00  0.00    +0.040 A 
ENDBRANCH   1   3
BRANCH   1  11
ATOM     11  C   UNL     1       5.589   5.548  -9.107  0.00  0.00    +0.126 C 
BRANCH  11  12
ATOM     12  N   UNL     1       5.501   6.060 -10.469  0.00  0.00    -0.218 NA
BRANCH  12  14
ATOM     13  C   UNL     1       6.729   6.733 -10.576  0.00  0.00    +0.017 C 
ATOM     14  C   UNL     1       6.713   6.814 -10.669  0.00  0.00    +0.060 C 
ATOM     15  C   UNL     1       6.482   8.081 -11.429  0.00  0.00    +0.017 C 
ATOM     16  C   UNL     1       7.936   6.051 -11.028  0.00  0.00    +0.017 C 
ENDBRANCH  12  14
ENDBRANCH  11  12
ENDBRANCH   1  11
TORSDOF 4
ENDMDL
MODEL 9
REMARK VINA RESULT:      -6.0      4.292      6.387
REMARK  Name = 
REMARK  4 active torsions:
REMARK  status: ('A' for Active; 'I' for Inactive)
REMARK    1  A    between atoms: C_2  and  N_5
REMARK    2  A    between atoms: N_5  and  C_6
REMARK    3  A    between atoms: C_6  and  C_7
REMARK    4  A    between atoms: C_7  and  C_9
REMARK                            x       y       z     vdW  Elec       q    Type
REMARK                         _______ _______ _______ _____ _____    ______ ____
ROOT
ATOM      1  C   UNL     1       1.455   6.464  -4.193  0.00  0.00    +0.192 C 
ATOM      2  O   UNL     1       1.352   4.975  -4.505  0.00  0.00    -0.217 OA
ENDROOT
BRANCH   1   3
ATOM      3  C   UNL     1      -0.157   6.571  -4.001  0.00  0.00    +0.015 A 
ATOM      4  C   UNL     1      -0.633   5.632  -3.109  0.00  0.00    +0.040 A 
ATOM      5  C   UNL     1      -1.974   5.345  -3.110  0.00  0.00    +0.199 A 
ATOM      6  O   UNL     1      -2.652   5.008  -1.946  0.00  0.00    -0.286 OA
ATOM      7  C   UNL     1      -2.677   5.470  -4.286  0.00  0.00    +0.084 A 
ATOM      8  C   UNL     1      -2.059   6.097  -5.352  0.00  0.00    +0.199 A 
ATOM      9  O   UNL     1      -2.637   5.955  -6.618  0.00  0.00    -0.286 OA
ATOM     10  C   UNL     1      -0.820   6.693  -5.213  0.00  0.00    +0.040 A 
ENDBRANCH   1   3
BRANCH   1  11
ATOM     11  C   UNL     1       1.335   6.871  -5.793  0.00  0.00    +0.126 C 
BRANCH  11  12
ATOM     12  N   UNL     1       2.719   6.889  -6.251  0.00  0.00    -0.218 NA
BRANCH  12  14
ATOM     13  C   UNL     1       2.563   6.379  -7.551  0.00  0.00    +0.017 C 
ATOM     14  C   UNL     1       2.679   6.378  -7.598  0.00  0.00    +0.060 C 
ATOM     15  C   UNL     1       4.013   5.891  -8.067  0.00  0.00    +0.017 C 
ATOM     16  C   UNL     1       1.876   7.137  -8.590  0.00  0.00    +0.017 C 
ENDBRANCH  12  14
ENDBRANCH  11  12
ENDBRANCH   1  11
TORSDOF 4
ENDMDL
