MODEL 1
REMARK VINA RESULT:      -4.4      0.000      0.000
REMARK  Name = 
REMARK  5 active torsions:
REMARK  status: ('A' for Active; 'I' for Inactive)
REMARK    1  A    between atoms: CE_2  and  CD_3
REMARK    2  A    between atoms: CD_3  and  CG_4
REMARK    3  A    between atoms: CG_4  and  CB_5
REMARK    4  A    between atoms: CB_5  and  CA_6
REMARK    5  A    between atoms: CA_6  and  C_8
REMARK                            x       y       z     vdW  Elec       q    Type
REMARK                         _______ _______ _______ _____ _____    ______ ____
ROOT
ATOM      1  CB  LYS A   1       6.556   5.862  -9.642  0.00  0.00    +0.031 C 
ENDROOT
BRANCH   1   2
ATOM      2  CA  LYS A   1       5.134   5.499 -10.410  0.00  0.00    +0.194 C 
ATOM      3  N   LYS A   1       4.624   6.996 -10.308  0.00  0.00    -0.121 NA
BRANCH   2   4
ATOM      4  C   LYS A   1       4.366   5.078  -9.044  0.00  0.00    +0.382 C 
ATOM      5  OXT LYS A   1       5.195   5.262  -7.928  0.00  0.00    -0.244 OA
ATOM      6  O   LYS A   1       3.770   3.995  -9.049  0.00  0.00    -0.244 OA
ENDBRANCH   2   4
ENDBRANCH   1   2
BRANCH   1   7
ATOM      7  CG  LYS A   1       7.249   6.665 -10.739  0.00  0.00    +0.004 C 
BRANCH   7   8
ATOM      8  CD  LYS A   1       8.401   5.838 -11.246  0.00  0.00    +0.021 C 
BRANCH   8  10
ATOM      9  NZ  LYS A   1       7.521   4.807 -13.190  0.00  0.00    -0.131 NA
ATOM     10  CE  LYS A   1       8.308   5.785 -12.742  0.00  0.00    +0.109 C 
ENDBRANCH   8  10
ENDBRANCH   7   8
ENDBRANCH   1   7
TORSDOF 5
ENDMDL
MODEL 2
REMARK VINA RESULT:      -4.4      2.894      4.475
REMARK  Name = 
REMARK  5 active torsions:
REMARK  status: ('A' for Active; 'I' for Inactive)
REMARK    1  A    between atoms: CE_2  and  CD_3
REMARK    2  A    between atoms: CD_3  and  CG_4
REMARK    3  A    between atoms: CG_4  and  CB_5
REMARK    4  A    between atoms: CB_5  and  CA_6
REMARK    5  A    between atoms: CA_6  and  C_8
REMARK                            x       y       z     vdW  Elec       q    Type
REMARK                         _______ _______ _______ _____ _____    ______ ____
ROOT
ATOM      1  CB  LYS A   1       7.364   6.476 -10.533  0.00  0.00    +0.031 C 
ENDROOT
BRANCH   1   2
ATOM      2  CA  LYS A   1       7.129   6.876 -12.123  0.00  0.00    +0.194 C 
ATOM      3  N   LYS A   1       5.989   5.788 -12.293  0.00  0.00    -0.121 NA
BRANCH   2   4
ATOM      4  C   LYS A   1       8.269   5.861 -12.670  0.00  0.00    +0.382 C 
ATOM      5  OXT LYS A   1       7.726   4.595 -12.934  0.00  0.00    -0.244 OA
ATOM      6  O   LYS A   1       9.333   5.825 -12.043  0.00  0.00    -0.244 OA
ENDBRANCH   2   4
ENDBRANCH   1   2
BRANCH   1   7
ATOM      7  CG  LYS A   1       5.949   6.044 -10.158  0.00  0.00    +0.004 C 
BRANCH   7   8
ATOM      8  CD  LYS A   1       6.016   5.410  -8.794  0.00  0.00    +0.021 C 
BRANCH   8  10
ATOM      9  NZ  LYS A   1       3.962   4.251  -9.024  0.00  0.00    -0.131 NA
ATOM     10  CE  LYS A   1       4.611   5.179  -8.322  0.00  0.00    +0.109 C 
ENDBRANCH   8  10
ENDBRANCH   7   8
ENDBRANCH   1   7
TORSDOF 5
ENDMDL
MODEL 3
REMARK VINA RESULT:      -4.2      7.962      9.668
REMARK  Name = 
REMARK  5 active torsions:
REMARK  status: ('A' for Active; 'I' for Inactive)
REMARK    1  A    between atoms: CE_2  and  CD_3
REMARK    2  A    between atoms: CD_3  and  CG_4
REMARK    3  A    between atoms: CG_4  and  CB_5
REMARK    4  A    between atoms: CB_5  and  CA_6
REMARK    5  A    between atoms: CA_6  and  C_8
REMARK                            x       y       z     vdW  Elec       q    Type
REMARK                         _______ _______ _______ _____ _____    ______ ____
ROOT
ATOM      1  CB  LYS A   1      -1.757   6.747  -5.238  0.00  0.00    +0.031 C 
ENDROOT
BRANCH   1   2
ATOM      2  CA  LYS A   1      -2.790   6.617  -3.950  0.00  0.00    +0.194 C 
ATOM      3  N   LYS A   1      -2.051   7.776  -3.161  0.00  0.00    -0.121 NA
BRANCH   2   4
ATOM      4  C   LYS A   1      -1.914   5.469  -3.212  0.00  0.00    +0.382 C 
ATOM      5  OXT LYS A   1      -2.707   4.731  -2.321  0.00  0.00    -0.244 OA
ATOM      6  O   LYS A   1      -0.825   5.813  -2.740  0.00  0.00    -0.244 OA
ENDBRANCH   2   4
ENDBRANCH   1   2
BRANCH   1   7
ATOM      7  CG  LYS A   1      -2.259   5.590  -6.097  0.00  0.00    +0.004 C 
BRANCH   7   8
ATOM      8  CD  LYS A   1      -1.168   5.247  -7.077  0.00  0.00    +0.021 C 
BRANCH   8  10
ATOM      9  NZ  LYS A   1       1.199   5.252  -6.956  0.00  0.00    -0.131 NA
ATOM     10  CE  LYS A   1       0.079   4.956  -6.296  0.00  0.00    +0.109 C 
ENDBRANCH   8  10
ENDBRANCH   7   8
ENDBRANCH   1   7
TORSDOF 5
ENDMDL
MODEL 4
REMARK VINA RESULT:      -4.2      2.727      4.263
REMARK  Name = 
REMARK  5 active torsions:
REMARK  status: ('A' for Active; 'I' for Inactive)
REMARK    1  A    between atoms: CE_2  and  CD_3
REMARK    2  A    between atoms: CD_3  and  CG_4
REMARK    3  A    between atoms: CG_4  and  CB_5
REMARK    4  A    between atoms: CB_5  and  CA_6
REMARK    5  A    between atoms: CA_6  and  C_8
REMARK                            x       y       z     vdW  Elec       q    Type
REMARK                         _______ _______ _______ _____ _____    ______ ____
ROOT
ATOM      1  CB  LYS A   1       7.229   6.972 -11.272  0.00  0.00    +0.031 C 
ENDROOT
BRANCH   1   2
ATOM      2  CA  LYS A   1       7.577   5.383 -11.584  0.00  0.00    +0.194 C 
ATOM      3  N   LYS A   1       8.985   5.750 -12.211  0.00  0.00    -0.121 NA
BRANCH   2   4
ATOM      4  C   LYS A   1       6.857   5.387 -13.038  0.00  0.00    +0.382 C 
ATOM      5  OXT LYS A   1       5.568   4.842 -12.960  0.00  0.00    -0.244 OA
ATOM      6  O   LYS A   1       7.521   4.963 -13.991  0.00  0.00    -0.244 OA
ENDBRANCH   2   4
ENDBRANCH   1   2
BRANCH   1   7
ATOM      7  CG  LYS A   1       6.102   6.801 -10.259  0.00  0.00    +0.004 C 
BRANCH   7   8
ATOM      8  CD  LYS A   1       6.514   5.712  -9.302  0.00  0.00    +0.021 C 
BRANCH   8  10
ATOM      9  NZ  LYS A   1       4.334   4.816  -9.551  0.00  0.00    -0.131 NA
ATOM     10  CE  LYS A   1       5.272   5.160  -8.668  0.00  0.00    +0.109 C 
ENDBRANCH   8  10
ENDBRANCH   7   8
ENDBRANCH   1   7
TORSDOF 5
ENDMDL
MODEL 5
REMARK VINA RESULT:      -4.0      7.822     10.268
REMARK  Name = 
REMARK  5 active torsions:
REMARK  status: ('A' for Active; 'I' for Inactive)
REMARK    1  A    between atoms: CE_2  and  CD_3
REMARK    2  A    between atoms: CD_3  and  CG_4
REMARK    3  A    between atoms: CG_4  and  CB_5
REMARK    4  A    between atoms: CB_5  and  CA_6
REMARK    5  A    between atoms: CA_6  and  C_8
REMARK                            x       y       z     vdW  Elec       q    Type
REMARK                         _______ _______ _______ _____ _____    ______ ____
ROOT
ATOM      1  CB  LYS A   1      -1.010   6.915  -5.173  0.00  0.00    +0.031 C 
ENDROOT
BRANCH   1   2
ATOM      2  CA  LYS A   1      -0.265   5.566  -4.566  0.00  0.00    +0.194 C 
ATOM      3  N   LYS A   1       1.065   6.368  -4.248  0.00  0.00    -0.121 NA
BRANCH   2   4
ATOM      4  C   LYS A   1       0.297   5.083  -6.009  0.00  0.00    +0.382 C 
ATOM      5  OXT LYS A   1      -0.729   5.060  -6.964  0.00  0.00    -0.244 OA
ATOM      6  O   LYS A   1       1.011   4.073  -6.021  0.00  0.00    -0.244 OA
ENDBRANCH   2   4
ENDBRANCH   1   2
BRANCH   1   7
ATOM      7  CG  LYS A   1      -2.396   6.750  -4.557  0.00  0.00    +0.004 C 
BRANCH   7   8
ATOM      8  CD  LYS A   1      -2.304   7.178  -3.115  0.00  0.00    +0.021 C 
BRANCH   8  10
ATOM      9  NZ  LYS A   1      -2.717   5.090  -2.071  0.00  0.00    -0.131 NA
ATOM     10  CE  LYS A   1      -3.220   6.300  -2.315  0.00  0.00    +0.109 C 
ENDBRANCH   8  10
ENDBRANCH   7   8
ENDBRANCH   1   7
TORSDOF 5
ENDMDL
MODEL 6
REMARK VINA RESULT:      -4.0      5.491      7.941
REMARK  Name = 
REMARK  5 active torsions:
REMARK  status: ('A' for Active; 'I' for Inactive)
REMARK    1  A    between atoms: CE_2  and  CD_3
REMARK    2  A    between atoms: CD_3  and  CG_4
REMARK    3  A    between atoms: CG_4  and  CB_5
REMARK    4  A    between atoms: CB_5  and  CA_6
REMARK    5  A    between atoms: CA_6  and  C_8
REMARK                            x       y       z     vdW  Elec       q    Type
REMARK                         _______ _______ _______ _____ _____    ______ ____
ROOT
ATOM      1  CB  LYS A   1       0.755   6.123  -6.731  0.00  0.00    +0.031 C 
ENDROOT
BRANCH   1   2
ATOM      2  CA  LYS A   1       1.965   5.907  -7.841  0.00  0.00    +0.194 C 
ATOM      3  N   LYS A   1       2.881   5.155  -6.788  0.00  0.00    -0.121 NA
BRANCH   2   4
ATOM      4  C   LYS A   1       2.669   7.335  -7.529  0.00  0.00    +0.382 C 
ATOM      5  OXT LYS A   1       3.141   7.382  -6.209  0.00  0.00    -0.244 OA
ATOM      6  O   LYS A   1       2.052   8.349  -7.873  0.00  0.00    -0.244 OA
ENDBRANCH   2   4
ENDBRANCH   1   2
BRANCH   1   7
ATOM      7  CG  LYS A   1      -0.396   5.434  -7.458  0.00  0.00    +0.004 C 
BRANCH   7   8
ATOM      8  CD  LYS A   1      -1.597   5.481  -6.551  0.00  0.00    +0.021 C 
BRANCH   8  10
ATOM      9  NZ  LYS A   1      -2.389   7.221  -5.151  0.00  0.00    -0.131 NA
ATOM     10  CE  LYS A   1      -1.324   6.488  -5.474  0.00  0.00    +0.109 C 
ENDBRANCH   8  10
ENDBRANCH   7   8
ENDBRANCH   1   7
TORSDOF 5
ENDMDL
MODEL 7
REMARK VINA RESULT:      -3.8      2.732      4.700
REMARK  Name = 
REMARK  5 active torsions:
REMARK  status: ('A' for Active; 'I' for Inactive)
REMARK    1  A    between atoms: CE_2  and  CD_3
REMARK    2  A    between atoms: CD_3  and  CG_4
REMARK    3  A    between atoms: CG_4  and  CB_5
REMARK    4  A    between atoms: CB_5  and  CA_6
REMARK    5  A    between atoms: CA_6  and  C_8
REMARK                            x       y       z     vdW  Elec       q    Type
REMARK                         _______ _______ _______ _____ _____    ______ ____
ROOT
ATOM      1  CB  LYS A   1       4.887   5.616 -11.151  0.00  0.00    +0.031 C 
ENDROOT
BRANCH   1   2
ATOM      2  CA  LYS A   1       6.514   5.899 -11.022  0.00  0.00    +0.194 C 
ATOM      3  N   LYS A   1       6.358   7.390 -11.536  0.00  0.00    -0.121 NA
BRANCH   2   4
ATOM      4  C   LYS A   1       6.848   5.353 -12.512  0.00  0.00    +0.382 C 
ATOM      5  OXT LYS A   1       5.685   4.900 -13.152  0.00  0.00    -0.244 OA
ATOM      6  O   LYS A   1       7.809   4.584 -12.624  0.00  0.00    -0.244 OA
ENDBRANCH   2   4
ENDBRANCH   1   2
BRANCH   1   7
ATOM      7  CG  LYS A   1       4.370   6.542 -10.055  0.00  0.00    +0.004 C 
BRANCH   7   8
ATOM      8  CD  LYS A   1       4.330   5.750  -8.775  0.00  0.00    +0.021 C 
BRANCH   8  10
ATOM      9  NZ  LYS A   1       2.675   7.407  -8.411  0.00  0.00    -0.131 NA
ATOM     10  CE  LYS A   1       3.390   6.442  -7.833  0.00  0.00    +0.109 C 
ENDBRANCH   8  10
ENDBRANCH   7   8
ENDBRANCH   1   7
TORSDOF 5
ENDMDL
MODEL 8
REMARK VINA RESULT:      -3.8      7.742      9.488
REMARK  Name = 
REMARK  5 active torsions:
REMARK  status: ('A' for Active; 'I' for Inactive)
REMARK    1  A    between atoms: CE_2  and  CD_3
REMARK    2  A    between atoms: CD_3  and  CG_4
REMARK    3  A    between atoms: CG_4  and  CB_5
REMARK    4  A    between atoms: CB_5  and  CA_6
REMARK    5  A    between atoms: CA_6  and  C_8
REMARK                            x       y       z     vdW  Elec       q    Type
REMARK                         _______ _______ _______ _____ _____    ______ ____
ROOT
ATOM      1  CB  LYS A   1      -0.696   5.738  -4.371  0.00  0.00    +0.031 C 
ENDROOT
BRANCH   1   2
ATOM      2  CA  LYS A   1      -1.089   6.345  -2.881  0.00  0.00    +0.194 C 
ATOM      3  N   LYS A   1      -0.593   5.030  -2.147  0.00  0.00    -0.121 NA
BRANCH   2   4
ATOM      4  C   LYS A   1      -2.620   5.812  -2.936  0.00  0.00    +0.382 C 
ATOM      5  OXT LYS A   1      -3.482   6.698  -2.275  0.00  0.00    -0.244 OA
ATOM      6  O   LYS A   1      -2.810   4.625  -2.649  0.00  0.00    -0.244 OA
ENDBRANCH   2   4
ENDBRANCH   1   2
BRANCH   1   7
ATOM      7  CG  LYS A   1      -0.337   7.032  -5.096  0.00  0.00    +0.004 C 
BRANCH   7   8
ATOM      8  CD  LYS A   1       0.724   6.701  -6.113  0.00  0.00    +0.021 C 
BRANCH   8  10
ATOM      9  NZ  LYS A   1       3.016   7.303  -6.142  0.00  0.00    -0.131 NA
ATOM     10  CE  LYS A   1       2.054   6.732  -5.419  0.00  0.00    +0.109 C 
ENDBRANCH   8  10
ENDBRANCH   7   8
ENDBRANCH   1   7
TORSDOF 5
ENDMDL
MODEL 9
REMARK VINA RESULT:      -3.8      7.129      9.626
REMARK  Name = 
REMARK  5 active torsions:
REMARK  status: ('A' for Active; 'I' for Inactive)
REMARK    1  A    between atoms: CE_2  and  CD_3
REMARK    2  A    between atoms: CD_3  and  CG_4
REMARK    3  A    between atoms: CG_4  and  CB_5
REMARK    4  A    between atoms: CB_5  and  CA_6
REMARK    5  A    between atoms: CA_6  and  C_8
REMARK                            x       y       z     vdW  Elec       q    Type
REMARK                         _______ _______ _______ _____ _____    ______ ____
ROOT
ATOM      1  CB  LYS A   1      -0.338   6.441  -5.444  0.00  0.00    +0.031 C 
ENDROOT
BRANCH   1   2
ATOM      2  CA  LYS A   1       0.340   4.949  -5.213  0.00  0.00    +0.194 C 
ATOM      3  N   LYS A   1       0.998   5.392  -3.841  0.00  0.00    -0.121 NA
BRANCH   2   4
ATOM      4  C   LYS A   1       1.687   5.300  -6.045  0.00  0.00    +0.382 C 
ATOM      5  OXT LYS A   1       1.648   4.728  -7.325  0.00  0.00    -0.244 OA
ATOM      6  O   LYS A   1       2.764   5.138  -5.460  0.00  0.00    -0.244 OA
ENDBRANCH   2   4
ENDBRANCH   1   2
BRANCH   1   7
ATOM      7  CG  LYS A   1      -1.814   6.057  -5.484  0.00  0.00    +0.004 C 
BRANCH   7   8
ATOM      8  CD  LYS A   1      -2.433   6.501  -4.184  0.00  0.00    +0.021 C 
BRANCH   8  10
ATOM      9  NZ  LYS A   1      -2.495   4.918  -2.421  0.00  0.00    -0.131 NA
ATOM     10  CE  LYS A   1      -3.084   5.306  -3.552  0.00  0.00    +0.109 C 
ENDBRANCH   8  10
ENDBRANCH   7   8
ENDBRANCH   1   7
TORSDOF 5
ENDMDL
