MODEL 1
REMARK VINA RESULT:      -4.0      0.000      0.000
REMARK  Name = 
REMARK  2 active torsions:
REMARK  status: ('A' for Active; 'I' for Inactive)
REMARK    1  A    between atoms: P_2  and  O_5
REMARK    2  A    between atoms: O_5  and  P_6
REMARK                            x       y       z     vdW  Elec       q    Type
REMARK                         _______ _______ _______ _____ _____    ______ ____
ROOT
ATOM      1  O   UNL     1       6.071   5.515 -11.313  0.00  0.00    -0.180 OA
ENDROOT
BRANCH   1   3
ATOM      2  O   UNL     1       7.425   4.657 -13.327  0.00  0.00    -0.222 OA
ATOM      3  P   UNL     1       6.184   5.460 -13.010  0.00  0.00    +0.540 P 
ATOM      4  O   UNL     1       4.809   4.617 -13.548  0.00  0.00    -0.114 OA
ATOM      5  O   UNL     1       6.254   7.018 -13.647  0.00  0.00    -0.114 OA
ENDBRANCH   1   3
BRANCH   1   6
ATOM      6  P   UNL     1       7.340   6.477 -10.758  0.00  0.00    +0.540 P 
ATOM      7  O   UNL     1       6.980   8.117 -10.902  0.00  0.00    -0.114 OA
ATOM      8  O   UNL     1       8.777   6.181 -11.619  0.00  0.00    -0.114 OA
ATOM      9  O   UNL     1       7.608   6.177  -9.306  0.00  0.00    -0.222 OA
ENDBRANCH   1   6
TORSDOF 2
ENDMDL
MODEL 2
REMARK VINA RESULT:      -3.9      1.965      3.159
REMARK  Name = 
REMARK  2 active torsions:
REMARK  status: ('A' for Active; 'I' for Inactive)
REMARK    1  A    between atoms: P_2  and  O_5
REMARK    2  A    between atoms: O_5  and  P_6
REMARK                            x       y       z     vdW  Elec       q    Type
REMARK                         _______ _______ _______ _____ _____    ______ ____
ROOT
ATOM      1  O   UNL     1       5.156   5.104 -12.349  0.00  0.00    -0.180 OA
ENDROOT
BRANCH   1   3
ATOM      2  O   UNL     1       2.820   5.934 -11.657  0.00  0.00    -0.222 OA
ATOM      3  P   UNL     1       4.230   5.834 -11.121  0.00  0.00    +0.540 P 
ATOM      4  O   UNL     1       4.262   4.761  -9.805  0.00  0.00    -0.114 OA
ATOM      5  O   UNL     1       4.867   7.341 -10.719  0.00  0.00    -0.114 OA
ENDBRANCH   1   3
BRANCH   1   6
ATOM      6  P   UNL     1       6.760   5.564 -12.105  0.00  0.00    +0.540 P 
ATOM      7  O   UNL     1       7.165   5.548 -10.469  0.00  0.00    -0.114 OA
ATOM      8  O   UNL     1       7.065   7.128 -12.702  0.00  0.00    -0.114 OA
ATOM      9  O   UNL     1       7.678   4.612 -12.828  0.00  0.00    -0.222 OA
ENDBRANCH   1   6
TORSDOF 2
ENDMDL
MODEL 3
REMARK VINA RESULT:      -3.9      1.956      3.288
REMARK  Name = 
REMARK  2 active torsions:
REMARK  status: ('A' for Active; 'I' for Inactive)
REMARK    1  A    between atoms: P_2  and  O_5
REMARK    2  A    between atoms: O_5  and  P_6
REMARK                            x       y       z     vdW  Elec       q    Type
REMARK                         _______ _______ _______ _____ _____    ______ ____
ROOT
ATOM      1  O   UNL     1       5.201   5.107 -12.372  0.00  0.00    -0.180 OA
ENDROOT
BRANCH   1   3
ATOM      2  O   UNL     1       7.675   4.622 -12.891  0.00  0.00    -0.222 OA
ATOM      3  P   UNL     1       6.812   5.583 -12.104  0.00  0.00    +0.540 P 
ATOM      4  O   UNL     1       6.958   7.144 -12.759  0.00  0.00    -0.114 OA
ATOM      5  O   UNL     1       7.169   5.557 -10.458  0.00  0.00    -0.114 OA
ENDBRANCH   1   3
BRANCH   1   6
ATOM      6  P   UNL     1       4.271   5.763 -11.127  0.00  0.00    +0.540 P 
ATOM      7  O   UNL     1       4.822   7.294 -10.686  0.00  0.00    -0.114 OA
ATOM      8  O   UNL     1       4.297   4.780  -9.738  0.00  0.00    -0.114 OA
ATOM      9  O   UNL     1       2.838   5.887 -11.573  0.00  0.00    -0.222 OA
ENDBRANCH   1   6
TORSDOF 2
ENDMDL
MODEL 4
REMARK VINA RESULT:      -3.9      1.509      3.137
REMARK  Name = 
REMARK  2 active torsions:
REMARK  status: ('A' for Active; 'I' for Inactive)
REMARK    1  A    between atoms: P_2  and  O_5
REMARK    2  A    between atoms: O_5  and  P_6
REMARK                            x       y       z     vdW  Elec       q    Type
REMARK                         _______ _______ _______ _____ _____    ______ ____
ROOT
ATOM      1  O   UNL     1       6.914   5.434 -10.831  0.00  0.00    -0.180 OA
ENDROOT
BRANCH   1   3
ATOM      2  O   UNL     1       4.590   5.003  -9.811  0.00  0.00    -0.222 OA
ATOM      3  P   UNL     1       5.244   5.740 -10.957  0.00  0.00    +0.540 P 
ATOM      4  O   UNL     1       5.054   7.414 -10.737  0.00  0.00    -0.114 OA
ATOM      5  O   UNL     1       4.663   5.233 -12.454  0.00  0.00    -0.114 OA
ENDBRANCH   1   3
BRANCH   1   6
ATOM      6  P   UNL     1       7.600   5.779 -12.333  0.00  0.00    +0.540 P 
ATOM      7  O   UNL     1       9.263   6.026 -12.209  0.00  0.00    -0.114 OA
ATOM      8  O   UNL     1       6.917   7.171 -13.033  0.00  0.00    -0.114 OA
ATOM      9  O   UNL     1       7.362   4.629 -13.277  0.00  0.00    -0.222 OA
ENDBRANCH   1   6
TORSDOF 2
ENDMDL
MODEL 5
REMARK VINA RESULT:      -3.8      1.740      3.595
REMARK  Name = 
REMARK  2 active torsions:
REMARK  status: ('A' for Active; 'I' for Inactive)
REMARK    1  A    between atoms: P_2  and  O_5
REMARK    2  A    between atoms: O_5  and  P_6
REMARK                            x       y       z     vdW  Elec       q    Type
REMARK                         _______ _______ _______ _____ _____    ______ ____
ROOT
ATOM      1  O   UNL     1       5.080   5.178 -12.138  0.00  0.00    -0.180 OA
ENDROOT
BRANCH   1   3
ATOM      2  O   UNL     1       4.605   7.139 -10.539  0.00  0.00    -0.222 OA
ATOM      3  P   UNL     1       5.121   5.718 -10.524  0.00  0.00    +0.540 P 
ATOM      4  O   UNL     1       4.035   4.729  -9.669  0.00  0.00    -0.114 OA
ATOM      5  O   UNL     1       6.684   5.614  -9.907  0.00  0.00    -0.114 OA
ENDBRANCH   1   3
BRANCH   1   6
ATOM      6  P   UNL     1       6.530   5.650 -12.859  0.00  0.00    +0.540 P 
ATOM      7  O   UNL     1       7.773   4.564 -12.515  0.00  0.00    -0.114 OA
ATOM      8  O   UNL     1       7.024   7.190 -12.333  0.00  0.00    -0.114 OA
ATOM      9  O   UNL     1       6.358   5.711 -14.355  0.00  0.00    -0.222 OA
ENDBRANCH   1   6
TORSDOF 2
ENDMDL
MODEL 6
REMARK VINA RESULT:      -3.8     10.833     12.042
REMARK  Name = 
REMARK  2 active torsions:
REMARK  status: ('A' for Active; 'I' for Inactive)
REMARK    1  A    between atoms: P_2  and  O_5
REMARK    2  A    between atoms: O_5  and  P_6
REMARK                            x       y       z     vdW  Elec       q    Type
REMARK                         _______ _______ _______ _____ _____    ______ ____
ROOT
ATOM      1  O   UNL     1      -0.598   5.406  -3.801  0.00  0.00    -0.180 OA
ENDROOT
BRANCH   1   3
ATOM      2  O   UNL     1      -2.888   4.619  -2.927  0.00  0.00    -0.222 OA
ATOM      3  P   UNL     1      -1.821   5.652  -2.643  0.00  0.00    +0.540 P 
ATOM      4  O   UNL     1      -1.111   5.334  -1.133  0.00  0.00    -0.114 OA
ATOM      5  O   UNL     1      -2.416   7.225  -2.739  0.00  0.00    -0.114 OA
ENDBRANCH   1   3
BRANCH   1   6
ATOM      6  P   UNL     1      -1.043   6.258  -5.187  0.00  0.00    +0.540 P 
ATOM      7  O   UNL     1      -0.953   7.923  -4.943  0.00  0.00    -0.114 OA
ATOM      8  O   UNL     1      -2.632   5.887  -5.671  0.00  0.00    -0.114 OA
ATOM      9  O   UNL     1      -0.123   5.896  -6.324  0.00  0.00    -0.222 OA
ENDBRANCH   1   6
TORSDOF 2
ENDMDL
MODEL 7
REMARK VINA RESULT:      -3.8      1.192      3.680
REMARK  Name = 
REMARK  2 active torsions:
REMARK  status: ('A' for Active; 'I' for Inactive)
REMARK    1  A    between atoms: P_2  and  O_5
REMARK    2  A    between atoms: O_5  and  P_6
REMARK                            x       y       z     vdW  Elec       q    Type
REMARK                         _______ _______ _______ _____ _____    ______ ____
ROOT
ATOM      1  O   UNL     1       6.370   7.116 -12.911  0.00  0.00    -0.180 OA
ENDROOT
BRANCH   1   3
ATOM      2  O   UNL     1       5.262   7.908 -10.726  0.00  0.00    -0.222 OA
ATOM      3  P   UNL     1       6.214   6.850 -11.237  0.00  0.00    +0.540 P 
ATOM      4  O   UNL     1       5.501   5.317 -11.068  0.00  0.00    -0.114 OA
ATOM      5  O   UNL     1       7.718   6.930 -10.484  0.00  0.00    -0.114 OA
ENDBRANCH   1   3
BRANCH   1   6
ATOM      6  P   UNL     1       6.591   5.611 -13.638  0.00  0.00    +0.540 P 
ATOM      7  O   UNL     1       5.180   4.690 -13.590  0.00  0.00    -0.114 OA
ATOM      8  O   UNL     1       7.823   4.718 -12.877  0.00  0.00    -0.114 OA
ATOM      9  O   UNL     1       6.985   5.796 -15.081  0.00  0.00    -0.222 OA
ENDBRANCH   1   6
TORSDOF 2
ENDMDL
MODEL 8
REMARK VINA RESULT:      -3.8     10.714     11.712
REMARK  Name = 
REMARK  2 active torsions:
REMARK  status: ('A' for Active; 'I' for Inactive)
REMARK    1  A    between atoms: P_2  and  O_5
REMARK    2  A    between atoms: O_5  and  P_6
REMARK                            x       y       z     vdW  Elec       q    Type
REMARK                         _______ _______ _______ _____ _____    ______ ____
ROOT
ATOM      1  O   UNL     1      -0.322   5.314  -3.581  0.00  0.00    -0.180 OA
ENDROOT
BRANCH   1   3
ATOM      2  O   UNL     1      -0.365   7.288  -5.233  0.00  0.00    -0.222 OA
ATOM      3  P   UNL     1      -0.826   5.853  -5.115  0.00  0.00    +0.540 P 
ATOM      4  O   UNL     1       0.003   4.895  -6.247  0.00  0.00    -0.114 OA
ATOM      5  O   UNL     1      -2.497   5.707  -5.272  0.00  0.00    -0.114 OA
ENDBRANCH   1   3
BRANCH   1   6
ATOM      6  P   UNL     1      -1.515   5.763  -2.476  0.00  0.00    +0.540 P 
ATOM      7  O   UNL     1      -2.842   4.725  -2.544  0.00  0.00    -0.114 OA
ATOM      8  O   UNL     1      -2.076   7.344  -2.763  0.00  0.00    -0.114 OA
ATOM      9  O   UNL     1      -0.955   5.723  -1.078  0.00  0.00    -0.222 OA
ENDBRANCH   1   6
TORSDOF 2
ENDMDL
MODEL 9
REMARK VINA RESULT:      -3.8     10.433     11.512
REMARK  Name = 
REMARK  2 active torsions:
REMARK  status: ('A' for Active; 'I' for Inactive)
REMARK    1  A    between atoms: P_2  and  O_5
REMARK    2  A    between atoms: O_5  and  P_6
REMARK                            x       y       z     vdW  Elec       q    Type
REMARK                         _______ _______ _______ _____ _____    ______ ____
ROOT
ATOM      1  O   UNL     1      -0.452   5.574  -3.101  0.00  0.00    -0.180 OA
ENDROOT
BRANCH   1   3
ATOM      2  O   UNL     1      -2.738   4.801  -2.205  0.00  0.00    -0.222 OA
ATOM      3  P   UNL     1      -2.140   5.761  -3.209  0.00  0.00    +0.540 P 
ATOM      4  O   UNL     1      -2.469   7.358  -2.732  0.00  0.00    -0.114 OA
ATOM      5  O   UNL     1      -2.669   5.452  -4.778  0.00  0.00    -0.114 OA
ENDBRANCH   1   3
BRANCH   1   6
ATOM      6  P   UNL     1       0.211   6.187  -4.526  0.00  0.00    +0.540 P 
ATOM      7  O   UNL     1      -0.614   7.562  -5.048  0.00  0.00    -0.114 OA
ATOM      8  O   UNL     1       0.166   5.043  -5.785  0.00  0.00    -0.114 OA
ATOM      9  O   UNL     1       1.652   6.559  -4.297  0.00  0.00    -0.222 OA
ENDBRANCH   1   6
TORSDOF 2
ENDMDL
