MODEL 1
REMARK VINA RESULT:      -7.1      0.000      0.000
REMARK  Name = 
REMARK  1 active torsions:
REMARK  status: ('A' for Active; 'I' for Inactive)
REMARK    1  A    between atoms: C_10  and  C_11
REMARK                            x       y       z     vdW  Elec       q    Type
REMARK                         _______ _______ _______ _____ _____    ______ ____
ROOT
ATOM      1  C   UNL     1      -2.348   6.445  -1.605  0.00  0.00    -0.000 A 
ATOM      2  C   UNL     1      -2.888   6.879  -2.800  0.00  0.00    -0.005 A 
ATOM      3  C   UNL     1      -2.341   6.389  -3.981  0.00  0.00    -0.026 A 
ATOM      4  C   UNL     1      -2.709   7.004  -5.296  0.00  0.00    +0.026 C 
ATOM      5  C   UNL     1      -2.429   6.010  -6.380  0.00  0.00    +0.006 C 
ATOM      6  C   UNL     1      -1.064   5.404  -6.335  0.00  0.00    +0.017 C 
ATOM      7  C   UNL     1      -0.222   6.248  -5.182  0.00  0.00    +0.131 C 
ATOM      8  C   UNL     1      -1.162   5.649  -3.993  0.00  0.00    -0.015 A 
ATOM      9  C   UNL     1      -0.518   5.570  -2.766  0.00  0.00    -0.004 A 
ATOM     10  C   UNL     1      -1.343   5.499  -1.649  0.00  0.00    -0.000 A 
ENDROOT
BRANCH   7  11
ATOM     11  C   UNL     1       0.878   5.054  -5.003  0.00  0.00    +0.336 C 
ATOM     12  N   UNL     1       2.228   5.507  -4.843  0.00  0.00    -0.030 NA
ATOM     13  C   UNL     1       3.115   4.822  -5.764  0.00  0.00    +0.308 C 
ATOM     14  C   UNL     1       2.177   3.877  -6.449  0.00  0.00    +0.318 C 
ATOM     15  N   UNL     1       0.896   4.096  -5.853  0.00  0.00    -0.061 NA
ENDBRANCH   7  11
TORSDOF 1
ENDMDL
MODEL 2
REMARK VINA RESULT:      -6.8      5.977      9.709
REMARK  Name = 
REMARK  1 active torsions:
REMARK  status: ('A' for Active; 'I' for Inactive)
REMARK    1  A    between atoms: C_10  and  C_11
REMARK                            x       y       z     vdW  Elec       q    Type
REMARK                         _______ _______ _______ _____ _____    ______ ____
ROOT
ATOM      1  C   UNL     1       6.223   6.282 -14.014  0.00  0.00    -0.000 A 
ATOM      2  C   UNL     1       7.027   6.725 -12.982  0.00  0.00    -0.005 A 
ATOM      3  C   UNL     1       6.737   6.288 -11.694  0.00  0.00    -0.026 A 
ATOM      4  C   UNL     1       7.406   6.922 -10.514  0.00  0.00    +0.026 C 
ATOM      5  C   UNL     1       7.339   5.969  -9.361  0.00  0.00    +0.006 C 
ATOM      6  C   UNL     1       5.979   5.416  -9.085  0.00  0.00    +0.017 C 
ATOM      7  C   UNL     1       4.932   6.262 -10.054  0.00  0.00    +0.131 C 
ATOM      8  C   UNL     1       5.567   5.596 -11.399  0.00  0.00    -0.015 A 
ATOM      9  C   UNL     1       4.666   5.510 -12.451  0.00  0.00    -0.004 A 
ATOM     10  C   UNL     1       5.222   5.377 -13.719  0.00  0.00    -0.000 A 
ENDROOT
BRANCH   7  11
ATOM     11  C   UNL     1       3.781   5.109  -9.946  0.00  0.00    +0.336 C 
ATOM     12  N   UNL     1       2.442   5.611  -9.847  0.00  0.00    -0.030 NA
ATOM     13  C   UNL     1       1.744   4.999  -8.732  0.00  0.00    +0.308 C 
ATOM     14  C   UNL     1       2.772   4.043  -8.211  0.00  0.00    +0.318 C 
ATOM     15  N   UNL     1       3.908   4.187  -9.067  0.00  0.00    -0.061 NA
ENDBRANCH   7  11
TORSDOF 1
ENDMDL
MODEL 3
REMARK VINA RESULT:      -6.3      5.865      9.343
REMARK  Name = 
REMARK  1 active torsions:
REMARK  status: ('A' for Active; 'I' for Inactive)
REMARK    1  A    between atoms: C_10  and  C_11
REMARK                            x       y       z     vdW  Elec       q    Type
REMARK                         _______ _______ _______ _____ _____    ______ ____
ROOT
ATOM      1  C   UNL     1       8.282   5.795 -11.862  0.00  0.00    -0.000 A 
ATOM      2  C   UNL     1       7.260   5.388 -12.697  0.00  0.00    -0.005 A 
ATOM      3  C   UNL     1       5.952   5.643 -12.302  0.00  0.00    -0.026 A 
ATOM      4  C   UNL     1       4.806   5.012 -13.030  0.00  0.00    +0.026 C 
ATOM      5  C   UNL     1       3.574   5.823 -12.773  0.00  0.00    +0.006 C 
ATOM      6  C   UNL     1       3.310   6.121 -11.334  0.00  0.00    +0.017 C 
ATOM      7  C   UNL     1       4.399   5.217 -10.469  0.00  0.00    +0.131 C 
ATOM      8  C   UNL     1       5.646   6.106 -11.025  0.00  0.00    -0.015 A 
ATOM      9  C   UNL     1       6.726   6.150 -10.154  0.00  0.00    -0.004 A 
ATOM     10  C   UNL     1       7.949   6.494 -10.718  0.00  0.00    -0.000 A 
ENDROOT
BRANCH   7  11
ATOM     11  C   UNL     1       4.238   6.155  -9.141  0.00  0.00    +0.336 C 
ATOM     12  N   UNL     1       4.095   5.430  -7.913  0.00  0.00    -0.030 NA
ATOM     13  C   UNL     1       2.948   5.907  -7.163  0.00  0.00    +0.308 C 
ATOM     14  C   UNL     1       2.455   7.024  -8.031  0.00  0.00    +0.318 C 
ATOM     15  N   UNL     1       3.354   7.082  -9.141  0.00  0.00    -0.061 NA
ENDBRANCH   7  11
TORSDOF 1
ENDMDL
MODEL 4
REMARK VINA RESULT:      -6.3      1.871      3.532
REMARK  Name = 
REMARK  1 active torsions:
REMARK  status: ('A' for Active; 'I' for Inactive)
REMARK    1  A    between atoms: C_10  and  C_11
REMARK                            x       y       z     vdW  Elec       q    Type
REMARK                         _______ _______ _______ _____ _____    ______ ____
ROOT
ATOM      1  C   UNL     1      -2.481   5.561  -5.342  0.00  0.00    -0.000 A 
ATOM      2  C   UNL     1      -1.566   5.764  -4.327  0.00  0.00    -0.005 A 
ATOM      3  C   UNL     1      -0.235   5.962  -4.677  0.00  0.00    -0.026 A 
ATOM      4  C   UNL     1       0.833   5.937  -3.627  0.00  0.00    +0.026 C 
ATOM      5  C   UNL     1       2.029   6.671  -4.150  0.00  0.00    +0.006 C 
ATOM      6  C   UNL     1       2.480   6.246  -5.509  0.00  0.00    +0.017 C 
ATOM      7  C   UNL     1       1.595   4.895  -5.886  0.00  0.00    +0.131 C 
ATOM      8  C   UNL     1       0.220   5.765  -5.977  0.00  0.00    -0.015 A 
ATOM      9  C   UNL     1      -0.721   5.225  -6.842  0.00  0.00    -0.004 A 
ATOM     10  C   UNL     1      -2.034   5.636  -6.647  0.00  0.00    -0.000 A 
ENDROOT
BRANCH   7  11
ATOM     11  C   UNL     1       1.883   5.061  -7.485  0.00  0.00    +0.336 C 
ATOM     12  N   UNL     1       2.416   3.890  -8.119  0.00  0.00    -0.030 NA
ATOM     13  C   UNL     1       3.600   4.216  -8.891  0.00  0.00    +0.308 C 
ATOM     14  C   UNL     1       3.692   5.699  -8.705  0.00  0.00    +0.318 C 
ATOM     15  N   UNL     1       2.574   6.060  -7.890  0.00  0.00    -0.061 NA
ENDBRANCH   7  11
TORSDOF 1
ENDMDL
MODEL 5
REMARK VINA RESULT:      -6.2      4.531      6.676
REMARK  Name = 
REMARK  1 active torsions:
REMARK  status: ('A' for Active; 'I' for Inactive)
REMARK    1  A    between atoms: C_10  and  C_11
REMARK                            x       y       z     vdW  Elec       q    Type
REMARK                         _______ _______ _______ _____ _____    ______ ____
ROOT
ATOM      1  C   UNL     1       5.162   5.544 -10.424  0.00  0.00    -0.000 A 
ATOM      2  C   UNL     1       3.891   6.072 -10.301  0.00  0.00    -0.005 A 
ATOM      3  C   UNL     1       3.463   6.459  -9.036  0.00  0.00    -0.026 A 
ATOM      4  C   UNL     1       2.025   6.800  -8.797  0.00  0.00    +0.026 C 
ATOM      5  C   UNL     1       1.936   7.654  -7.571  0.00  0.00    +0.006 C 
ATOM      6  C   UNL     1       2.656   7.114  -6.379  0.00  0.00    +0.017 C 
ATOM      7  C   UNL     1       3.134   5.579  -6.785  0.00  0.00    +0.131 C 
ATOM      8  C   UNL     1       4.187   6.151  -7.889  0.00  0.00    -0.015 A 
ATOM      9  C   UNL     1       5.275   5.314  -8.101  0.00  0.00    -0.004 A 
ATOM     10  C   UNL     1       5.959   5.497  -9.297  0.00  0.00    -0.000 A 
ENDROOT
BRANCH   7  11
ATOM     11  C   UNL     1       4.275   5.544  -5.617  0.00  0.00    +0.336 C 
ATOM     12  N   UNL     1       4.119   4.486  -4.663  0.00  0.00    -0.030 NA
ATOM     13  C   UNL     1       4.175   5.002  -3.308  0.00  0.00    +0.308 C 
ATOM     14  C   UNL     1       4.438   6.457  -3.543  0.00  0.00    +0.318 C 
ATOM     15  N   UNL     1       4.523   6.615  -4.961  0.00  0.00    -0.061 NA
ENDBRANCH   7  11
TORSDOF 1
ENDMDL
MODEL 6
REMARK VINA RESULT:      -6.2      2.035      4.529
REMARK  Name = 
REMARK  1 active torsions:
REMARK  status: ('A' for Active; 'I' for Inactive)
REMARK    1  A    between atoms: C_10  and  C_11
REMARK                            x       y       z     vdW  Elec       q    Type
REMARK                         _______ _______ _______ _____ _____    ______ ____
ROOT
ATOM      1  C   UNL     1       2.303   6.275  -6.757  0.00  0.00    -0.000 A 
ATOM      2  C   UNL     1       1.119   5.830  -7.312  0.00  0.00    -0.005 A 
ATOM      3  C   UNL     1      -0.046   5.974  -6.568  0.00  0.00    -0.026 A 
ATOM      4  C   UNL     1      -1.308   5.292  -7.001  0.00  0.00    +0.026 C 
ATOM      5  C   UNL     1      -2.469   6.002  -6.377  0.00  0.00    +0.006 C 
ATOM      6  C   UNL     1      -2.351   6.220  -4.904  0.00  0.00    +0.017 C 
ATOM      7  C   UNL     1      -1.019   5.362  -4.416  0.00  0.00    +0.131 C 
ATOM      8  C   UNL     1      -0.022   6.360  -5.231  0.00  0.00    -0.015 A 
ATOM      9  C   UNL     1       1.249   6.445  -4.679  0.00  0.00    -0.004 A 
ATOM     10  C   UNL     1       2.252   6.900  -5.527  0.00  0.00    -0.000 A 
ENDROOT
BRANCH   7  11
ATOM     11  C   UNL     1      -0.870   6.229  -3.041  0.00  0.00    +0.336 C 
ATOM     12  N   UNL     1      -0.744   5.441  -1.850  0.00  0.00    -0.030 NA
ATOM     13  C   UNL     1      -1.689   5.879  -0.840  0.00  0.00    +0.308 C 
ATOM     14  C   UNL     1      -2.350   7.038  -1.518  0.00  0.00    +0.318 C 
ATOM     15  N   UNL     1      -1.721   7.154  -2.797  0.00  0.00    -0.061 NA
ENDBRANCH   7  11
TORSDOF 1
ENDMDL
MODEL 7
REMARK VINA RESULT:      -6.1      1.665      3.081
REMARK  Name = 
REMARK  1 active torsions:
REMARK  status: ('A' for Active; 'I' for Inactive)
REMARK    1  A    between atoms: C_10  and  C_11
REMARK                            x       y       z     vdW  Elec       q    Type
REMARK                         _______ _______ _______ _____ _____    ______ ____
ROOT
ATOM      1  C   UNL     1      -2.400   5.792  -5.219  0.00  0.00    -0.000 A 
ATOM      2  C   UNL     1      -1.948   5.697  -6.522  0.00  0.00    -0.005 A 
ATOM      3  C   UNL     1      -0.592   5.468  -6.728  0.00  0.00    -0.026 A 
ATOM      4  C   UNL     1      -0.004   5.604  -8.098  0.00  0.00    +0.026 C 
ATOM      5  C   UNL     1       1.273   4.824  -8.146  0.00  0.00    +0.006 C 
ATOM      6  C   UNL     1       2.223   5.108  -7.028  0.00  0.00    +0.017 C 
ATOM      7  C   UNL     1       1.598   6.410  -6.213  0.00  0.00    +0.131 C 
ATOM      8  C   UNL     1       0.331   5.531  -5.688  0.00  0.00    -0.015 A 
ATOM      9  C   UNL     1      -0.190   5.977  -4.481  0.00  0.00    -0.004 A 
ATOM     10  C   UNL     1      -1.493   5.584  -4.198  0.00  0.00    -0.000 A 
ENDROOT
BRANCH   7  11
ATOM     11  C   UNL     1       2.467   6.082  -4.869  0.00  0.00    +0.336 C 
ATOM     12  N   UNL     1       3.244   7.182  -4.378  0.00  0.00    -0.030 NA
ATOM     13  C   UNL     1       4.620   6.780  -4.154  0.00  0.00    +0.308 C 
ATOM     14  C   UNL     1       4.578   5.325  -4.502  0.00  0.00    +0.318 C 
ATOM     15  N   UNL     1       3.221   5.047  -4.858  0.00  0.00    -0.061 NA
ENDBRANCH   7  11
TORSDOF 1
ENDMDL
MODEL 8
REMARK VINA RESULT:      -6.1      6.386      8.061
REMARK  Name = 
REMARK  1 active torsions:
REMARK  status: ('A' for Active; 'I' for Inactive)
REMARK    1  A    between atoms: C_10  and  C_11
REMARK                            x       y       z     vdW  Elec       q    Type
REMARK                         _______ _______ _______ _____ _____    ______ ____
ROOT
ATOM      1  C   UNL     1       0.031   5.227 -11.215  0.00  0.00    -0.000 A 
ATOM      2  C   UNL     1       0.648   4.587 -10.157  0.00  0.00    -0.005 A 
ATOM      3  C   UNL     1       1.927   5.000  -9.800  0.00  0.00    -0.026 A 
ATOM      4  C   UNL     1       2.740   4.190  -8.838  0.00  0.00    +0.026 C 
ATOM      5  C   UNL     1       3.788   5.075  -8.239  0.00  0.00    +0.006 C 
ATOM      6  C   UNL     1       4.589   5.855  -9.230  0.00  0.00    +0.017 C 
ATOM      7  C   UNL     1       4.168   5.272 -10.724  0.00  0.00    +0.131 C 
ATOM      8  C   UNL     1       2.662   5.880 -10.587  0.00  0.00    -0.015 A 
ATOM      9  C   UNL     1       2.077   6.189 -11.808  0.00  0.00    -0.004 A 
ATOM     10  C   UNL     1       0.690   6.285 -11.811  0.00  0.00    -0.000 A 
ENDROOT
BRANCH   7  11
ATOM     11  C   UNL     1       4.711   6.612 -11.484  0.00  0.00    +0.336 C 
ATOM     12  N   UNL     1       5.559   6.356 -12.611  0.00  0.00    -0.030 NA
ATOM     13  C   UNL     1       6.785   7.126 -12.519  0.00  0.00    +0.308 C 
ATOM     14  C   UNL     1       6.564   7.909 -11.262  0.00  0.00    +0.318 C 
ATOM     15  N   UNL     1       5.267   7.534 -10.791  0.00  0.00    -0.061 NA
ENDBRANCH   7  11
TORSDOF 1
ENDMDL
MODEL 9
REMARK VINA RESULT:      -6.1      1.809      2.127
REMARK  Name = 
REMARK  1 active torsions:
REMARK  status: ('A' for Active; 'I' for Inactive)
REMARK    1  A    between atoms: C_10  and  C_11
REMARK                            x       y       z     vdW  Elec       q    Type
REMARK                         _______ _______ _______ _____ _____    ______ ____
ROOT
ATOM      1  C   UNL     1      -0.072   5.436  -1.851  0.00  0.00    -0.000 A 
ATOM      2  C   UNL     1      -1.276   5.578  -2.513  0.00  0.00    -0.005 A 
ATOM      3  C   UNL     1      -1.260   5.580  -3.903  0.00  0.00    -0.026 A 
ATOM      4  C   UNL     1      -2.483   5.978  -4.671  0.00  0.00    +0.026 C 
ATOM      5  C   UNL     1      -2.383   5.408  -6.052  0.00  0.00    +0.006 C 
ATOM      6  C   UNL     1      -1.091   5.682  -6.750  0.00  0.00    +0.017 C 
ATOM      7  C   UNL     1      -0.271   6.762  -5.795  0.00  0.00    +0.131 C 
ATOM      8  C   UNL     1      -0.073   5.644  -4.625  0.00  0.00    -0.015 A 
ATOM      9  C   UNL     1       1.062   5.849  -3.852  0.00  0.00    -0.004 A 
ATOM     10  C   UNL     1       1.068   5.234  -2.605  0.00  0.00    -0.000 A 
ENDROOT
BRANCH   7  11
ATOM     11  C   UNL     1       1.164   6.394  -6.481  0.00  0.00    +0.336 C 
ATOM     12  N   UNL     1       1.985   7.529  -6.791  0.00  0.00    -0.030 NA
ATOM     13  C   UNL     1       2.447   7.470  -8.165  0.00  0.00    +0.308 C 
ATOM     14  C   UNL     1       1.874   6.167  -8.628  0.00  0.00    +0.318 C 
ATOM     15  N   UNL     1       1.183   5.621  -7.501  0.00  0.00    -0.061 NA
ENDBRANCH   7  11
TORSDOF 1
ENDMDL
