MODEL 1
REMARK VINA RESULT:      -8.3      0.000      0.000
REMARK  Name = 
REMARK  2 active torsions:
REMARK  status: ('A' for Active; 'I' for Inactive)
REMARK    1  A    between atoms: C_2  and  C_3
REMARK    2  A    between atoms: C_22  and  C_23
REMARK                            x       y       z     vdW  Elec       q    Type
REMARK                         _______ _______ _______ _____ _____    ______ ____
ROOT
ATOM      1  C   UNL     1       3.123   6.163  -9.289  0.00  0.00    +0.180 C 
ATOM      2  C   UNL     1       2.257   5.212  -8.626  0.00  0.00    +0.037 C 
ATOM      3  C   UNL     1       1.010   6.039  -8.023  0.00  0.00    +0.003 C 
ATOM      4  C   UNL     1       1.112   5.464  -6.431  0.00  0.00    +0.001 C 
ATOM      5  C   UNL     1       2.594   6.143  -6.071  0.00  0.00    +0.004 C 
ATOM      6  C   UNL     1       3.431   4.855  -6.560  0.00  0.00    +0.000 C 
ATOM      7  C   UNL     1       2.713   5.590  -4.484  0.00  0.00    +0.019 C 
ATOM      8  C   UNL     1       1.191   5.745  -4.026  0.00  0.00    -0.043 C 
ATOM      9  C   UNL     1       1.246   5.537  -2.702  0.00  0.00    +0.010 C 
ATOM     10  C   UNL     1       2.532   5.654  -1.985  0.00  0.00    +0.101 C 
ATOM     11  C   UNL     1       3.298   6.865  -2.431  0.00  0.00    +0.050 C 
ATOM     12  N   UNL     1       2.754   5.079  -0.865  0.00  0.00    -0.034 NA
ATOM     13  O   UNL     1       3.703   5.625  -0.019  0.00  0.00    -0.143 OA
ATOM     14  C   UNL     1       0.430   6.914  -4.495  0.00  0.00    +0.022 C 
ATOM     15  C   UNL     1       3.088   7.080  -3.927  0.00  0.00    +0.010 C 
ATOM     16  C   UNL     1       0.258   6.740  -5.947  0.00  0.00    +0.004 C 
ATOM     17  C   UNL     1       1.783   7.445  -7.776  0.00  0.00    +0.004 C 
ATOM     18  C   UNL     1       2.769   4.220  -7.710  0.00  0.00    +0.003 C 
ATOM     19  C   UNL     1       2.847   7.505  -8.752  0.00  0.00    +0.043 C 
ATOM     20  O   UNL     1       2.969   6.238 -10.685  0.00  0.00    -0.212 OA
ENDROOT
BRANCH   1  22
ATOM     21  C   UNL     1       5.666   5.492  -8.957  0.00  0.00    -0.012 C 
ATOM     22  C   UNL     1       4.531   5.777  -9.078  0.00  0.00    -0.049 C 
ENDBRANCH   1  22
BRANCH   2  23
ATOM     23  C   UNL     1       1.520   4.460  -9.740  0.00  0.00    +0.003 C 
ATOM     24  C   UNL     1       0.110   4.948  -9.907  0.00  0.00    +0.000 C 
ENDBRANCH   2  23
TORSDOF 2
ENDMDL
MODEL 2
REMARK VINA RESULT:      -8.2      1.634      3.467
REMARK  Name = 
REMARK  2 active torsions:
REMARK  status: ('A' for Active; 'I' for Inactive)
REMARK    1  A    between atoms: C_2  and  C_3
REMARK    2  A    between atoms: C_22  and  C_23
REMARK                            x       y       z     vdW  Elec       q    Type
REMARK                         _______ _______ _______ _____ _____    ______ ____
ROOT
ATOM      1  C   UNL     1       1.232   5.176  -7.726  0.00  0.00    +0.180 C 
ATOM      2  C   UNL     1       1.886   6.439  -7.463  0.00  0.00    +0.037 C 
ATOM      3  C   UNL     1       3.427   6.117  -7.110  0.00  0.00    +0.003 C 
ATOM      4  C   UNL     1       3.503   6.971  -5.648  0.00  0.00    +0.001 C 
ATOM      5  C   UNL     1       2.418   6.021  -4.807  0.00  0.00    +0.004 C 
ATOM      6  C   UNL     1       1.140   6.909  -5.228  0.00  0.00    +0.000 C 
ATOM      7  C   UNL     1       2.484   6.849  -3.343  0.00  0.00    +0.019 C 
ATOM      8  C   UNL     1       4.040   7.200  -3.297  0.00  0.00    -0.043 C 
ATOM      9  C   UNL     1       4.215   7.664  -2.051  0.00  0.00    +0.010 C 
ATOM     10  C   UNL     1       3.216   7.370  -1.003  0.00  0.00    +0.101 C 
ATOM     11  C   UNL     1       2.782   5.934  -1.049  0.00  0.00    +0.050 C 
ATOM     12  N   UNL     1       3.077   8.092   0.043  0.00  0.00    -0.034 NA
ATOM     13  O   UNL     1       2.552   7.511   1.183  0.00  0.00    -0.143 OA
ATOM     14  C   UNL     1       5.003   6.200  -3.785  0.00  0.00    +0.022 C 
ATOM     15  C   UNL     1       2.716   5.467  -2.501  0.00  0.00    +0.010 C 
ATOM     16  C   UNL     1       4.792   6.098  -5.239  0.00  0.00    +0.004 C 
ATOM     17  C   UNL     1       3.197   4.644  -6.468  0.00  0.00    +0.004 C 
ATOM     18  C   UNL     1       1.307   7.434  -6.592  0.00  0.00    +0.003 C 
ATOM     19  C   UNL     1       2.017   4.100  -7.100  0.00  0.00    +0.043 C 
ATOM     20  O   UNL     1       1.093   4.848  -9.086  0.00  0.00    -0.212 OA
ENDROOT
BRANCH   1  22
ATOM     21  C   UNL     1      -1.255   5.205  -6.809  0.00  0.00    -0.012 C 
ATOM     22  C   UNL     1      -0.145   5.215  -7.198  0.00  0.00    -0.049 C 
ENDBRANCH   1  22
BRANCH   2  23
ATOM     23  C   UNL     1       2.095   7.103  -8.830  0.00  0.00    +0.003 C 
ATOM     24  C   UNL     1       3.517   6.988  -9.296  0.00  0.00    +0.000 C 
ENDBRANCH   2  23
TORSDOF 2
ENDMDL
MODEL 3
REMARK VINA RESULT:      -8.1      2.964      6.184
REMARK  Name = 
REMARK  2 active torsions:
REMARK  status: ('A' for Active; 'I' for Inactive)
REMARK    1  A    between atoms: C_2  and  C_3
REMARK    2  A    between atoms: C_22  and  C_23
REMARK                            x       y       z     vdW  Elec       q    Type
REMARK                         _______ _______ _______ _____ _____    ______ ____
ROOT
ATOM      1  C   UNL     1       1.185   5.596  -4.751  0.00  0.00    +0.180 C 
ATOM      2  C   UNL     1       0.686   6.293  -5.916  0.00  0.00    +0.037 C 
ATOM      3  C   UNL     1       0.488   5.196  -7.083  0.00  0.00    +0.003 C 
ATOM      4  C   UNL     1       1.378   5.991  -8.287  0.00  0.00    +0.001 C 
ATOM      5  C   UNL     1       2.864   5.893  -7.532  0.00  0.00    +0.004 C 
ATOM      6  C   UNL     1       2.694   7.302  -6.767  0.00  0.00    +0.000 C 
ATOM      7  C   UNL     1       3.769   6.672  -8.719  0.00  0.00    +0.019 C 
ATOM      8  C   UNL     1       3.060   6.092 -10.027  0.00  0.00    -0.043 C 
ATOM      9  C   UNL     1       3.871   6.490 -11.019  0.00  0.00    +0.010 C 
ATOM     10  C   UNL     1       5.259   6.904 -10.722  0.00  0.00    +0.101 C 
ATOM     11  C   UNL     1       5.915   5.961  -9.757  0.00  0.00    +0.050 C 
ATOM     12  N   UNL     1       5.931   7.671 -11.492  0.00  0.00    -0.034 NA
ATOM     13  O   UNL     1       7.312   7.591 -11.463  0.00  0.00    -0.143 OA
ATOM     14  C   UNL     1       2.631   4.685 -10.031  0.00  0.00    +0.022 C 
ATOM     15  C   UNL     1       4.889   5.481  -8.733  0.00  0.00    +0.010 C 
ATOM     16  C   UNL     1       1.527   4.586  -9.061  0.00  0.00    +0.004 C 
ATOM     17  C   UNL     1       1.657   4.171  -6.616  0.00  0.00    +0.004 C 
ATOM     18  C   UNL     1       1.288   7.516  -6.392  0.00  0.00    +0.003 C 
ATOM     19  C   UNL     1       1.792   4.327  -5.185  0.00  0.00    +0.043 C 
ATOM     20  O   UNL     1       0.215   5.279  -3.784  0.00  0.00    -0.212 OA
ENDROOT
BRANCH   1  22
ATOM     21  C   UNL     1       2.934   7.099  -3.444  0.00  0.00    -0.012 C 
ATOM     22  C   UNL     1       2.164   6.447  -4.049  0.00  0.00    -0.049 C 
ENDBRANCH   1  22
BRANCH   2  23
ATOM     23  C   UNL     1      -0.789   6.597  -5.630  0.00  0.00    +0.003 C 
ATOM     24  C   UNL     1      -1.707   5.744  -6.457  0.00  0.00    +0.000 C 
ENDBRANCH   2  23
TORSDOF 2
ENDMDL
MODEL 4
REMARK VINA RESULT:      -8.1      2.877      6.326
REMARK  Name = 
REMARK  2 active torsions:
REMARK  status: ('A' for Active; 'I' for Inactive)
REMARK    1  A    between atoms: C_2  and  C_3
REMARK    2  A    between atoms: C_22  and  C_23
REMARK                            x       y       z     vdW  Elec       q    Type
REMARK                         _______ _______ _______ _____ _____    ______ ____
ROOT
ATOM      1  C   UNL     1       2.657   5.837  -3.779  0.00  0.00    +0.180 C 
ATOM      2  C   UNL     1       1.781   6.072  -4.907  0.00  0.00    +0.037 C 
ATOM      3  C   UNL     1       1.660   4.683  -5.718  0.00  0.00    +0.003 C 
ATOM      4  C   UNL     1       2.066   5.283  -7.250  0.00  0.00    +0.001 C 
ATOM      5  C   UNL     1       3.641   5.702  -6.886  0.00  0.00    +0.004 C 
ATOM      6  C   UNL     1       3.257   7.200  -6.431  0.00  0.00    +0.000 C 
ATOM      7  C   UNL     1       4.070   6.296  -8.403  0.00  0.00    +0.019 C 
ATOM      8  C   UNL     1       3.303   5.250  -9.333  0.00  0.00    -0.043 C 
ATOM      9  C   UNL     1       3.778   5.520 -10.557  0.00  0.00    +0.010 C 
ATOM     10  C   UNL     1       5.039   6.274 -10.714  0.00  0.00    +0.101 C 
ATOM     11  C   UNL     1       6.090   5.786  -9.760  0.00  0.00    +0.050 C 
ATOM     12  N   UNL     1       5.329   6.923 -11.776  0.00  0.00    -0.034 NA
ATOM     13  O   UNL     1       6.662   7.140 -12.075  0.00  0.00    -0.143 OA
ATOM     14  C   UNL     1       3.263   3.838  -8.921  0.00  0.00    +0.022 C 
ATOM     15  C   UNL     1       5.438   5.403  -8.434  0.00  0.00    +0.010 C 
ATOM     16  C   UNL     1       2.428   3.783  -7.709  0.00  0.00    +0.004 C 
ATOM     17  C   UNL     1       3.122   4.086  -5.344  0.00  0.00    +0.004 C 
ATOM     18  C   UNL     1       1.941   7.216  -5.774  0.00  0.00    +0.003 C 
ATOM     19  C   UNL     1       3.480   4.650  -4.062  0.00  0.00    +0.043 C 
ATOM     20  O   UNL     1       2.004   5.604  -2.556  0.00  0.00    -0.212 OA
ENDROOT
BRANCH   1  22
ATOM     21  C   UNL     1       4.195   7.949  -3.338  0.00  0.00    -0.012 C 
ATOM     22  C   UNL     1       3.493   7.030  -3.547  0.00  0.00    -0.049 C 
ENDBRANCH   1  22
BRANCH   2  23
ATOM     23  C   UNL     1       0.359   6.133  -4.336  0.00  0.00    +0.003 C 
ATOM     24  C   UNL     1      -0.463   7.202  -4.996  0.00  0.00    +0.000 C 
ENDBRANCH   2  23
TORSDOF 2
ENDMDL
MODEL 5
REMARK VINA RESULT:      -7.9      4.053      7.505
REMARK  Name = 
REMARK  2 active torsions:
REMARK  status: ('A' for Active; 'I' for Inactive)
REMARK    1  A    between atoms: C_2  and  C_3
REMARK    2  A    between atoms: C_22  and  C_23
REMARK                            x       y       z     vdW  Elec       q    Type
REMARK                         _______ _______ _______ _____ _____    ______ ____
ROOT
ATOM      1  C   UNL     1       3.535   5.096  -7.694  0.00  0.00    +0.180 C 
ATOM      2  C   UNL     1       2.784   6.306  -7.947  0.00  0.00    +0.037 C 
ATOM      3  C   UNL     1       1.264   5.870  -8.264  0.00  0.00    +0.003 C 
ATOM      4  C   UNL     1       1.094   6.709  -9.727  0.00  0.00    +0.001 C 
ATOM      5  C   UNL     1       2.227   5.837 -10.589  0.00  0.00    +0.004 C 
ATOM      6  C   UNL     1       3.445   6.818 -10.199  0.00  0.00    +0.000 C 
ATOM      7  C   UNL     1       2.068   6.651 -12.054  0.00  0.00    +0.019 C 
ATOM      8  C   UNL     1       0.489   6.886 -12.067  0.00  0.00    -0.043 C 
ATOM      9  C   UNL     1       0.254   7.330 -13.310  0.00  0.00    +0.010 C 
ATOM     10  C   UNL     1       1.249   7.105 -14.379  0.00  0.00    +0.101 C 
ATOM     11  C   UNL     1       1.788   5.705 -14.337  0.00  0.00    +0.050 C 
ATOM     12  N   UNL     1       1.311   7.830 -15.430  0.00  0.00    -0.034 NA
ATOM     13  O   UNL     1       1.852   7.283 -16.579  0.00  0.00    -0.143 OA
ATOM     14  C   UNL     1      -0.386   5.821 -11.553  0.00  0.00    +0.022 C 
ATOM     15  C   UNL     1       1.920   5.252 -12.886  0.00  0.00    +0.010 C 
ATOM     16  C   UNL     1      -0.137   5.742 -10.104  0.00  0.00    +0.004 C 
ATOM     17  C   UNL     1       1.587   4.415  -8.907  0.00  0.00    +0.004 C 
ATOM     18  C   UNL     1       3.270   7.337  -8.834  0.00  0.00    +0.003 C 
ATOM     19  C   UNL     1       2.817   3.962  -8.299  0.00  0.00    +0.043 C 
ATOM     20  O   UNL     1       3.728   4.785  -6.336  0.00  0.00    -0.212 OA
ENDROOT
BRANCH   1  22
ATOM     21  C   UNL     1       5.989   5.295  -8.676  0.00  0.00    -0.012 C 
ATOM     22  C   UNL     1       4.893   5.233  -8.253  0.00  0.00    -0.049 C 
ENDBRANCH   1  22
BRANCH   2  23
ATOM     23  C   UNL     1       2.557   6.959  -6.578  0.00  0.00    +0.003 C 
ATOM     24  C   UNL     1       1.105   6.974  -6.199  0.00  0.00    +0.000 C 
ENDBRANCH   2  23
TORSDOF 2
ENDMDL
MODEL 6
REMARK VINA RESULT:      -7.8      2.421      3.000
REMARK  Name = 
REMARK  2 active torsions:
REMARK  status: ('A' for Active; 'I' for Inactive)
REMARK    1  A    between atoms: C_2  and  C_3
REMARK    2  A    between atoms: C_22  and  C_23
REMARK                            x       y       z     vdW  Elec       q    Type
REMARK                         _______ _______ _______ _____ _____    ______ ____
ROOT
ATOM      1  C   UNL     1       3.095   6.025  -7.644  0.00  0.00    +0.180 C 
ATOM      2  C   UNL     1       2.169   4.922  -7.508  0.00  0.00    +0.037 C 
ATOM      3  C   UNL     1       0.721   5.448  -7.986  0.00  0.00    +0.003 C 
ATOM      4  C   UNL     1      -0.151   4.978  -6.610  0.00  0.00    +0.001 C 
ATOM      5  C   UNL     1       0.607   6.007  -5.535  0.00  0.00    +0.004 C 
ATOM      6  C   UNL     1       1.749   4.939  -5.143  0.00  0.00    +0.000 C 
ATOM      7  C   UNL     1      -0.252   5.562  -4.157  0.00  0.00    +0.019 C 
ATOM      8  C   UNL     1      -1.704   5.365  -4.792  0.00  0.00    -0.043 C 
ATOM      9  C   UNL     1      -2.494   5.229  -3.717  0.00  0.00    +0.010 C 
ATOM     10  C   UNL     1      -2.026   5.679  -2.390  0.00  0.00    +0.101 C 
ATOM     11  C   UNL     1      -1.358   7.020  -2.473  0.00  0.00    +0.050 C 
ATOM     12  N   UNL     1      -2.502   5.220  -1.296  0.00  0.00    -0.034 NA
ATOM     13  O   UNL     1      -2.436   6.010  -0.163  0.00  0.00    -0.143 OA
ATOM     14  C   UNL     1      -2.146   6.297  -5.841  0.00  0.00    +0.022 C 
ATOM     15  C   UNL     1      -0.571   7.119  -3.777  0.00  0.00    +0.010 C 
ATOM     16  C   UNL     1      -1.300   6.030  -7.016  0.00  0.00    +0.004 C 
ATOM     17  C   UNL     1       0.913   7.007  -7.576  0.00  0.00    +0.004 C 
ATOM     18  C   UNL     1       2.107   4.118  -6.310  0.00  0.00    +0.003 C 
ATOM     19  C   UNL     1       2.329   7.282  -7.660  0.00  0.00    +0.043 C 
ATOM     20  O   UNL     1       3.879   6.005  -8.811  0.00  0.00    -0.212 OA
ENDROOT
BRANCH   1  22
ATOM     21  C   UNL     1       4.848   6.025  -5.657  0.00  0.00    -0.012 C 
ATOM     22  C   UNL     1       4.062   5.997  -6.531  0.00  0.00    -0.049 C 
ENDBRANCH   1  22
BRANCH   2  23
ATOM     23  C   UNL     1       2.467   3.971  -8.674  0.00  0.00    +0.003 C 
ATOM     24  C   UNL     1       1.471   4.121  -9.787  0.00  0.00    +0.000 C 
ENDBRANCH   2  23
TORSDOF 2
ENDMDL
MODEL 7
REMARK VINA RESULT:      -7.6      3.627      7.227
REMARK  Name = 
REMARK  2 active torsions:
REMARK  status: ('A' for Active; 'I' for Inactive)
REMARK    1  A    between atoms: C_2  and  C_3
REMARK    2  A    between atoms: C_22  and  C_23
REMARK                            x       y       z     vdW  Elec       q    Type
REMARK                         _______ _______ _______ _____ _____    ______ ____
ROOT
ATOM      1  C   UNL     1       1.272   6.245  -6.010  0.00  0.00    +0.180 C 
ATOM      2  C   UNL     1       2.175   5.319  -6.656  0.00  0.00    +0.037 C 
ATOM      3  C   UNL     1       3.365   6.187  -7.312  0.00  0.00    +0.003 C 
ATOM      4  C   UNL     1       3.266   5.551  -8.880  0.00  0.00    +0.001 C 
ATOM      5  C   UNL     1       1.743   6.139  -9.235  0.00  0.00    +0.004 C 
ATOM      6  C   UNL     1       0.985   4.828  -8.685  0.00  0.00    +0.000 C 
ATOM      7  C   UNL     1       1.626   5.525 -10.799  0.00  0.00    +0.019 C 
ATOM      8  C   UNL     1       3.129   5.742 -11.292  0.00  0.00    -0.043 C 
ATOM      9  C   UNL     1       3.062   5.485 -12.606  0.00  0.00    +0.010 C 
ATOM     10  C   UNL     1       1.758   5.509 -13.302  0.00  0.00    +0.101 C 
ATOM     11  C   UNL     1       0.938   6.694 -12.883  0.00  0.00    +0.050 C 
ATOM     12  N   UNL     1       1.547   4.884 -14.397  0.00  0.00    -0.034 NA
ATOM     13  O   UNL     1       0.556   5.349 -15.242  0.00  0.00    -0.143 OA
ATOM     14  C   UNL     1       3.836   6.965 -10.878  0.00  0.00    +0.022 C 
ATOM     15  C   UNL     1       1.163   6.972 -11.399  0.00  0.00    +0.010 C 
ATOM     16  C   UNL     1       4.043   6.853  -9.425  0.00  0.00    +0.004 C 
ATOM     17  C   UNL     1       2.515   7.541  -7.592  0.00  0.00    +0.004 C 
ATOM     18  C   UNL     1       1.700   4.269  -7.527  0.00  0.00    +0.003 C 
ATOM     19  C   UNL     1       1.467   7.581  -6.598  0.00  0.00    +0.043 C 
ATOM     20  O   UNL     1       1.446   6.378  -4.621  0.00  0.00    -0.212 OA
ENDROOT
BRANCH   1  22
ATOM     21  C   UNL     1      -1.241   5.447  -6.281  0.00  0.00    -0.012 C 
ATOM     22  C   UNL     1      -0.117   5.780  -6.179  0.00  0.00    -0.049 C 
ENDBRANCH   1  22
BRANCH   2  23
ATOM     23  C   UNL     1       2.971   4.646  -5.531  0.00  0.00    +0.003 C 
ATOM     24  C   UNL     1       4.373   5.174  -5.445  0.00  0.00    +0.000 C 
ENDBRANCH   2  23
TORSDOF 2
ENDMDL
MODEL 8
REMARK VINA RESULT:      -7.5      3.847      7.170
REMARK  Name = 
REMARK  2 active torsions:
REMARK  status: ('A' for Active; 'I' for Inactive)
REMARK    1  A    between atoms: C_2  and  C_3
REMARK    2  A    between atoms: C_22  and  C_23
REMARK                            x       y       z     vdW  Elec       q    Type
REMARK                         _______ _______ _______ _____ _____    ______ ____
ROOT
ATOM      1  C   UNL     1       1.462   5.917  -7.623  0.00  0.00    +0.180 C 
ATOM      2  C   UNL     1       2.421   4.837  -7.694  0.00  0.00    +0.037 C 
ATOM      3  C   UNL     1       3.837   5.418  -7.187  0.00  0.00    +0.003 C 
ATOM      4  C   UNL     1       4.767   4.930  -8.517  0.00  0.00    +0.001 C 
ATOM      5  C   UNL     1       4.018   5.903  -9.649  0.00  0.00    +0.004 C 
ATOM      6  C   UNL     1       2.919   4.792 -10.044  0.00  0.00    +0.000 C 
ATOM      7  C   UNL     1       4.934   5.440 -10.984  0.00  0.00    +0.019 C 
ATOM      8  C   UNL     1       6.369   5.303 -10.296  0.00  0.00    -0.043 C 
ATOM      9  C   UNL     1       7.198   5.156 -11.340  0.00  0.00    +0.010 C 
ATOM     10  C   UNL     1       6.762   5.552 -12.696  0.00  0.00    +0.101 C 
ATOM     11  C   UNL     1       6.055   6.876 -12.677  0.00  0.00    +0.050 C 
ATOM     12  N   UNL     1       7.285   5.072 -13.758  0.00  0.00    -0.034 NA
ATOM     13  O   UNL     1       7.236   5.825 -14.918  0.00  0.00    -0.143 OA
ATOM     14  C   UNL     1       6.751   6.280  -9.264  0.00  0.00    +0.022 C 
ATOM     15  C   UNL     1       5.223   6.993 -11.403  0.00  0.00    +0.010 C 
ATOM     16  C   UNL     1       5.873   6.026  -8.109  0.00  0.00    +0.004 C 
ATOM     17  C   UNL     1       3.617   6.958  -7.652  0.00  0.00    +0.004 C 
ATOM     18  C   UNL     1       2.544   3.999  -8.863  0.00  0.00    +0.003 C 
ATOM     19  C   UNL     1       2.192   7.196  -7.623  0.00  0.00    +0.043 C 
ATOM     20  O   UNL     1       0.640   5.912  -6.482  0.00  0.00    -0.212 OA
ENDROOT
BRANCH   1  22
ATOM     21  C   UNL     1      -0.226   5.806  -9.663  0.00  0.00    -0.012 C 
ATOM     22  C   UNL     1       0.533   5.828  -8.765  0.00  0.00    -0.049 C 
ENDBRANCH   1  22
BRANCH   2  23
ATOM     23  C   UNL     1       2.110   3.915  -6.509  0.00  0.00    +0.003 C 
ATOM     24  C   UNL     1       3.009   4.186  -5.338  0.00  0.00    +0.000 C 
ENDBRANCH   2  23
TORSDOF 2
ENDMDL
MODEL 9
REMARK VINA RESULT:      -7.5      2.136      3.920
REMARK  Name = 
REMARK  2 active torsions:
REMARK  status: ('A' for Active; 'I' for Inactive)
REMARK    1  A    between atoms: C_2  and  C_3
REMARK    2  A    between atoms: C_22  and  C_23
REMARK                            x       y       z     vdW  Elec       q    Type
REMARK                         _______ _______ _______ _____ _____    ______ ____
ROOT
ATOM      1  C   UNL     1       1.316   5.727 -11.392  0.00  0.00    +0.180 C 
ATOM      2  C   UNL     1       2.330   6.071 -10.419  0.00  0.00    +0.037 C 
ATOM      3  C   UNL     1       2.714   4.718  -9.628  0.00  0.00    +0.003 C 
ATOM      4  C   UNL     1       2.496   5.312  -8.056  0.00  0.00    +0.001 C 
ATOM      5  C   UNL     1       0.849   5.568  -8.168  0.00  0.00    +0.004 C 
ATOM      6  C   UNL     1       1.007   7.086  -8.689  0.00  0.00    +0.000 C 
ATOM      7  C   UNL     1       0.607   6.152  -6.607  0.00  0.00    +0.019 C 
ATOM      8  C   UNL     1       1.610   5.206  -5.803  0.00  0.00    -0.043 C 
ATOM      9  C   UNL     1       1.308   5.457  -4.520  0.00  0.00    +0.010 C 
ATOM     10  C   UNL     1       0.019   6.089  -4.171  0.00  0.00    +0.101 C 
ATOM     11  C   UNL     1      -1.115   5.480  -4.943  0.00  0.00    +0.050 C 
ATOM     12  N   UNL     1      -0.164   6.732  -3.082  0.00  0.00    -0.034 NA
ATOM     13  O   UNL     1      -1.448   6.825  -2.577  0.00  0.00    -0.143 OA
ATOM     14  C   UNL     1       1.724   3.796  -6.206  0.00  0.00    +0.022 C 
ATOM     15  C   UNL     1      -0.644   5.132  -6.353  0.00  0.00    +0.010 C 
ATOM     16  C   UNL     1       2.360   3.794  -7.534  0.00  0.00    +0.004 C 
ATOM     17  C   UNL     1       1.277   3.975  -9.761  0.00  0.00    +0.004 C 
ATOM     18  C   UNL     1       2.196   7.213  -9.546  0.00  0.00    +0.003 C 
ATOM     19  C   UNL     1       0.668   4.472 -10.974  0.00  0.00    +0.043 C 
ATOM     20  O   UNL     1       1.789   5.530 -12.702  0.00  0.00    -0.212 OA
ENDROOT
BRANCH   1  22
ATOM     21  C   UNL     1      -0.468   7.674 -11.613  0.00  0.00    -0.012 C 
ATOM     22  C   UNL     1       0.340   6.827 -11.498  0.00  0.00    -0.049 C 
ENDBRANCH   1  22
BRANCH   2  23
ATOM     23  C   UNL     1       3.631   6.256 -11.208  0.00  0.00    +0.003 C 
ATOM     24  C   UNL     1       4.726   6.827 -10.356  0.00  0.00    +0.000 C 
ENDBRANCH   2  23
TORSDOF 2
ENDMDL
