MODEL 1
REMARK VINA RESULT:      -6.9      0.000      0.000
REMARK  Name = 
REMARK  5 active torsions:
REMARK  status: ('A' for Active; 'I' for Inactive)
REMARK    1  A    between atoms: C_2  and  C_3
REMARK    2  A    between atoms: C_3  and  C_4
REMARK    3  A    between atoms: C_4  and  N_5
REMARK    4  A    between atoms: N_8  and  S_9
REMARK    5  A    between atoms: S_9  and  C_12
REMARK                            x       y       z     vdW  Elec       q    Type
REMARK                         _______ _______ _______ _____ _____    ______ ____
ROOT
ATOM      1  S   UNL     1       1.481   5.883  -9.456  0.00  0.00    +0.104 S 
ATOM      2  O   UNL     1       0.877   4.673 -10.122  0.00  0.00    -0.146 OA
ATOM      3  O   UNL     1       1.019   7.125 -10.144  0.00  0.00    -0.146 OA
ENDROOT
BRANCH   1   4
ATOM      4  C   UNL     1       3.212   5.733  -9.620  0.00  0.00    +0.129 A 
ATOM      5  C   UNL     1       3.892   6.524 -10.539  0.00  0.00    +0.020 A 
ATOM      6  C   UNL     1       5.257   6.639 -10.344  0.00  0.00    -0.003 A 
ATOM      7  C   UNL     1       5.930   5.894  -9.396  0.00  0.00    -0.022 A 
ATOM      8  C   UNL     1       7.406   5.708  -9.539  0.00  0.00    +0.031 C 
ATOM      9  C   UNL     1       5.244   5.054  -8.548  0.00  0.00    -0.003 A 
ATOM     10  C   UNL     1       3.894   4.860  -8.812  0.00  0.00    +0.020 A 
ENDBRANCH   1   4
BRANCH   1  13
ATOM     11  N   UNL     1       1.120   7.016  -5.730  0.00  0.00    -0.184 NA
ATOM     12  C   UNL     1       1.491   6.945  -7.092  0.00  0.00    +0.371 C 
ATOM     13  N   UNL     1       1.009   5.970  -7.788  0.00  0.00    -0.071 NA
ATOM     14  O   UNL     1       1.998   8.080  -7.722  0.00  0.00    -0.244 OA
BRANCH  11  15
ATOM     15  C   UNL     1      -0.103   6.410  -5.210  0.00  0.00    +0.117 C 
BRANCH  15  16
ATOM     16  C   UNL     1      -1.022   7.561  -4.837  0.00  0.00    +0.023 C 
BRANCH  16  18
ATOM     17  C   UNL     1      -2.296   5.921  -6.106  0.00  0.00    +0.000 C 
ATOM     18  C   UNL     1      -2.441   7.124  -5.180  0.00  0.00    +0.002 C 
ENDBRANCH  16  18
ENDBRANCH  15  16
ENDBRANCH  11  15
ENDBRANCH   1  13
TORSDOF 5
ENDMDL
MODEL 2
REMARK VINA RESULT:      -6.8      2.159      6.710
REMARK  Name = 
REMARK  5 active torsions:
REMARK  status: ('A' for Active; 'I' for Inactive)
REMARK    1  A    between atoms: C_2  and  C_3
REMARK    2  A    between atoms: C_3  and  C_4
REMARK    3  A    between atoms: C_4  and  N_5
REMARK    4  A    between atoms: N_8  and  S_9
REMARK    5  A    between atoms: S_9  and  C_12
REMARK                            x       y       z     vdW  Elec       q    Type
REMARK                         _______ _______ _______ _____ _____    ______ ____
ROOT
ATOM      1  S   UNL     1       3.252   6.201  -6.006  0.00  0.00    +0.104 S 
ATOM      2  O   UNL     1       3.913   5.120  -5.189  0.00  0.00    -0.146 OA
ATOM      3  O   UNL     1       3.636   7.544  -5.476  0.00  0.00    -0.146 OA
ENDROOT
BRANCH   1   4
ATOM      4  C   UNL     1       1.530   5.976  -5.836  0.00  0.00    +0.129 A 
ATOM      5  C   UNL     1       0.787   6.868  -5.071  0.00  0.00    +0.020 A 
ATOM      6  C   UNL     1      -0.578   6.865  -5.296  0.00  0.00    -0.003 A 
ATOM      7  C   UNL     1      -1.187   5.932  -6.111  0.00  0.00    -0.022 A 
ATOM      8  C   UNL     1      -2.653   5.683  -5.953  0.00  0.00    +0.031 C 
ATOM      9  C   UNL     1      -0.437   5.004  -6.798  0.00  0.00    -0.003 A 
ATOM     10  C   UNL     1       0.917   4.940  -6.491  0.00  0.00    +0.020 A 
ENDBRANCH   1   4
BRANCH   1  13
ATOM     11  N   UNL     1       3.527   6.808  -9.860  0.00  0.00    -0.184 NA
ATOM     12  C   UNL     1       3.142   6.888  -8.502  0.00  0.00    +0.371 C 
ATOM     13  N   UNL     1       3.742   6.107  -7.669  0.00  0.00    -0.071 NA
ATOM     14  O   UNL     1       2.467   8.021  -8.050  0.00  0.00    -0.244 OA
BRANCH  11  15
ATOM     15  C   UNL     1       4.833   6.313 -10.285  0.00  0.00    +0.117 C 
BRANCH  15  16
ATOM     16  C   UNL     1       5.569   7.503 -10.876  0.00  0.00    +0.023 C 
BRANCH  16  18
ATOM     17  C   UNL     1       7.213   6.122  -9.731  0.00  0.00    +0.000 C 
ATOM     18  C   UNL     1       7.057   7.179 -10.820  0.00  0.00    +0.002 C 
ENDBRANCH  16  18
ENDBRANCH  15  16
ENDBRANCH  11  15
ENDBRANCH   1  13
TORSDOF 5
ENDMDL
MODEL 3
REMARK VINA RESULT:      -6.6      2.231      3.032
REMARK  Name = 
REMARK  5 active torsions:
REMARK  status: ('A' for Active; 'I' for Inactive)
REMARK    1  A    between atoms: C_2  and  C_3
REMARK    2  A    between atoms: C_3  and  C_4
REMARK    3  A    between atoms: C_4  and  N_5
REMARK    4  A    between atoms: N_8  and  S_9
REMARK    5  A    between atoms: S_9  and  C_12
REMARK                            x       y       z     vdW  Elec       q    Type
REMARK                         _______ _______ _______ _____ _____    ______ ____
ROOT
ATOM      1  S   UNL     1       3.487   6.134  -5.980  0.00  0.00    +0.104 S 
ATOM      2  O   UNL     1       3.961   7.484  -5.504  0.00  0.00    -0.146 OA
ATOM      3  O   UNL     1       4.107   5.057  -5.152  0.00  0.00    -0.146 OA
ENDROOT
BRANCH   1   4
ATOM      4  C   UNL     1       4.012   5.974  -7.637  0.00  0.00    +0.129 A 
ATOM      5  C   UNL     1       3.328   6.637  -8.648  0.00  0.00    +0.020 A 
ATOM      6  C   UNL     1       4.010   6.786  -9.843  0.00  0.00    -0.003 A 
ATOM      7  C   UNL     1       5.229   6.181 -10.073  0.00  0.00    -0.022 A 
ATOM      8  C   UNL     1       5.683   5.987 -11.485  0.00  0.00    +0.031 C 
ATOM      9  C   UNL     1       5.853   5.460  -9.081  0.00  0.00    -0.003 A 
ATOM     10  C   UNL     1       5.123   5.223  -7.923  0.00  0.00    +0.020 A 
ENDBRANCH   1   4
BRANCH   1  13
ATOM     11  N   UNL     1      -0.182   4.788  -6.149  0.00  0.00    -0.184 NA
ATOM     12  C   UNL     1       1.225   4.898  -6.242  0.00  0.00    +0.371 C 
ATOM     13  N   UNL     1       1.761   6.003  -5.848  0.00  0.00    -0.071 NA
ATOM     14  O   UNL     1       1.993   3.741  -6.358  0.00  0.00    -0.244 OA
BRANCH  11  15
ATOM     15  C   UNL     1      -0.977   5.580  -5.214  0.00  0.00    +0.117 C 
BRANCH  15  16
ATOM     16  C   UNL     1      -2.208   6.034  -5.980  0.00  0.00    +0.023 C 
BRANCH  16  18
ATOM     17  C   UNL     1      -1.529   7.960  -4.658  0.00  0.00    +0.000 C 
ATOM     18  C   UNL     1      -2.744   7.269  -5.266  0.00  0.00    +0.002 C 
ENDBRANCH  16  18
ENDBRANCH  15  16
ENDBRANCH  11  15
ENDBRANCH   1  13
TORSDOF 5
ENDMDL
MODEL 4
REMARK VINA RESULT:      -6.6      1.765      6.796
REMARK  Name = 
REMARK  5 active torsions:
REMARK  status: ('A' for Active; 'I' for Inactive)
REMARK    1  A    between atoms: C_2  and  C_3
REMARK    2  A    between atoms: C_3  and  C_4
REMARK    3  A    between atoms: C_4  and  N_5
REMARK    4  A    between atoms: N_8  and  S_9
REMARK    5  A    between atoms: S_9  and  C_12
REMARK                            x       y       z     vdW  Elec       q    Type
REMARK                         _______ _______ _______ _____ _____    ______ ____
ROOT
ATOM      1  S   UNL     1       1.223   5.793  -9.289  0.00  0.00    +0.104 S 
ATOM      2  O   UNL     1       0.924   7.120  -9.940  0.00  0.00    -0.146 OA
ATOM      3  O   UNL     1       0.646   4.685 -10.108  0.00  0.00    -0.146 OA
ENDROOT
BRANCH   1   4
ATOM      4  C   UNL     1       0.458   5.820  -7.721  0.00  0.00    +0.129 A 
ATOM      5  C   UNL     1       1.055   6.506  -6.670  0.00  0.00    +0.020 A 
ATOM      6  C   UNL     1       0.230   6.814  -5.602  0.00  0.00    -0.003 A 
ATOM      7  C   UNL     1      -1.062   6.337  -5.511  0.00  0.00    -0.022 A 
ATOM      8  C   UNL     1      -1.725   6.303  -4.171  0.00  0.00    +0.031 C 
ATOM      9  C   UNL     1      -1.608   5.590  -6.529  0.00  0.00    -0.003 A 
ATOM     10  C   UNL     1      -0.750   5.194  -7.548  0.00  0.00    +0.020 A 
ENDBRANCH   1   4
BRANCH   1  13
ATOM     11  N   UNL     1       4.993   5.215 -10.154  0.00  0.00    -0.184 NA
ATOM     12  C   UNL     1       3.600   5.432 -10.255  0.00  0.00    +0.371 C 
ATOM     13  N   UNL     1       2.935   5.543  -9.155  0.00  0.00    -0.071 NA
ATOM     14  O   UNL     1       3.068   5.906 -11.453  0.00  0.00    -0.244 OA
BRANCH  11  15
ATOM     15  C   UNL     1       5.771   5.603  -8.981  0.00  0.00    +0.117 C 
BRANCH  15  16
ATOM     16  C   UNL     1       7.223   5.642  -9.426  0.00  0.00    +0.023 C 
BRANCH  16  18
ATOM     17  C   UNL     1       8.172   6.163 -11.605  0.00  0.00    +0.000 C 
ATOM     18  C   UNL     1       7.338   6.747 -10.469  0.00  0.00    +0.002 C 
ENDBRANCH  16  18
ENDBRANCH  15  16
ENDBRANCH  11  15
ENDBRANCH   1  13
TORSDOF 5
ENDMDL
MODEL 5
REMARK VINA RESULT:      -6.6      2.965      3.653
REMARK  Name = 
REMARK  5 active torsions:
REMARK  status: ('A' for Active; 'I' for Inactive)
REMARK    1  A    between atoms: C_2  and  C_3
REMARK    2  A    between atoms: C_3  and  C_4
REMARK    3  A    between atoms: C_4  and  N_5
REMARK    4  A    between atoms: N_8  and  S_9
REMARK    5  A    between atoms: S_9  and  C_12
REMARK                            x       y       z     vdW  Elec       q    Type
REMARK                         _______ _______ _______ _____ _____    ______ ____
ROOT
ATOM      1  S   UNL     1       2.961   4.978  -8.101  0.00  0.00    +0.104 S 
ATOM      2  O   UNL     1       2.661   3.533  -8.410  0.00  0.00    -0.146 OA
ATOM      3  O   UNL     1       1.762   5.819  -8.395  0.00  0.00    -0.146 OA
ENDROOT
BRANCH   1   4
ATOM      4  C   UNL     1       4.277   5.451  -9.144  0.00  0.00    +0.129 A 
ATOM      5  C   UNL     1       4.032   6.264 -10.245  0.00  0.00    +0.020 A 
ATOM      6  C   UNL     1       5.135   6.906 -10.779  0.00  0.00    -0.003 A 
ATOM      7  C   UNL     1       6.420   6.640 -10.351  0.00  0.00    -0.022 A 
ATOM      8  C   UNL     1       7.565   6.990 -11.246  0.00  0.00    +0.031 C 
ATOM      9  C   UNL     1       6.646   5.768  -9.311  0.00  0.00    -0.003 A 
ATOM     10  C   UNL     1       5.553   5.046  -8.847  0.00  0.00    +0.020 A 
ENDBRANCH   1   4
BRANCH   1  13
ATOM     11  N   UNL     1       2.784   5.083  -4.195  0.00  0.00    -0.184 NA
ATOM     12  C   UNL     1       2.458   4.910  -5.560  0.00  0.00    +0.371 C 
ATOM     13  N   UNL     1       3.375   5.178  -6.427  0.00  0.00    -0.071 NA
ATOM     14  O   UNL     1       1.369   4.111  -5.905  0.00  0.00    -0.244 OA
BRANCH  11  15
ATOM     15  C   UNL     1       4.156   5.044  -3.698  0.00  0.00    +0.117 C 
BRANCH  15  16
ATOM     16  C   UNL     1       4.278   6.177  -2.694  0.00  0.00    +0.023 C 
BRANCH  16  18
ATOM     17  C   UNL     1       5.224   7.815  -4.224  0.00  0.00    +0.000 C 
ATOM     18  C   UNL     1       3.963   7.468  -3.440  0.00  0.00    +0.002 C 
ENDBRANCH  16  18
ENDBRANCH  15  16
ENDBRANCH  11  15
ENDBRANCH   1  13
TORSDOF 5
ENDMDL
MODEL 6
REMARK VINA RESULT:      -6.6      3.140      4.046
REMARK  Name = 
REMARK  5 active torsions:
REMARK  status: ('A' for Active; 'I' for Inactive)
REMARK    1  A    between atoms: C_2  and  C_3
REMARK    2  A    between atoms: C_3  and  C_4
REMARK    3  A    between atoms: C_4  and  N_5
REMARK    4  A    between atoms: N_8  and  S_9
REMARK    5  A    between atoms: S_9  and  C_12
REMARK                            x       y       z     vdW  Elec       q    Type
REMARK                         _______ _______ _______ _____ _____    ______ ____
ROOT
ATOM      1  S   UNL     1       4.026   5.349  -8.937  0.00  0.00    +0.104 S 
ATOM      2  O   UNL     1       3.764   3.865  -8.990  0.00  0.00    -0.146 OA
ATOM      3  O   UNL     1       2.851   6.092  -9.484  0.00  0.00    -0.146 OA
ENDROOT
BRANCH   1   4
ATOM      4  C   UNL     1       5.424   5.647  -9.938  0.00  0.00    +0.129 A 
ATOM      5  C   UNL     1       6.679   5.778  -9.355  0.00  0.00    +0.020 A 
ATOM      6  C   UNL     1       7.759   5.619 -10.204  0.00  0.00    -0.003 A 
ATOM      7  C   UNL     1       7.608   5.494 -11.571  0.00  0.00    -0.022 A 
ATOM      8  C   UNL     1       8.776   5.792 -12.456  0.00  0.00    +0.031 C 
ATOM      9  C   UNL     1       6.354   5.449 -12.137  0.00  0.00    -0.003 A 
ATOM     10  C   UNL     1       5.277   5.714 -11.299  0.00  0.00    +0.020 A 
ENDBRANCH   1   4
BRANCH   1  13
ATOM     11  N   UNL     1       3.467   6.383  -5.206  0.00  0.00    -0.184 NA
ATOM     12  C   UNL     1       3.259   5.947  -6.535  0.00  0.00    +0.371 C 
ATOM     13  N   UNL     1       4.293   5.871  -7.303  0.00  0.00    -0.071 NA
ATOM     14  O   UNL     1       2.091   5.255  -6.851  0.00  0.00    -0.244 OA
BRANCH  11  15
ATOM     15  C   UNL     1       4.754   6.263  -4.526  0.00  0.00    +0.117 C 
BRANCH  15  16
ATOM     16  C   UNL     1       5.080   7.645  -3.986  0.00  0.00    +0.023 C 
BRANCH  16  18
ATOM     17  C   UNL     1       4.559   7.350  -1.628  0.00  0.00    +0.000 C 
ATOM     18  C   UNL     1       4.037   7.964  -2.922  0.00  0.00    +0.002 C 
ENDBRANCH  16  18
ENDBRANCH  15  16
ENDBRANCH  11  15
ENDBRANCH   1  13
TORSDOF 5
ENDMDL
MODEL 7
REMARK VINA RESULT:      -6.5      4.832      6.087
REMARK  Name = 
REMARK  5 active torsions:
REMARK  status: ('A' for Active; 'I' for Inactive)
REMARK    1  A    between atoms: C_2  and  C_3
REMARK    2  A    between atoms: C_3  and  C_4
REMARK    3  A    between atoms: C_4  and  N_5
REMARK    4  A    between atoms: N_8  and  S_9
REMARK    5  A    between atoms: S_9  and  C_12
REMARK                            x       y       z     vdW  Elec       q    Type
REMARK                         _______ _______ _______ _____ _____    ______ ____
ROOT
ATOM      1  S   UNL     1       1.492   5.571  -1.725  0.00  0.00    +0.104 S 
ATOM      2  O   UNL     1       1.580   6.886  -0.993  0.00  0.00    -0.146 OA
ATOM      3  O   UNL     1       1.950   4.462  -0.833  0.00  0.00    -0.146 OA
ENDROOT
BRANCH   1   4
ATOM      4  C   UNL     1       2.557   5.691  -3.102  0.00  0.00    +0.129 A 
ATOM      5  C   UNL     1       3.748   4.975  -3.121  0.00  0.00    +0.020 A 
ATOM      6  C   UNL     1       4.332   4.807  -4.365  0.00  0.00    -0.003 A 
ATOM      7  C   UNL     1       3.851   5.440  -5.494  0.00  0.00    -0.022 A 
ATOM      8  C   UNL     1       4.758   5.601  -6.672  0.00  0.00    +0.031 C 
ATOM      9  C   UNL     1       2.713   6.212  -5.435  0.00  0.00    -0.003 A 
ATOM     10  C   UNL     1       2.190   6.465  -4.173  0.00  0.00    +0.020 A 
ENDBRANCH   1   4
BRANCH   1  13
ATOM     11  N   UNL     1      -2.397   5.150  -1.719  0.00  0.00    -0.184 NA
ATOM     12  C   UNL     1      -1.065   5.426  -1.332  0.00  0.00    +0.371 C 
ATOM     13  N   UNL     1      -0.141   5.243  -2.213  0.00  0.00    -0.071 NA
ATOM     14  O   UNL     1      -0.831   6.233  -0.219  0.00  0.00    -0.244 OA
BRANCH  11  15
ATOM     15  C   UNL     1      -2.837   5.170  -3.111  0.00  0.00    +0.117 C 
BRANCH  15  16
ATOM     16  C   UNL     1      -3.215   6.609  -3.417  0.00  0.00    +0.023 C 
BRANCH  16  18
ATOM     17  C   UNL     1      -1.757   8.208  -4.529  0.00  0.00    +0.000 C 
ATOM     18  C   UNL     1      -2.594   6.955  -4.764  0.00  0.00    +0.002 C 
ENDBRANCH  16  18
ENDBRANCH  15  16
ENDBRANCH  11  15
ENDBRANCH   1  13
TORSDOF 5
ENDMDL
MODEL 8
REMARK VINA RESULT:      -6.5      2.523      3.687
REMARK  Name = 
REMARK  5 active torsions:
REMARK  status: ('A' for Active; 'I' for Inactive)
REMARK    1  A    between atoms: C_2  and  C_3
REMARK    2  A    between atoms: C_3  and  C_4
REMARK    3  A    between atoms: C_4  and  N_5
REMARK    4  A    between atoms: N_8  and  S_9
REMARK    5  A    between atoms: S_9  and  C_12
REMARK                            x       y       z     vdW  Elec       q    Type
REMARK                         _______ _______ _______ _____ _____    ______ ____
ROOT
ATOM      1  S   UNL     1       2.600   6.207  -4.811  0.00  0.00    +0.104 S 
ATOM      2  O   UNL     1       3.066   7.380  -3.985  0.00  0.00    -0.146 OA
ATOM      3  O   UNL     1       3.061   4.931  -4.186  0.00  0.00    -0.146 OA
ENDROOT
BRANCH   1   4
ATOM      4  C   UNL     1       3.330   6.383  -6.387  0.00  0.00    +0.129 A 
ATOM      5  C   UNL     1       4.431   5.608  -6.731  0.00  0.00    +0.020 A 
ATOM      6  C   UNL     1       4.703   5.511  -8.085  0.00  0.00    -0.003 A 
ATOM      7  C   UNL     1       4.025   6.260  -9.026  0.00  0.00    -0.022 A 
ATOM      8  C   UNL     1       4.649   6.468 -10.368  0.00  0.00    +0.031 C 
ATOM      9  C   UNL     1       2.988   7.085  -8.652  0.00  0.00    -0.003 A 
ATOM     10  C   UNL     1       2.786   7.261  -7.289  0.00  0.00    +0.020 A 
ENDBRANCH   1   4
BRANCH   1  13
ATOM     11  N   UNL     1      -1.067   5.244  -5.774  0.00  0.00    -0.184 NA
ATOM     12  C   UNL     1       0.344   5.271  -5.674  0.00  0.00    +0.371 C 
ATOM     13  N   UNL     1       0.868   6.174  -4.916  0.00  0.00    -0.071 NA
ATOM     14  O   UNL     1       1.074   4.141  -6.038  0.00  0.00    -0.244 OA
BRANCH  11  15
ATOM     15  C   UNL     1      -1.943   5.793  -4.743  0.00  0.00    +0.117 C 
BRANCH  15  16
ATOM     16  C   UNL     1      -2.499   7.091  -5.302  0.00  0.00    +0.023 C 
BRANCH  16  18
ATOM     17  C   UNL     1      -2.053   7.644  -2.976  0.00  0.00    +0.000 C 
ATOM     18  C   UNL     1      -2.014   8.212  -4.391  0.00  0.00    +0.002 C 
ENDBRANCH  16  18
ENDBRANCH  15  16
ENDBRANCH  11  15
ENDBRANCH   1  13
TORSDOF 5
ENDMDL
MODEL 9
REMARK VINA RESULT:      -6.4      3.031      6.731
REMARK  Name = 
REMARK  5 active torsions:
REMARK  status: ('A' for Active; 'I' for Inactive)
REMARK    1  A    between atoms: C_2  and  C_3
REMARK    2  A    between atoms: C_3  and  C_4
REMARK    3  A    between atoms: C_4  and  N_5
REMARK    4  A    between atoms: N_8  and  S_9
REMARK    5  A    between atoms: S_9  and  C_12
REMARK                            x       y       z     vdW  Elec       q    Type
REMARK                         _______ _______ _______ _____ _____    ______ ____
ROOT
ATOM      1  S   UNL     1       1.262   4.987  -6.341  0.00  0.00    +0.104 S 
ATOM      2  O   UNL     1       1.633   3.602  -5.876  0.00  0.00    -0.146 OA
ATOM      3  O   UNL     1       2.399   5.926  -6.098  0.00  0.00    -0.146 OA
ENDROOT
BRANCH   1   4
ATOM      4  C   UNL     1      -0.117   5.482  -5.393  0.00  0.00    +0.129 A 
ATOM      5  C   UNL     1      -1.339   5.709  -6.015  0.00  0.00    +0.020 A 
ATOM      6  C   UNL     1      -2.448   5.708  -5.186  0.00  0.00    -0.003 A 
ATOM      7  C   UNL     1      -2.338   5.643  -3.812  0.00  0.00    -0.022 A 
ATOM      8  C   UNL     1      -3.486   6.106  -2.973  0.00  0.00    +0.031 C 
ATOM      9  C   UNL     1      -1.108   5.499  -3.212  0.00  0.00    -0.003 A 
ATOM     10  C   UNL     1       0.008   5.606  -4.033  0.00  0.00    +0.020 A 
ENDBRANCH   1   4
BRANCH   1  13
ATOM     11  N   UNL     1       1.590   4.763 -10.232  0.00  0.00    -0.184 NA
ATOM     12  C   UNL     1       1.875   4.748  -8.848  0.00  0.00    +0.371 C 
ATOM     13  N   UNL     1       0.899   4.993  -8.039  0.00  0.00    -0.071 NA
ATOM     14  O   UNL     1       3.025   4.105  -8.395  0.00  0.00    -0.244 OA
BRANCH  11  15
ATOM     15  C   UNL     1       0.251   4.533 -10.767  0.00  0.00    +0.117 C 
BRANCH  15  16
ATOM     16  C   UNL     1       0.151   5.360 -12.037  0.00  0.00    +0.023 C 
BRANCH  16  18
ATOM     17  C   UNL     1      -0.664   7.611 -11.605  0.00  0.00    +0.000 C 
ATOM     18  C   UNL     1       0.606   6.771 -11.686  0.00  0.00    +0.002 C 
ENDBRANCH  16  18
ENDBRANCH  15  16
ENDBRANCH  11  15
ENDBRANCH   1  13
TORSDOF 5
ENDMDL
