MODEL 1
REMARK VINA RESULT:      -7.5      0.000      0.000
REMARK  Name = 
REMARK  3 active torsions:
REMARK  status: ('A' for Active; 'I' for Inactive)
REMARK    1  A    between atoms: N_7  and  C_8
REMARK    2  A    between atoms: C_11  and  N_12
REMARK    3  A    between atoms: C_15  and  C_16
REMARK                            x       y       z     vdW  Elec       q    Type
REMARK                         _______ _______ _______ _____ _____    ______ ____
ROOT
ATOM      1  C   UNL     1       4.105   5.279  -9.892  0.00  0.00    +0.063 A 
ATOM      2  C   UNL     1       5.453   5.433  -9.592  0.00  0.00    +0.025 A 
ATOM      3  C   UNL     1       6.349   5.891 -10.551  0.00  0.00    +0.142 A 
ATOM      4  C   UNL     1       5.865   6.506 -11.695  0.00  0.00    +0.294 A 
ATOM      5  C   UNL     1       4.547   6.252 -12.055  0.00  0.00    +0.077 A 
ATOM      6  C   UNL     1       3.789   5.419 -11.239  0.00  0.00    +0.022 A 
ENDROOT
BRANCH   1  11
ATOM      7  C   UNL     1       3.189   7.078  -5.847  0.00  0.00    +0.031 C 
ATOM      8  C   UNL     1       2.328   6.262  -6.782  0.00  0.00    +0.149 C 
ATOM      9  C   UNL     1       2.773   6.618  -8.168  0.00  0.00    +0.254 C 
ATOM     10  O   UNL     1       3.037   7.798  -8.546  0.00  0.00    -0.272 OA
ATOM     11  N   UNL     1       3.115   5.413  -8.864  0.00  0.00    -0.190 N 
ATOM     12  C   UNL     1       2.649   4.364  -8.009  0.00  0.00    +0.333 C 
ATOM     13  O   UNL     1       2.514   3.168  -8.374  0.00  0.00    -0.250 OA
ATOM     14  N   UNL     1       2.559   4.844  -6.662  0.00  0.00    -0.182 NA
ATOM     15  C   UNL     1       0.865   6.547  -6.574  0.00  0.00    +0.031 C 
ENDBRANCH   1  11
BRANCH   3  16
ATOM     16  C   UNL     1       7.782   6.036 -10.227  0.00  0.00    +0.424 C 
ATOM     17  F   UNL     1       8.113   7.267  -9.727  0.00  0.00    -0.166 F 
ATOM     18  F   UNL     1       8.072   5.046  -9.294  0.00  0.00    -0.166 F 
ATOM     19  F   UNL     1       8.601   5.776 -11.313  0.00  0.00    -0.166 F 
ENDBRANCH   3  16
BRANCH   4  20
ATOM     20  N   UNL     1       6.477   7.687 -12.223  0.00  0.00    +0.081 N 
ATOM     21  O   UNL     1       6.231   8.878 -11.557  0.00  0.00    -0.576 OA
ATOM     22  O   UNL     1       6.454   7.779 -13.477  0.00  0.00    +0.041 OA
ENDBRANCH   4  20
TORSDOF 3
ENDMDL
MODEL 2
REMARK VINA RESULT:      -7.5      4.080      5.908
REMARK  Name = 
REMARK  3 active torsions:
REMARK  status: ('A' for Active; 'I' for Inactive)
REMARK    1  A    between atoms: N_7  and  C_8
REMARK    2  A    between atoms: C_11  and  N_12
REMARK    3  A    between atoms: C_15  and  C_16
REMARK                            x       y       z     vdW  Elec       q    Type
REMARK                         _______ _______ _______ _____ _____    ______ ____
ROOT
ATOM      1  C   UNL     1       0.595   5.146  -5.130  0.00  0.00    +0.063 A 
ATOM      2  C   UNL     1       1.884   5.560  -4.818  0.00  0.00    +0.025 A 
ATOM      3  C   UNL     1       2.798   5.863  -5.821  0.00  0.00    +0.142 A 
ATOM      4  C   UNL     1       2.344   6.074  -7.113  0.00  0.00    +0.294 A 
ATOM      5  C   UNL     1       1.102   5.552  -7.454  0.00  0.00    +0.077 A 
ATOM      6  C   UNL     1       0.382   4.874  -6.477  0.00  0.00    +0.022 A 
ENDROOT
BRANCH   1  11
ATOM      7  C   UNL     1      -2.200   8.325  -3.542  0.00  0.00    +0.031 C 
ATOM      8  C   UNL     1      -2.118   6.845  -3.246  0.00  0.00    +0.149 C 
ATOM      9  C   UNL     1      -1.653   6.197  -4.514  0.00  0.00    +0.254 C 
ATOM     10  O   UNL     1      -2.080   6.508  -5.667  0.00  0.00    -0.272 OA
ATOM     11  N   UNL     1      -0.488   5.414  -4.230  0.00  0.00    -0.190 N 
ATOM     12  C   UNL     1      -0.413   5.394  -2.800  0.00  0.00    +0.333 C 
ATOM     13  O   UNL     1       0.305   4.596  -2.145  0.00  0.00    -0.250 OA
ATOM     14  N   UNL     1      -1.110   6.526  -2.266  0.00  0.00    -0.182 NA
ATOM     15  C   UNL     1      -3.444   6.300  -2.791  0.00  0.00    +0.031 C 
ENDBRANCH   1  11
BRANCH   3  16
ATOM     16  C   UNL     1       4.170   6.288  -5.479  0.00  0.00    +0.424 C 
ATOM     17  F   UNL     1       4.285   7.627  -5.220  0.00  0.00    -0.166 F 
ATOM     18  F   UNL     1       4.538   5.550  -4.359  0.00  0.00    -0.166 F 
ATOM     19  F   UNL     1       5.088   5.956  -6.462  0.00  0.00    -0.166 F 
ENDBRANCH   3  16
BRANCH   4  20
ATOM     20  N   UNL     1       2.853   7.143  -7.918  0.00  0.00    +0.081 N 
ATOM     21  O   UNL     1       2.147   8.335  -7.905  0.00  0.00    -0.576 OA
ATOM     22  O   UNL     1       3.269   6.798  -9.054  0.00  0.00    +0.041 OA
ENDBRANCH   4  20
TORSDOF 3
ENDMDL
MODEL 3
REMARK VINA RESULT:      -7.5      1.419      2.305
REMARK  Name = 
REMARK  3 active torsions:
REMARK  status: ('A' for Active; 'I' for Inactive)
REMARK    1  A    between atoms: N_7  and  C_8
REMARK    2  A    between atoms: C_11  and  N_12
REMARK    3  A    between atoms: C_15  and  C_16
REMARK                            x       y       z     vdW  Elec       q    Type
REMARK                         _______ _______ _______ _____ _____    ______ ____
ROOT
ATOM      1  C   UNL     1       4.032   5.719  -8.489  0.00  0.00    +0.063 A 
ATOM      2  C   UNL     1       5.420   5.672  -8.542  0.00  0.00    +0.025 A 
ATOM      3  C   UNL     1       6.089   5.732  -9.759  0.00  0.00    +0.142 A 
ATOM      4  C   UNL     1       5.412   6.168 -10.887  0.00  0.00    +0.294 A 
ATOM      5  C   UNL     1       4.024   6.101 -10.872  0.00  0.00    +0.077 A 
ATOM      6  C   UNL     1       3.399   5.625  -9.724  0.00  0.00    +0.022 A 
ENDROOT
BRANCH   1  11
ATOM      7  C   UNL     1       1.053   4.872  -5.196  0.00  0.00    +0.031 C 
ATOM      8  C   UNL     1       1.894   6.096  -5.476  0.00  0.00    +0.149 C 
ATOM      9  C   UNL     1       3.165   5.591  -6.087  0.00  0.00    +0.254 C 
ATOM     10  O   UNL     1       3.794   4.571  -5.674  0.00  0.00    -0.272 OA
ATOM     11  N   UNL     1       3.370   6.258  -7.338  0.00  0.00    -0.190 N 
ATOM     12  C   UNL     1       2.392   7.303  -7.348  0.00  0.00    +0.333 C 
ATOM     13  O   UNL     1       2.412   8.278  -8.142  0.00  0.00    -0.250 OA
ATOM     14  N   UNL     1       1.311   6.959  -6.472  0.00  0.00    -0.182 NA
ATOM     15  C   UNL     1       2.151   6.886  -4.221  0.00  0.00    +0.031 C 
ENDBRANCH   1  11
BRANCH   3  16
ATOM     16  C   UNL     1       7.563   5.666  -9.806  0.00  0.00    +0.424 C 
ATOM     17  F   UNL     1       8.061   5.313 -11.032  0.00  0.00    -0.166 F 
ATOM     18  F   UNL     1       8.020   6.931  -9.450  0.00  0.00    -0.166 F 
ATOM     19  F   UNL     1       8.087   4.801  -8.861  0.00  0.00    -0.166 F 
ENDBRANCH   3  16
BRANCH   4  20
ATOM     20  N   UNL     1       6.018   7.069 -11.820  0.00  0.00    +0.081 N 
ATOM     21  O   UNL     1       6.124   8.397 -11.439  0.00  0.00    -0.576 OA
ATOM     22  O   UNL     1       5.675   6.898 -13.018  0.00  0.00    +0.041 OA
ENDBRANCH   4  20
TORSDOF 3
ENDMDL
MODEL 4
REMARK VINA RESULT:      -7.4      5.169      8.037
REMARK  Name = 
REMARK  3 active torsions:
REMARK  status: ('A' for Active; 'I' for Inactive)
REMARK    1  A    between atoms: N_7  and  C_8
REMARK    2  A    between atoms: C_11  and  N_12
REMARK    3  A    between atoms: C_15  and  C_16
REMARK                            x       y       z     vdW  Elec       q    Type
REMARK                         _______ _______ _______ _____ _____    ______ ____
ROOT
ATOM      1  C   UNL     1       0.758   5.272  -7.425  0.00  0.00    +0.063 A 
ATOM      2  C   UNL     1      -0.497   5.752  -7.075  0.00  0.00    +0.025 A 
ATOM      3  C   UNL     1      -0.984   5.599  -5.781  0.00  0.00    +0.142 A 
ATOM      4  C   UNL     1      -0.107   5.270  -4.760  0.00  0.00    +0.294 A 
ATOM      5  C   UNL     1       1.101   4.679  -5.112  0.00  0.00    +0.077 A 
ATOM      6  C   UNL     1       1.366   4.475  -6.462  0.00  0.00    +0.022 A 
ENDROOT
BRANCH   1  11
ATOM      7  C   UNL     1       4.401   4.952 -10.084  0.00  0.00    +0.031 C 
ATOM      8  C   UNL     1       3.309   5.996 -10.026  0.00  0.00    +0.149 C 
ATOM      9  C   UNL     1       2.064   5.267  -9.624  0.00  0.00    +0.254 C 
ATOM     10  O   UNL     1       1.724   4.136 -10.086  0.00  0.00    -0.272 OA
ATOM     11  N   UNL     1       1.509   5.906  -8.468  0.00  0.00    -0.190 N 
ATOM     12  C   UNL     1       2.257   7.121  -8.341  0.00  0.00    +0.333 C 
ATOM     13  O   UNL     1       1.908   8.089  -7.618  0.00  0.00    -0.250 OA
ATOM     14  N   UNL     1       3.526   6.975  -8.991  0.00  0.00    -0.182 NA
ATOM     15  C   UNL     1       3.147   6.697 -11.348  0.00  0.00    +0.031 C 
ENDBRANCH   1  11
BRANCH   3  16
ATOM     16  C   UNL     1      -2.326   6.099  -5.422  0.00  0.00    +0.424 C 
ATOM     17  F   UNL     1      -2.319   7.354  -4.873  0.00  0.00    -0.166 F 
ATOM     18  F   UNL     1      -3.070   6.094  -6.598  0.00  0.00    -0.166 F 
ATOM     19  F   UNL     1      -2.993   5.250  -4.555  0.00  0.00    -0.166 F 
ENDBRANCH   3  16
BRANCH   4  20
ATOM     20  N   UNL     1      -0.182   5.904  -3.479  0.00  0.00    +0.081 N 
ATOM     21  O   UNL     1       0.884   6.709  -3.109  0.00  0.00    -0.576 OA
ATOM     22  O   UNL     1      -0.629   5.178  -2.554  0.00  0.00    +0.041 OA
ENDBRANCH   4  20
TORSDOF 3
ENDMDL
MODEL 5
REMARK VINA RESULT:      -7.3      2.072      2.876
REMARK  Name = 
REMARK  3 active torsions:
REMARK  status: ('A' for Active; 'I' for Inactive)
REMARK    1  A    between atoms: N_7  and  C_8
REMARK    2  A    between atoms: C_11  and  N_12
REMARK    3  A    between atoms: C_15  and  C_16
REMARK                            x       y       z     vdW  Elec       q    Type
REMARK                         _______ _______ _______ _____ _____    ______ ____
ROOT
ATOM      1  C   UNL     1       4.019   5.327  -7.662  0.00  0.00    +0.063 A 
ATOM      2  C   UNL     1       5.214   5.783  -8.203  0.00  0.00    +0.025 A 
ATOM      3  C   UNL     1       5.519   5.570  -9.542  0.00  0.00    +0.142 A 
ATOM      4  C   UNL     1       4.510   5.202 -10.418  0.00  0.00    +0.294 A 
ATOM      5  C   UNL     1       3.362   4.634  -9.878  0.00  0.00    +0.077 A 
ATOM      6  C   UNL     1       3.284   4.492  -8.497  0.00  0.00    +0.022 A 
ENDROOT
BRANCH   1  11
ATOM      7  C   UNL     1       1.067   4.979  -4.255  0.00  0.00    +0.031 C 
ATOM      8  C   UNL     1       1.976   6.116  -4.662  0.00  0.00    +0.149 C 
ATOM      9  C   UNL     1       3.199   5.477  -5.244  0.00  0.00    +0.254 C 
ATOM     10  O   UNL     1       3.773   4.461  -4.748  0.00  0.00    -0.272 OA
ATOM     11  N   UNL     1       3.418   6.011  -6.555  0.00  0.00    -0.190 N 
ATOM     12  C   UNL     1       2.505   7.111  -6.647  0.00  0.00    +0.333 C 
ATOM     13  O   UNL     1       2.569   8.005  -7.530  0.00  0.00    -0.250 OA
ATOM     14  N   UNL     1       1.425   6.919  -5.725  0.00  0.00    -0.182 NA
ATOM     15  C   UNL     1       2.309   7.001  -3.492  0.00  0.00    +0.031 C 
ENDBRANCH   1  11
BRANCH   3  16
ATOM     16  C   UNL     1       6.799   6.045 -10.104  0.00  0.00    +0.424 C 
ATOM     17  F   UNL     1       6.726   7.291 -10.667  0.00  0.00    -0.166 F 
ATOM     18  F   UNL     1       7.708   6.048  -9.051  0.00  0.00    -0.166 F 
ATOM     19  F   UNL     1       7.321   5.174 -11.045  0.00  0.00    -0.166 F 
ENDBRANCH   3  16
BRANCH   4  20
ATOM     20  N   UNL     1       4.409   5.778 -11.725  0.00  0.00    +0.081 N 
ATOM     21  O   UNL     1       3.288   6.548 -11.990  0.00  0.00    -0.576 OA
ATOM     22  O   UNL     1       4.752   5.017 -12.666  0.00  0.00    +0.041 OA
ENDBRANCH   4  20
TORSDOF 3
ENDMDL
MODEL 6
REMARK VINA RESULT:      -7.3      4.155      5.711
REMARK  Name = 
REMARK  3 active torsions:
REMARK  status: ('A' for Active; 'I' for Inactive)
REMARK    1  A    between atoms: N_7  and  C_8
REMARK    2  A    between atoms: C_11  and  N_12
REMARK    3  A    between atoms: C_15  and  C_16
REMARK                            x       y       z     vdW  Elec       q    Type
REMARK                         _______ _______ _______ _____ _____    ______ ____
ROOT
ATOM      1  C   UNL     1       0.266   6.221  -7.090  0.00  0.00    +0.063 A 
ATOM      2  C   UNL     1      -0.028   5.578  -8.286  0.00  0.00    +0.025 A 
ATOM      3  C   UNL     1       0.909   5.517  -9.312  0.00  0.00    +0.142 A 
ATOM      4  C   UNL     1       2.237   5.799  -9.036  0.00  0.00    +0.294 A 
ATOM      5  C   UNL     1       2.516   6.547  -7.899  0.00  0.00    +0.077 A 
ATOM      6  C   UNL     1       1.453   6.945  -7.095  0.00  0.00    +0.022 A 
ENDROOT
BRANCH   1  11
ATOM      7  C   UNL     1      -2.106   7.579  -3.488  0.00  0.00    +0.031 C 
ATOM      8  C   UNL     1      -1.642   6.202  -3.904  0.00  0.00    +0.149 C 
ATOM      9  C   UNL     1      -1.654   6.198  -5.401  0.00  0.00    +0.254 C 
ATOM     10  O   UNL     1      -2.579   6.706  -6.105  0.00  0.00    -0.272 OA
ATOM     11  N   UNL     1      -0.360   5.802  -5.870  0.00  0.00    -0.190 N 
ATOM     12  C   UNL     1       0.319   5.343  -4.696  0.00  0.00    +0.333 C 
ATOM     13  O   UNL     1       1.377   4.664  -4.716  0.00  0.00    -0.250 OA
ATOM     14  N   UNL     1      -0.274   5.937  -3.535  0.00  0.00    -0.182 NA
ATOM     15  C   UNL     1      -2.528   5.128  -3.333  0.00  0.00    +0.031 C 
ENDBRANCH   1  11
BRANCH   3  16
ATOM     16  C   UNL     1       0.582   4.846 -10.585  0.00  0.00    +0.424 C 
ATOM     17  F   UNL     1       0.615   3.479 -10.512  0.00  0.00    -0.166 F 
ATOM     18  F   UNL     1      -0.695   5.276 -10.934  0.00  0.00    -0.166 F 
ATOM     19  F   UNL     1       1.407   5.245 -11.623  0.00  0.00    -0.166 F 
ENDBRANCH   3  16
BRANCH   4  20
ATOM     20  N   UNL     1       3.297   5.003  -9.578  0.00  0.00    +0.081 N 
ATOM     21  O   UNL     1       3.617   3.835  -8.905  0.00  0.00    -0.576 OA
ATOM     22  O   UNL     1       4.291   5.655  -9.989  0.00  0.00    +0.041 OA
ENDBRANCH   4  20
TORSDOF 3
ENDMDL
MODEL 7
REMARK VINA RESULT:      -7.3      6.032      8.937
REMARK  Name = 
REMARK  3 active torsions:
REMARK  status: ('A' for Active; 'I' for Inactive)
REMARK    1  A    between atoms: N_7  and  C_8
REMARK    2  A    between atoms: C_11  and  N_12
REMARK    3  A    between atoms: C_15  and  C_16
REMARK                            x       y       z     vdW  Elec       q    Type
REMARK                         _______ _______ _______ _____ _____    ______ ____
ROOT
ATOM      1  C   UNL     1       1.121   5.292  -3.495  0.00  0.00    +0.063 A 
ATOM      2  C   UNL     1       0.286   5.369  -4.602  0.00  0.00    +0.025 A 
ATOM      3  C   UNL     1      -1.088   5.525  -4.450  0.00  0.00    +0.142 A 
ATOM      4  C   UNL     1      -1.593   5.933  -3.226  0.00  0.00    +0.294 A 
ATOM      5  C   UNL     1      -0.797   5.742  -2.103  0.00  0.00    +0.077 A 
ATOM      6  C   UNL     1       0.462   5.179  -2.276  0.00  0.00    +0.022 A 
ENDROOT
BRANCH   1  11
ATOM      7  C   UNL     1       4.679   5.803  -6.238  0.00  0.00    +0.031 C 
ATOM      8  C   UNL     1       4.493   6.167  -4.783  0.00  0.00    +0.149 C 
ATOM      9  C   UNL     1       3.048   6.531  -4.631  0.00  0.00    +0.254 C 
ATOM     10  O   UNL     1       2.402   7.236  -5.465  0.00  0.00    -0.272 OA
ATOM     11  N   UNL     1       2.481   5.736  -3.583  0.00  0.00    -0.190 N 
ATOM     12  C   UNL     1       3.609   5.106  -2.966  0.00  0.00    +0.333 C 
ATOM     13  O   UNL     1       3.571   4.539  -1.844  0.00  0.00    -0.250 OA
ATOM     14  N   UNL     1       4.698   5.050  -3.896  0.00  0.00    -0.182 NA
ATOM     15  C   UNL     1       5.401   7.297  -4.378  0.00  0.00    +0.031 C 
ENDBRANCH   1  11
BRANCH   3  16
ATOM     16  C   UNL     1      -1.970   5.591  -5.632  0.00  0.00    +0.424 C 
ATOM     17  F   UNL     1      -2.290   6.868  -6.011  0.00  0.00    -0.166 F 
ATOM     18  F   UNL     1      -1.291   4.942  -6.659  0.00  0.00    -0.166 F 
ATOM     19  F   UNL     1      -3.146   4.883  -5.456  0.00  0.00    -0.166 F 
ENDBRANCH   3  16
BRANCH   4  20
ATOM     20  N   UNL     1      -2.635   6.911  -3.137  0.00  0.00    +0.081 N 
ATOM     21  O   UNL     1      -2.253   8.243  -3.150  0.00  0.00    -0.576 OA
ATOM     22  O   UNL     1      -3.546   6.640  -2.313  0.00  0.00    +0.041 OA
ENDBRANCH   4  20
TORSDOF 3
ENDMDL
MODEL 8
REMARK VINA RESULT:      -7.1      5.445      8.644
REMARK  Name = 
REMARK  3 active torsions:
REMARK  status: ('A' for Active; 'I' for Inactive)
REMARK    1  A    between atoms: N_7  and  C_8
REMARK    2  A    between atoms: C_11  and  N_12
REMARK    3  A    between atoms: C_15  and  C_16
REMARK                            x       y       z     vdW  Elec       q    Type
REMARK                         _______ _______ _______ _____ _____    ______ ____
ROOT
ATOM      1  C   UNL     1       0.822   6.697  -5.157  0.00  0.00    +0.063 A 
ATOM      2  C   UNL     1       1.231   6.301  -3.890  0.00  0.00    +0.025 A 
ATOM      3  C   UNL     1       0.341   6.296  -2.822  0.00  0.00    +0.142 A 
ATOM      4  C   UNL     1      -1.021   6.363  -3.072  0.00  0.00    +0.294 A 
ATOM      5  C   UNL     1      -1.427   6.874  -4.300  0.00  0.00    +0.077 A 
ATOM      6  C   UNL     1      -0.448   7.262  -5.209  0.00  0.00    +0.022 A 
ENDROOT
BRANCH   1  11
ATOM      7  C   UNL     1       0.924   6.754  -9.677  0.00  0.00    +0.031 C 
ATOM      8  C   UNL     1       1.784   6.014  -8.679  0.00  0.00    +0.149 C 
ATOM      9  C   UNL     1       1.878   6.903  -7.477  0.00  0.00    +0.254 C 
ATOM     10  O   UNL     1       2.052   8.157  -7.535  0.00  0.00    -0.272 OA
ATOM     11  N   UNL     1       1.461   6.163  -6.324  0.00  0.00    -0.190 N 
ATOM     12  C   UNL     1       1.365   4.811  -6.785  0.00  0.00    +0.333 C 
ATOM     13  O   UNL     1       1.290   3.812  -6.024  0.00  0.00    -0.250 OA
ATOM     14  N   UNL     1       1.171   4.799  -8.205  0.00  0.00    -0.182 NA
ATOM     15  C   UNL     1       3.140   5.697  -9.249  0.00  0.00    +0.031 C 
ENDBRANCH   1  11
BRANCH   3  16
ATOM     16  C   UNL     1       0.789   5.888  -1.476  0.00  0.00    +0.424 C 
ATOM     17  F   UNL     1       0.546   4.571  -1.189  0.00  0.00    -0.166 F 
ATOM     18  F   UNL     1       2.156   6.144  -1.428  0.00  0.00    -0.166 F 
ATOM     19  F   UNL     1       0.229   6.661  -0.473  0.00  0.00    -0.166 F 
ENDBRANCH   3  16
BRANCH   4  20
ATOM     20  N   UNL     1      -1.952   5.544  -2.358  0.00  0.00    +0.081 N 
ATOM     21  O   UNL     1      -2.689   4.633  -3.098  0.00  0.00    -0.576 OA
ATOM     22  O   UNL     1      -2.609   6.143  -1.468  0.00  0.00    +0.041 OA
ENDBRANCH   4  20
TORSDOF 3
ENDMDL
MODEL 9
REMARK VINA RESULT:      -7.1      3.125      6.128
REMARK  Name = 
REMARK  3 active torsions:
REMARK  status: ('A' for Active; 'I' for Inactive)
REMARK    1  A    between atoms: N_7  and  C_8
REMARK    2  A    between atoms: C_11  and  N_12
REMARK    3  A    between atoms: C_15  and  C_16
REMARK                            x       y       z     vdW  Elec       q    Type
REMARK                         _______ _______ _______ _____ _____    ______ ____
ROOT
ATOM      1  C   UNL     1       3.494   5.416  -9.928  0.00  0.00    +0.063 A 
ATOM      2  C   UNL     1       3.192   6.482  -9.091  0.00  0.00    +0.025 A 
ATOM      3  C   UNL     1       2.405   6.300  -7.959  0.00  0.00    +0.142 A 
ATOM      4  C   UNL     1       2.194   5.018  -7.478  0.00  0.00    +0.294 A 
ATOM      5  C   UNL     1       2.383   3.959  -8.358  0.00  0.00    +0.077 A 
ATOM      6  C   UNL     1       2.794   4.246  -9.655  0.00  0.00    +0.022 A 
ENDROOT
BRANCH   1  11
ATOM      7  C   UNL     1       7.435   7.525 -10.609  0.00  0.00    +0.031 C 
ATOM      8  C   UNL     1       6.866   6.269 -11.230  0.00  0.00    +0.149 C 
ATOM      9  C   UNL     1       6.031   5.626 -10.166  0.00  0.00    +0.254 C 
ATOM     10  O   UNL     1       6.380   5.533  -8.950  0.00  0.00    -0.272 OA
ATOM     11  N   UNL     1       4.713   5.411 -10.683  0.00  0.00    -0.190 N 
ATOM     12  C   UNL     1       4.832   5.685 -12.083  0.00  0.00    +0.333 C 
ATOM     13  O   UNL     1       3.970   5.356 -12.939  0.00  0.00    -0.250 OA
ATOM     14  N   UNL     1       5.955   6.544 -12.312  0.00  0.00    -0.182 NA
ATOM     15  C   UNL     1       7.956   5.354 -11.717  0.00  0.00    +0.031 C 
ENDBRANCH   1  11
BRANCH   3  16
ATOM     16  C   UNL     1       2.077   7.443  -7.084  0.00  0.00    +0.424 C 
ATOM     17  F   UNL     1       0.903   7.291  -6.395  0.00  0.00    -0.166 F 
ATOM     18  F   UNL     1       3.141   7.569  -6.196  0.00  0.00    -0.166 F 
ATOM     19  F   UNL     1       2.023   8.642  -7.774  0.00  0.00    -0.166 F 
ENDBRANCH   3  16
BRANCH   4  20
ATOM     20  N   UNL     1       2.248   4.728  -6.077  0.00  0.00    +0.081 N 
ATOM     21  O   UNL     1       3.503   4.573  -5.512  0.00  0.00    -0.576 OA
ATOM     22  O   UNL     1       1.391   3.899  -5.675  0.00  0.00    +0.041 OA
ENDBRANCH   4  20
TORSDOF 3
ENDMDL
