MODEL 1
REMARK VINA RESULT:      -4.9      0.000      0.000
REMARK  Name = 
REMARK  3 active torsions:
REMARK  status: ('A' for Active; 'I' for Inactive)
REMARK    1  A    between atoms: N_2  and  N_4
REMARK    2  A    between atoms: N_5  and  C_6
REMARK    3  A    between atoms: C_10  and  C_11
REMARK                            x       y       z     vdW  Elec       q    Type
REMARK                         _______ _______ _______ _____ _____    ______ ____
ROOT
ATOM      1  C   UNL     1       2.058   4.969  -7.767  0.00  0.00    +0.209 A 
ATOM      2  C   UNL     1       3.037   5.943  -7.905  0.00  0.00    +0.177 A 
ATOM      3  N   UNL     1       4.132   5.271  -8.298  0.00  0.00    -0.216 NA
ATOM      4  C   UNL     1       3.634   4.225  -9.000  0.00  0.00    +0.201 A 
ATOM      5  N   UNL     1       2.542   3.837  -8.301  0.00  0.00    -0.202 NA
ENDROOT
BRANCH   2   6
ATOM      6  C   UNL     1       2.939   7.265  -7.280  0.00  0.00    +0.305 C 
ATOM      7  O   UNL     1       2.069   8.046  -7.770  0.00  0.00    -0.265 OA
ATOM      8  N   UNL     1       3.108   7.304  -5.868  0.00  0.00    -0.082 NA
ENDBRANCH   2   6
BRANCH   1  10
ATOM      9  N   UNL     1       0.397   4.910  -6.101  0.00  0.00    -0.076 NA
ATOM     10  N   UNL     1       0.742   5.179  -7.287  0.00  0.00    -0.111 NA
BRANCH   9  12
ATOM     11  C   UNL     1      -1.923   5.504  -6.429  0.00  0.00    +0.136 C 
ATOM     12  N   UNL     1      -0.715   5.629  -5.617  0.00  0.00    -0.211 N 
ATOM     13  C   UNL     1      -0.419   6.974  -5.134  0.00  0.00    +0.136 C 
ENDBRANCH   9  12
ENDBRANCH   1  10
TORSDOF 3
ENDMDL
MODEL 2
REMARK VINA RESULT:      -4.9      1.951      2.287
REMARK  Name = 
REMARK  3 active torsions:
REMARK  status: ('A' for Active; 'I' for Inactive)
REMARK    1  A    between atoms: N_2  and  N_4
REMARK    2  A    between atoms: N_5  and  C_6
REMARK    3  A    between atoms: C_10  and  C_11
REMARK                            x       y       z     vdW  Elec       q    Type
REMARK                         _______ _______ _______ _____ _____    ______ ____
ROOT
ATOM      1  C   UNL     1       0.977   5.334  -5.921  0.00  0.00    +0.209 A 
ATOM      2  C   UNL     1       2.151   5.820  -6.481  0.00  0.00    +0.177 A 
ATOM      3  N   UNL     1       2.966   4.754  -6.541  0.00  0.00    -0.216 NA
ATOM      4  C   UNL     1       2.119   3.709  -6.706  0.00  0.00    +0.201 A 
ATOM      5  N   UNL     1       1.069   3.995  -5.902  0.00  0.00    -0.202 NA
ENDROOT
BRANCH   2   6
ATOM      6  C   UNL     1       2.491   7.245  -6.504  0.00  0.00    +0.305 C 
ATOM      7  O   UNL     1       3.565   7.568  -5.914  0.00  0.00    -0.265 OA
ATOM      8  N   UNL     1       2.192   7.941  -7.709  0.00  0.00    -0.082 NA
ENDBRANCH   2   6
BRANCH   1  10
ATOM      9  N   UNL     1      -1.338   5.748  -5.861  0.00  0.00    -0.076 NA
ATOM     10  N   UNL     1      -0.160   6.106  -5.576  0.00  0.00    -0.111 NA
BRANCH   9  12
ATOM     11  C   UNL     1      -2.225   7.718  -4.776  0.00  0.00    +0.136 C 
ATOM     12  N   UNL     1      -2.348   6.286  -5.037  0.00  0.00    -0.211 N 
ATOM     13  C   UNL     1      -2.707   5.466  -3.884  0.00  0.00    +0.136 C 
ENDBRANCH   9  12
ENDBRANCH   1  10
TORSDOF 3
ENDMDL
MODEL 3
REMARK VINA RESULT:      -4.8      3.515      5.387
REMARK  Name = 
REMARK  3 active torsions:
REMARK  status: ('A' for Active; 'I' for Inactive)
REMARK    1  A    between atoms: N_2  and  N_4
REMARK    2  A    between atoms: N_5  and  C_6
REMARK    3  A    between atoms: C_10  and  C_11
REMARK                            x       y       z     vdW  Elec       q    Type
REMARK                         _______ _______ _______ _____ _____    ______ ____
ROOT
ATOM      1  C   UNL     1      -0.339   5.600  -5.041  0.00  0.00    +0.209 A 
ATOM      2  C   UNL     1      -1.666   5.663  -4.636  0.00  0.00    +0.177 A 
ATOM      3  N   UNL     1      -2.355   5.890  -5.766  0.00  0.00    -0.216 NA
ATOM      4  C   UNL     1      -1.613   5.284  -6.724  0.00  0.00    +0.201 A 
ATOM      5  N   UNL     1      -0.333   5.554  -6.382  0.00  0.00    -0.202 NA
ENDROOT
BRANCH   2   6
ATOM      6  C   UNL     1      -2.064   5.904  -3.246  0.00  0.00    +0.305 C 
ATOM      7  O   UNL     1      -2.460   7.078  -2.980  0.00  0.00    -0.265 OA
ATOM      8  N   UNL     1      -2.746   4.838  -2.597  0.00  0.00    -0.082 NA
ENDBRANCH   2   6
BRANCH   1  10
ATOM      9  N   UNL     1       1.925   5.123  -4.611  0.00  0.00    -0.076 NA
ATOM     10  N   UNL     1       0.783   5.459  -4.187  0.00  0.00    -0.111 NA
BRANCH   9  12
ATOM     11  C   UNL     1       3.099   6.967  -3.582  0.00  0.00    +0.136 C 
ATOM     12  N   UNL     1       3.011   5.526  -3.809  0.00  0.00    -0.211 N 
ATOM     13  C   UNL     1       4.276   4.857  -4.097  0.00  0.00    +0.136 C 
ENDBRANCH   9  12
ENDBRANCH   1  10
TORSDOF 3
ENDMDL
MODEL 4
REMARK VINA RESULT:      -4.8      3.528      5.761
REMARK  Name = 
REMARK  3 active torsions:
REMARK  status: ('A' for Active; 'I' for Inactive)
REMARK    1  A    between atoms: N_2  and  N_4
REMARK    2  A    between atoms: N_5  and  C_6
REMARK    3  A    between atoms: C_10  and  C_11
REMARK                            x       y       z     vdW  Elec       q    Type
REMARK                         _______ _______ _______ _____ _____    ______ ____
ROOT
ATOM      1  C   UNL     1       0.251   5.488  -3.223  0.00  0.00    +0.209 A 
ATOM      2  C   UNL     1      -0.851   5.590  -2.386  0.00  0.00    +0.177 A 
ATOM      3  N   UNL     1      -0.407   5.181  -1.187  0.00  0.00    -0.216 NA
ATOM      4  C   UNL     1       0.902   5.532  -1.190  0.00  0.00    +0.201 A 
ATOM      5  N   UNL     1       1.322   5.260  -2.447  0.00  0.00    -0.202 NA
ENDROOT
BRANCH   2   6
ATOM      6  C   UNL     1      -2.227   5.662  -2.886  0.00  0.00    +0.305 C 
ATOM      7  O   UNL     1      -2.889   4.582  -2.841  0.00  0.00    -0.265 OA
ATOM      8  N   UNL     1      -2.939   6.858  -2.591  0.00  0.00    -0.082 NA
ENDBRANCH   2   6
BRANCH   1  10
ATOM      9  N   UNL     1       0.487   4.821  -5.468  0.00  0.00    -0.076 NA
ATOM     10  N   UNL     1       0.258   5.730  -4.619  0.00  0.00    -0.111 NA
BRANCH   9  12
ATOM     11  C   UNL     1       0.806   5.849  -7.632  0.00  0.00    +0.136 C 
ATOM     12  N   UNL     1      -0.044   5.048  -6.754  0.00  0.00    -0.211 N 
ATOM     13  C   UNL     1      -1.466   5.375  -6.787  0.00  0.00    +0.136 C 
ENDBRANCH   9  12
ENDBRANCH   1  10
TORSDOF 3
ENDMDL
MODEL 5
REMARK VINA RESULT:      -4.8      4.032      5.582
REMARK  Name = 
REMARK  3 active torsions:
REMARK  status: ('A' for Active; 'I' for Inactive)
REMARK    1  A    between atoms: N_2  and  N_4
REMARK    2  A    between atoms: N_5  and  C_6
REMARK    3  A    between atoms: C_10  and  C_11
REMARK                            x       y       z     vdW  Elec       q    Type
REMARK                         _______ _______ _______ _____ _____    ______ ____
ROOT
ATOM      1  C   UNL     1      -0.649   5.561  -4.840  0.00  0.00    +0.209 A 
ATOM      2  C   UNL     1      -2.032   5.610  -4.720  0.00  0.00    +0.177 A 
ATOM      3  N   UNL     1      -2.468   5.939  -5.947  0.00  0.00    -0.216 NA
ATOM      4  C   UNL     1      -1.538   5.403  -6.775  0.00  0.00    +0.201 A 
ATOM      5  N   UNL     1      -0.360   5.624  -6.149  0.00  0.00    -0.202 NA
ENDROOT
BRANCH   2   6
ATOM      6  C   UNL     1      -2.714   5.743  -3.430  0.00  0.00    +0.305 C 
ATOM      7  O   UNL     1      -2.760   4.696  -2.717  0.00  0.00    -0.265 OA
ATOM      8  N   UNL     1      -2.520   6.974  -2.743  0.00  0.00    -0.082 NA
ENDBRANCH   2   6
BRANCH   1  10
ATOM      9  N   UNL     1       1.007   6.245  -3.315  0.00  0.00    -0.076 NA
ATOM     10  N   UNL     1       0.267   5.334  -3.784  0.00  0.00    -0.111 NA
BRANCH   9  12
ATOM     11  C   UNL     1       2.823   5.573  -1.869  0.00  0.00    +0.136 C 
ATOM     12  N   UNL     1       1.446   6.046  -1.990  0.00  0.00    -0.211 N 
ATOM     13  C   UNL     1       0.479   5.398  -1.109  0.00  0.00    +0.136 C 
ENDBRANCH   9  12
ENDBRANCH   1  10
TORSDOF 3
ENDMDL
MODEL 6
REMARK VINA RESULT:      -4.7      4.209      5.702
REMARK  Name = 
REMARK  3 active torsions:
REMARK  status: ('A' for Active; 'I' for Inactive)
REMARK    1  A    between atoms: N_2  and  N_4
REMARK    2  A    between atoms: N_5  and  C_6
REMARK    3  A    between atoms: C_10  and  C_11
REMARK                            x       y       z     vdW  Elec       q    Type
REMARK                         _______ _______ _______ _____ _____    ______ ____
ROOT
ATOM      1  C   UNL     1       4.598   5.458 -11.742  0.00  0.00    +0.209 A 
ATOM      2  C   UNL     1       5.761   5.443 -12.501  0.00  0.00    +0.177 A 
ATOM      3  N   UNL     1       5.355   5.117 -13.738  0.00  0.00    -0.216 NA
ATOM      4  C   UNL     1       4.101   5.626 -13.811  0.00  0.00    +0.201 A 
ATOM      5  N   UNL     1       3.565   5.380 -12.594  0.00  0.00    -0.202 NA
ENDROOT
BRANCH   2   6
ATOM      6  C   UNL     1       7.097   5.334 -11.908  0.00  0.00    +0.305 C 
ATOM      7  O   UNL     1       7.887   4.518 -12.470  0.00  0.00    -0.265 OA
ATOM      8  N   UNL     1       7.669   6.545 -11.427  0.00  0.00    -0.082 NA
ENDBRANCH   2   6
BRANCH   1  10
ATOM      9  N   UNL     1       4.022   6.713  -9.836  0.00  0.00    -0.076 NA
ATOM     10  N   UNL     1       4.524   5.669 -10.343  0.00  0.00    -0.111 NA
BRANCH   9  12
ATOM     11  C   UNL     1       3.361   5.190  -8.079  0.00  0.00    +0.136 C 
ATOM     12  N   UNL     1       3.534   6.572  -8.521  0.00  0.00    -0.211 N 
ATOM     13  C   UNL     1       2.456   7.487  -8.160  0.00  0.00    +0.136 C 
ENDBRANCH   9  12
ENDBRANCH   1  10
TORSDOF 3
ENDMDL
MODEL 7
REMARK VINA RESULT:      -4.7      2.262      4.184
REMARK  Name = 
REMARK  3 active torsions:
REMARK  status: ('A' for Active; 'I' for Inactive)
REMARK    1  A    between atoms: N_2  and  N_4
REMARK    2  A    between atoms: N_5  and  C_6
REMARK    3  A    between atoms: C_10  and  C_11
REMARK                            x       y       z     vdW  Elec       q    Type
REMARK                         _______ _______ _______ _____ _____    ______ ____
ROOT
ATOM      1  C   UNL     1       0.410   5.677  -7.646  0.00  0.00    +0.209 A 
ATOM      2  C   UNL     1       1.078   6.516  -6.764  0.00  0.00    +0.177 A 
ATOM      3  N   UNL     1       0.179   6.784  -5.803  0.00  0.00    -0.216 NA
ATOM      4  C   UNL     1      -0.590   5.669  -5.759  0.00  0.00    +0.201 A 
ATOM      5  N   UNL     1      -0.737   5.309  -7.055  0.00  0.00    -0.202 NA
ENDROOT
BRANCH   2   6
ATOM      6  C   UNL     1       2.285   7.259  -7.133  0.00  0.00    +0.305 C 
ATOM      7  O   UNL     1       2.104   8.296  -7.839  0.00  0.00    -0.265 OA
ATOM      8  N   UNL     1       3.301   7.336  -6.139  0.00  0.00    -0.082 NA
ENDBRANCH   2   6
BRANCH   1  10
ATOM      9  N   UNL     1       0.446   5.528  -9.994  0.00  0.00    -0.076 NA
ATOM     10  N   UNL     1       0.921   5.188  -8.873  0.00  0.00    -0.111 NA
BRANCH   9  12
ATOM     11  C   UNL     1       2.607   6.105 -10.909  0.00  0.00    +0.136 C 
ATOM     12  N   UNL     1       1.331   5.416 -11.085  0.00  0.00    -0.211 N 
ATOM     13  C   UNL     1       0.714   5.563 -12.400  0.00  0.00    +0.136 C 
ENDBRANCH   9  12
ENDBRANCH   1  10
TORSDOF 3
ENDMDL
MODEL 8
REMARK VINA RESULT:      -4.7      3.162      5.927
REMARK  Name = 
REMARK  3 active torsions:
REMARK  status: ('A' for Active; 'I' for Inactive)
REMARK    1  A    between atoms: N_2  and  N_4
REMARK    2  A    between atoms: N_5  and  C_6
REMARK    3  A    between atoms: C_10  and  C_11
REMARK                            x       y       z     vdW  Elec       q    Type
REMARK                         _______ _______ _______ _____ _____    ______ ____
ROOT
ATOM      1  C   UNL     1      -0.445   6.590  -4.204  0.00  0.00    +0.209 A 
ATOM      2  C   UNL     1      -1.444   6.640  -3.241  0.00  0.00    +0.177 A 
ATOM      3  N   UNL     1      -1.994   7.856  -3.386  0.00  0.00    -0.216 NA
ATOM      4  C   UNL     1      -1.841   8.125  -4.705  0.00  0.00    +0.201 A 
ATOM      5  N   UNL     1      -0.609   7.653  -5.006  0.00  0.00    -0.202 NA
ENDROOT
BRANCH   2   6
ATOM      6  C   UNL     1      -1.480   5.742  -2.084  0.00  0.00    +0.305 C 
ATOM      7  O   UNL     1      -0.989   6.201  -1.010  0.00  0.00    -0.265 OA
ATOM      8  N   UNL     1      -2.643   4.932  -1.957  0.00  0.00    -0.082 NA
ENDBRANCH   2   6
BRANCH   1  10
ATOM      9  N   UNL     1       0.655   4.967  -5.506  0.00  0.00    -0.076 NA
ATOM     10  N   UNL     1       0.477   5.530  -4.388  0.00  0.00    -0.111 NA
BRANCH   9  12
ATOM     11  C   UNL     1       3.000   4.953  -4.922  0.00  0.00    +0.136 C 
ATOM     12  N   UNL     1       1.908   4.344  -5.677  0.00  0.00    -0.211 N 
ATOM     13  C   UNL     1       2.228   3.965  -7.049  0.00  0.00    +0.136 C 
ENDBRANCH   9  12
ENDBRANCH   1  10
TORSDOF 3
ENDMDL
MODEL 9
REMARK VINA RESULT:      -4.7      1.954      3.051
REMARK  Name = 
REMARK  3 active torsions:
REMARK  status: ('A' for Active; 'I' for Inactive)
REMARK    1  A    between atoms: N_2  and  N_4
REMARK    2  A    between atoms: N_5  and  C_6
REMARK    3  A    between atoms: C_10  and  C_11
REMARK                            x       y       z     vdW  Elec       q    Type
REMARK                         _______ _______ _______ _____ _____    ______ ____
ROOT
ATOM      1  C   UNL     1       1.872   6.742  -4.898  0.00  0.00    +0.209 A 
ATOM      2  C   UNL     1       2.573   6.999  -6.068  0.00  0.00    +0.177 A 
ATOM      3  N   UNL     1       3.783   7.409  -5.657  0.00  0.00    -0.216 NA
ATOM      4  C   UNL     1       3.967   6.749  -4.487  0.00  0.00    +0.201 A 
ATOM      5  N   UNL     1       2.754   6.780  -3.888  0.00  0.00    -0.202 NA
ENDROOT
BRANCH   2   6
ATOM      6  C   UNL     1       1.914   7.215  -7.359  0.00  0.00    +0.305 C 
ATOM      7  O   UNL     1       2.120   8.341  -7.904  0.00  0.00    -0.265 OA
ATOM      8  N   UNL     1       1.852   6.089  -8.227  0.00  0.00    -0.082 NA
ENDBRANCH   2   6
BRANCH   1  10
ATOM      9  N   UNL     1      -0.433   7.206  -4.796  0.00  0.00    -0.076 NA
ATOM     10  N   UNL     1       0.509   6.363  -4.813  0.00  0.00    -0.111 NA
BRANCH   9  12
ATOM     11  C   UNL     1      -2.650   6.472  -4.174  0.00  0.00    +0.136 C 
ATOM     12  N   UNL     1      -1.682   6.724  -5.238  0.00  0.00    -0.211 N 
ATOM     13  C   UNL     1      -1.618   5.707  -6.283  0.00  0.00    +0.136 C 
ENDBRANCH   9  12
ENDBRANCH   1  10
TORSDOF 3
ENDMDL
