MODEL 1
REMARK VINA RESULT:      -6.3      0.000      0.000
REMARK  Name = 
REMARK  5 active torsions:
REMARK  status: ('A' for Active; 'I' for Inactive)
REMARK    1  A    between atoms: C_2  and  C_4
REMARK    2  A    between atoms: C_4  and  S_5
REMARK    3  A    between atoms: S_5  and  C_6
REMARK    4  A    between atoms: N_11  and  C_12
REMARK    5  A    between atoms: C_15  and  C_16
REMARK                            x       y       z     vdW  Elec       q    Type
REMARK                         _______ _______ _______ _____ _____    ______ ____
ROOT
ATOM      1  C   UNL     1       2.643   6.569  -2.411  0.00  0.00    +0.068 A 
ATOM      2  C   UNL     1       3.043   6.621  -3.740  0.00  0.00    +0.016 A 
ATOM      3  C   UNL     1       2.023   6.754  -4.674  0.00  0.00    -0.003 A 
ATOM      4  C   UNL     1       2.405   7.013  -5.965  0.00  0.00    -0.000 A 
ATOM      5  C   UNL     1       3.711   6.729  -6.347  0.00  0.00    -0.000 A 
ATOM      6  C   UNL     1       4.594   6.098  -5.480  0.00  0.00    +0.000 A 
ATOM      7  C   UNL     1       0.710   6.528  -4.307  0.00  0.00    -0.022 A 
ATOM      8  C   UNL     1       0.369   6.223  -3.011  0.00  0.00    -0.003 A 
ATOM      9  C   UNL     1       4.321   6.225  -4.123  0.00  0.00    +0.001 A 
ATOM     10  C   UNL     1       1.335   6.381  -2.049  0.00  0.00    +0.017 A 
ENDROOT
BRANCH   1  12
ATOM     11  C   UNL     1       4.214   7.738  -0.899  0.00  0.00    +0.198 A 
ATOM     12  N   UNL     1       3.700   6.615  -1.445  0.00  0.00    -0.264 N 
ATOM     13  C   UNL     1       4.030   5.571  -0.672  0.00  0.00    +0.205 A 
ATOM     14 BR   UNL     1       3.780   3.756  -1.224  0.00  0.00    -0.006 Br
ATOM     15  N   UNL     1       4.720   6.036   0.383  0.00  0.00    -0.121 NA
ATOM     16  N   UNL     1       5.025   7.298   0.087  0.00  0.00    -0.121 NA
BRANCH  11  17
ATOM     17  S   UNL     1       3.452   9.356  -1.069  0.00  0.00    -0.063 S 
BRANCH  17  18
ATOM     18  C   UNL     1       2.627   9.825   0.477  0.00  0.00    +0.179 C 
BRANCH  18  20
ATOM     19  O   UNL     1       0.334   9.339   0.746  0.00  0.00    -0.245 OA
ATOM     20  C   UNL     1       1.503   8.853   0.661  0.00  0.00    +0.376 C 
ATOM     21  O   UNL     1       1.738   7.752   1.490  0.00  0.00    -0.245 OA
ENDBRANCH  18  20
ENDBRANCH  17  18
ENDBRANCH  11  17
ENDBRANCH   1  12
BRANCH   7  22
ATOM     22  C   UNL     1      -0.316   6.766  -5.370  0.00  0.00    +0.022 C 
ATOM     23  C   UNL     1      -0.850   5.411  -5.908  0.00  0.00    +0.005 C 
ATOM     24  C   UNL     1      -1.695   6.307  -4.974  0.00  0.00    +0.005 C 
ENDBRANCH   7  22
TORSDOF 5
ENDMDL
MODEL 2
REMARK VINA RESULT:      -6.1      3.001      4.582
REMARK  Name = 
REMARK  5 active torsions:
REMARK  status: ('A' for Active; 'I' for Inactive)
REMARK    1  A    between atoms: C_2  and  C_4
REMARK    2  A    between atoms: C_4  and  S_5
REMARK    3  A    between atoms: S_5  and  C_6
REMARK    4  A    between atoms: N_11  and  C_12
REMARK    5  A    between atoms: C_15  and  C_16
REMARK                            x       y       z     vdW  Elec       q    Type
REMARK                         _______ _______ _______ _____ _____    ______ ____
ROOT
ATOM      1  C   UNL     1       1.472   6.166  -4.692  0.00  0.00    +0.068 A 
ATOM      2  C   UNL     1       0.149   6.501  -4.953  0.00  0.00    +0.016 A 
ATOM      3  C   UNL     1      -0.368   6.033  -6.155  0.00  0.00    -0.003 A 
ATOM      4  C   UNL     1      -1.719   6.174  -6.336  0.00  0.00    -0.000 A 
ATOM      5  C   UNL     1      -2.407   7.099  -5.557  0.00  0.00    -0.000 A 
ATOM      6  C   UNL     1      -1.736   7.943  -4.682  0.00  0.00    +0.000 A 
ATOM      7  C   UNL     1       0.478   5.550  -7.135  0.00  0.00    -0.022 A 
ATOM      8  C   UNL     1       1.835   5.466  -6.935  0.00  0.00    -0.003 A 
ATOM      9  C   UNL     1      -0.492   7.509  -4.240  0.00  0.00    +0.001 A 
ATOM     10  C   UNL     1       2.299   5.653  -5.656  0.00  0.00    +0.017 A 
ENDROOT
BRANCH   1  12
ATOM     11  C   UNL     1       1.322   6.183  -2.222  0.00  0.00    +0.198 A 
ATOM     12  N   UNL     1       1.945   6.491  -3.380  0.00  0.00    -0.264 N 
ATOM     13  C   UNL     1       3.228   6.776  -3.116  0.00  0.00    +0.205 A 
ATOM     14 BR   UNL     1       4.400   7.564  -4.407  0.00  0.00    -0.006 Br
ATOM     15  N   UNL     1       3.428   6.609  -1.797  0.00  0.00    -0.121 NA
ATOM     16  N   UNL     1       2.215   6.498  -1.260  0.00  0.00    -0.121 NA
BRANCH  11  17
ATOM     17  S   UNL     1      -0.062   5.041  -2.121  0.00  0.00    -0.063 S 
BRANCH  17  18
ATOM     18  C   UNL     1      -1.406   5.773  -1.147  0.00  0.00    +0.179 C 
BRANCH  18  20
ATOM     19  O   UNL     1      -2.582   4.737  -2.911  0.00  0.00    -0.245 OA
ATOM     20  C   UNL     1      -2.664   5.528  -1.922  0.00  0.00    +0.376 C 
ATOM     21  O   UNL     1      -3.519   6.617  -2.116  0.00  0.00    -0.245 OA
ENDBRANCH  18  20
ENDBRANCH  17  18
ENDBRANCH  11  17
ENDBRANCH   1  12
BRANCH   7  22
ATOM     22  C   UNL     1      -0.185   5.005  -8.361  0.00  0.00    +0.022 C 
ATOM     23  C   UNL     1      -0.022   6.000  -9.541  0.00  0.00    +0.005 C 
ATOM     24  C   UNL     1       0.787   4.685  -9.466  0.00  0.00    +0.005 C 
ENDBRANCH   7  22
TORSDOF 5
ENDMDL
MODEL 3
REMARK VINA RESULT:      -6.1      3.611      5.125
REMARK  Name = 
REMARK  5 active torsions:
REMARK  status: ('A' for Active; 'I' for Inactive)
REMARK    1  A    between atoms: C_2  and  C_4
REMARK    2  A    between atoms: C_4  and  S_5
REMARK    3  A    between atoms: S_5  and  C_6
REMARK    4  A    between atoms: N_11  and  C_12
REMARK    5  A    between atoms: C_15  and  C_16
REMARK                            x       y       z     vdW  Elec       q    Type
REMARK                         _______ _______ _______ _____ _____    ______ ____
ROOT
ATOM      1  C   UNL     1       1.544   5.799  -4.096  0.00  0.00    +0.068 A 
ATOM      2  C   UNL     1       2.702   6.561  -3.995  0.00  0.00    +0.016 A 
ATOM      3  C   UNL     1       3.596   6.443  -5.052  0.00  0.00    -0.003 A 
ATOM      4  C   UNL     1       4.638   7.334  -5.072  0.00  0.00    -0.000 A 
ATOM      5  C   UNL     1       4.980   7.994  -3.897  0.00  0.00    -0.000 A 
ATOM      6  C   UNL     1       4.355   7.690  -2.694  0.00  0.00    +0.000 A 
ATOM      7  C   UNL     1       3.472   5.408  -5.958  0.00  0.00    -0.022 A 
ATOM      8  C   UNL     1       2.439   4.504  -5.878  0.00  0.00    -0.003 A 
ATOM      9  C   UNL     1       3.091   7.121  -2.783  0.00  0.00    +0.001 A 
ATOM     10  C   UNL     1       1.408   4.797  -5.020  0.00  0.00    +0.017 A 
ENDROOT
BRANCH   1  12
ATOM     11  C   UNL     1      -0.515   6.879  -3.252  0.00  0.00    +0.198 A 
ATOM     12  N   UNL     1       0.545   6.057  -3.103  0.00  0.00    -0.264 N 
ATOM     13  C   UNL     1       0.309   5.232  -2.073  0.00  0.00    +0.205 A 
ATOM     14 BR   UNL     1       1.662   4.115  -1.310  0.00  0.00    -0.006 Br
ATOM     15  N   UNL     1      -0.917   5.505  -1.595  0.00  0.00    -0.121 NA
ATOM     16  N   UNL     1      -1.277   6.656  -2.160  0.00  0.00    -0.121 NA
BRANCH  11  17
ATOM     17  S   UNL     1      -1.020   7.560  -4.836  0.00  0.00    -0.063 S 
BRANCH  17  18
ATOM     18  C   UNL     1      -2.745   7.118  -5.186  0.00  0.00    +0.179 C 
BRANCH  18  20
ATOM     19  O   UNL     1      -2.995   4.858  -4.558  0.00  0.00    -0.245 OA
ATOM     20  C   UNL     1      -2.744   5.657  -5.511  0.00  0.00    +0.376 C 
ATOM     21  O   UNL     1      -1.777   5.202  -6.413  0.00  0.00    -0.245 OA
ENDBRANCH  18  20
ENDBRANCH  17  18
ENDBRANCH  11  17
ENDBRANCH   1  12
BRANCH   7  22
ATOM     22  C   UNL     1       4.443   5.414  -7.096  0.00  0.00    +0.022 C 
ATOM     23  C   UNL     1       3.876   4.592  -8.285  0.00  0.00    +0.005 C 
ATOM     24  C   UNL     1       3.925   6.137  -8.312  0.00  0.00    +0.005 C 
ENDBRANCH   7  22
TORSDOF 5
ENDMDL
MODEL 4
REMARK VINA RESULT:      -6.1      2.764      4.327
REMARK  Name = 
REMARK  5 active torsions:
REMARK  status: ('A' for Active; 'I' for Inactive)
REMARK    1  A    between atoms: C_2  and  C_4
REMARK    2  A    between atoms: C_4  and  S_5
REMARK    3  A    between atoms: S_5  and  C_6
REMARK    4  A    between atoms: N_11  and  C_12
REMARK    5  A    between atoms: C_15  and  C_16
REMARK                            x       y       z     vdW  Elec       q    Type
REMARK                         _______ _______ _______ _____ _____    ______ ____
ROOT
ATOM      1  C   UNL     1       1.348   6.071  -3.424  0.00  0.00    +0.068 A 
ATOM      2  C   UNL     1       0.175   6.652  -3.891  0.00  0.00    +0.016 A 
ATOM      3  C   UNL     1      -0.901   6.629  -3.013  0.00  0.00    -0.003 A 
ATOM      4  C   UNL     1      -1.997   7.373  -3.371  0.00  0.00    -0.000 A 
ATOM      5  C   UNL     1      -2.148   7.747  -4.701  0.00  0.00    -0.000 A 
ATOM      6  C   UNL     1      -1.269   7.298  -5.679  0.00  0.00    +0.000 A 
ATOM      7  C   UNL     1      -0.876   5.811  -1.901  0.00  0.00    -0.022 A 
ATOM      8  C   UNL     1       0.223   5.043  -1.599  0.00  0.00    -0.003 A 
ATOM      9  C   UNL     1      -0.006   6.917  -5.245  0.00  0.00    +0.001 A 
ATOM     10  C   UNL     1       1.378   5.290  -2.299  0.00  0.00    +0.017 A 
ENDROOT
BRANCH   1  12
ATOM     11  C   UNL     1       3.511   7.120  -4.012  0.00  0.00    +0.198 A 
ATOM     12  N   UNL     1       2.502   6.255  -4.252  0.00  0.00    -0.264 N 
ATOM     13  C   UNL     1       2.924   5.336  -5.131  0.00  0.00    +0.205 A 
ATOM     14 BR   UNL     1       1.738   4.105  -5.991  0.00  0.00    -0.006 Br
ATOM     15  N   UNL     1       4.211   5.594  -5.418  0.00  0.00    -0.121 NA
ATOM     16  N   UNL     1       4.453   6.808  -4.926  0.00  0.00    -0.121 NA
BRANCH  11  17
ATOM     17  S   UNL     1       3.723   7.977  -2.447  0.00  0.00    -0.063 S 
BRANCH  17  18
ATOM     18  C   UNL     1       4.997   7.154  -1.451  0.00  0.00    +0.179 C 
BRANCH  18  20
ATOM     19  O   UNL     1       4.208   6.638   0.711  0.00  0.00    -0.245 OA
ATOM     20  C   UNL     1       4.268   6.258  -0.498  0.00  0.00    +0.376 C 
ATOM     21  O   UNL     1       4.422   4.879  -0.669  0.00  0.00    -0.245 OA
ENDBRANCH  18  20
ENDBRANCH  17  18
ENDBRANCH  11  17
ENDBRANCH   1  12
BRANCH   7  22
ATOM     22  C   UNL     1      -2.055   5.915  -0.985  0.00  0.00    +0.022 C 
ATOM     23  C   UNL     1      -1.585   6.295   0.446  0.00  0.00    +0.005 C 
ATOM     24  C   UNL     1      -2.288   7.315  -0.479  0.00  0.00    +0.005 C 
ENDBRANCH   7  22
TORSDOF 5
ENDMDL
MODEL 5
REMARK VINA RESULT:      -5.8      3.511      5.556
REMARK  Name = 
REMARK  5 active torsions:
REMARK  status: ('A' for Active; 'I' for Inactive)
REMARK    1  A    between atoms: C_2  and  C_4
REMARK    2  A    between atoms: C_4  and  S_5
REMARK    3  A    between atoms: S_5  and  C_6
REMARK    4  A    between atoms: N_11  and  C_12
REMARK    5  A    between atoms: C_15  and  C_16
REMARK                            x       y       z     vdW  Elec       q    Type
REMARK                         _______ _______ _______ _____ _____    ______ ____
ROOT
ATOM      1  C   UNL     1       1.827   5.802  -1.982  0.00  0.00    +0.068 A 
ATOM      2  C   UNL     1       2.331   6.878  -1.262  0.00  0.00    +0.016 A 
ATOM      3  C   UNL     1       1.576   7.280  -0.167  0.00  0.00    -0.003 A 
ATOM      4  C   UNL     1       2.155   8.197   0.671  0.00  0.00    -0.000 A 
ATOM      5  C   UNL     1       3.218   8.959   0.200  0.00  0.00    -0.000 A 
ATOM      6  C   UNL     1       3.631   8.877  -1.124  0.00  0.00    +0.000 A 
ATOM      7  C   UNL     1       0.276   6.836  -0.017  0.00  0.00    -0.022 A 
ATOM      8  C   UNL     1      -0.287   5.951  -0.905  0.00  0.00    -0.003 A 
ATOM      9  C   UNL     1       3.318   7.701  -1.795  0.00  0.00    +0.001 A 
ATOM     10  C   UNL     1       0.550   5.340  -1.806  0.00  0.00    +0.017 A 
ENDROOT
BRANCH   1  12
ATOM     11  C   UNL     1       2.567   5.489  -4.322  0.00  0.00    +0.198 A 
ATOM     12  N   UNL     1       2.692   5.276  -2.995  0.00  0.00    -0.264 N 
ATOM     13  C   UNL     1       3.939   4.853  -2.743  0.00  0.00    +0.205 A 
ATOM     14 BR   UNL     1       4.467   4.137  -1.048  0.00  0.00    -0.006 Br
ATOM     15  N   UNL     1       4.615   4.836  -3.904  0.00  0.00    -0.121 NA
ATOM     16  N   UNL     1       3.697   4.981  -4.858  0.00  0.00    -0.121 NA
BRANCH  11  17
ATOM     17  S   UNL     1       1.463   6.721  -5.023  0.00  0.00    -0.063 S 
BRANCH  17  18
ATOM     18  C   UNL     1       1.337   6.499  -6.819  0.00  0.00    +0.179 C 
BRANCH  18  20
ATOM     19  O   UNL     1       2.133   8.431  -7.914  0.00  0.00    -0.245 OA
ATOM     20  C   UNL     1       2.447   7.306  -7.418  0.00  0.00    +0.376 C 
ATOM     21  O   UNL     1       3.434   6.612  -8.125  0.00  0.00    -0.245 OA
ENDBRANCH  18  20
ENDBRANCH  17  18
ENDBRANCH  11  17
ENDBRANCH   1  12
BRANCH   7  22
ATOM     22  C   UNL     1      -0.424   7.271   1.232  0.00  0.00    +0.022 C 
ATOM     23  C   UNL     1      -1.528   8.308   0.890  0.00  0.00    +0.005 C 
ATOM     24  C   UNL     1      -1.870   6.851   1.276  0.00  0.00    +0.005 C 
ENDBRANCH   7  22
TORSDOF 5
ENDMDL
MODEL 6
REMARK VINA RESULT:      -5.8      3.555      5.515
REMARK  Name = 
REMARK  5 active torsions:
REMARK  status: ('A' for Active; 'I' for Inactive)
REMARK    1  A    between atoms: C_2  and  C_4
REMARK    2  A    between atoms: C_4  and  S_5
REMARK    3  A    between atoms: S_5  and  C_6
REMARK    4  A    between atoms: N_11  and  C_12
REMARK    5  A    between atoms: C_15  and  C_16
REMARK                            x       y       z     vdW  Elec       q    Type
REMARK                         _______ _______ _______ _____ _____    ______ ____
ROOT
ATOM      1  C   UNL     1       1.169   5.668  -3.981  0.00  0.00    +0.068 A 
ATOM      2  C   UNL     1       2.410   6.116  -4.416  0.00  0.00    +0.016 A 
ATOM      3  C   UNL     1       3.401   6.186  -3.445  0.00  0.00    -0.003 A 
ATOM      4  C   UNL     1       4.676   6.425  -3.889  0.00  0.00    -0.000 A 
ATOM      5  C   UNL     1       4.853   6.976  -5.153  0.00  0.00    -0.000 A 
ATOM      6  C   UNL     1       3.768   7.377  -5.922  0.00  0.00    +0.000 A 
ATOM      7  C   UNL     1       3.070   6.116  -2.105  0.00  0.00    -0.022 A 
ATOM      8  C   UNL     1       1.773   5.921  -1.696  0.00  0.00    -0.003 A 
ATOM      9  C   UNL     1       2.552   6.768  -5.637  0.00  0.00    +0.001 A 
ATOM     10  C   UNL     1       0.855   5.564  -2.652  0.00  0.00    +0.017 A 
ENDROOT
BRANCH   1  12
ATOM     11  C   UNL     1      -0.982   6.056  -5.142  0.00  0.00    +0.198 A 
ATOM     12  N   UNL     1       0.204   5.423  -5.011  0.00  0.00    -0.264 N 
ATOM     13  C   UNL     1       0.514   4.845  -6.180  0.00  0.00    +0.205 A 
ATOM     14 BR   UNL     1       1.945   3.589  -6.366  0.00  0.00    -0.006 Br
ATOM     15  N   UNL     1      -0.455   5.144  -7.062  0.00  0.00    -0.121 NA
ATOM     16  N   UNL     1      -1.451   5.657  -6.342  0.00  0.00    -0.121 NA
BRANCH  11  17
ATOM     17  S   UNL     1      -1.419   7.530  -4.213  0.00  0.00    -0.063 S 
BRANCH  17  18
ATOM     18  C   UNL     1      -2.553   7.105  -2.861  0.00  0.00    +0.179 C 
BRANCH  18  20
ATOM     19  O   UNL     1      -3.733   5.153  -3.464  0.00  0.00    -0.245 OA
ATOM     20  C   UNL     1      -2.699   5.615  -2.893  0.00  0.00    +0.376 C 
ATOM     21  O   UNL     1      -2.296   4.908  -1.756  0.00  0.00    -0.245 OA
ENDBRANCH  18  20
ENDBRANCH  17  18
ENDBRANCH  11  17
ENDBRANCH   1  12
BRANCH   7  22
ATOM     22  C   UNL     1       4.218   6.130  -1.146  0.00  0.00    +0.022 C 
ATOM     23  C   UNL     1       4.600   7.593  -0.794  0.00  0.00    +0.005 C 
ATOM     24  C   UNL     1       3.852   6.683   0.207  0.00  0.00    +0.005 C 
ENDBRANCH   7  22
TORSDOF 5
ENDMDL
MODEL 7
REMARK VINA RESULT:      -5.4      3.716      6.775
REMARK  Name = 
REMARK  5 active torsions:
REMARK  status: ('A' for Active; 'I' for Inactive)
REMARK    1  A    between atoms: C_2  and  C_4
REMARK    2  A    between atoms: C_4  and  S_5
REMARK    3  A    between atoms: S_5  and  C_6
REMARK    4  A    between atoms: N_11  and  C_12
REMARK    5  A    between atoms: C_15  and  C_16
REMARK                            x       y       z     vdW  Elec       q    Type
REMARK                         _______ _______ _______ _____ _____    ______ ____
ROOT
ATOM      1  C   UNL     1       3.480   9.278   0.369  0.00  0.00    +0.068 A 
ATOM      2  C   UNL     1       4.516   9.246   1.295  0.00  0.00    +0.016 A 
ATOM      3  C   UNL     1       5.011  10.482   1.691  0.00  0.00    -0.003 A 
ATOM      4  C   UNL     1       5.884  10.481   2.749  0.00  0.00    -0.000 A 
ATOM      5  C   UNL     1       6.527   9.296   3.085  0.00  0.00    -0.000 A 
ATOM      6  C   UNL     1       6.379   8.152   2.312  0.00  0.00    +0.000 A 
ATOM      7  C   UNL     1       4.701  11.620   0.971  0.00  0.00    -0.022 A 
ATOM      8  C   UNL     1       3.858  11.575  -0.114  0.00  0.00    -0.003 A 
ATOM      9  C   UNL     1       5.227   8.076   1.539  0.00  0.00    +0.001 A 
ATOM     10  C   UNL     1       3.150  10.416  -0.317  0.00  0.00    +0.017 A 
ENDROOT
BRANCH   1  12
ATOM     11  C   UNL     1       1.832   7.485   0.807  0.00  0.00    +0.198 A 
ATOM     12  N   UNL     1       2.851   8.019   0.101  0.00  0.00    -0.264 N 
ATOM     13  C   UNL     1       2.913   7.411  -1.092  0.00  0.00    +0.205 A 
ATOM     14 BR   UNL     1       4.390   7.630  -2.290  0.00  0.00    -0.006 Br
ATOM     15  N   UNL     1       1.909   6.521  -1.157  0.00  0.00    -0.121 NA
ATOM     16  N   UNL     1       1.439   6.415   0.084  0.00  0.00    -0.121 NA
BRANCH  11  17
ATOM     17  S   UNL     1       0.888   8.407   2.027  0.00  0.00    -0.063 S 
BRANCH  17  18
ATOM     18  C   UNL     1      -0.837   7.844   2.039  0.00  0.00    +0.179 C 
BRANCH  18  20
ATOM     19  O   UNL     1      -1.535   8.607  -0.081  0.00  0.00    -0.245 OA
ATOM     20  C   UNL     1      -1.594   8.801   1.171  0.00  0.00    +0.376 C 
ATOM     21  O   UNL     1      -1.599  10.146   1.553  0.00  0.00    -0.245 OA
ENDBRANCH  18  20
ENDBRANCH  17  18
ENDBRANCH  11  17
ENDBRANCH   1  12
BRANCH   7  22
ATOM     22  C   UNL     1       5.227  12.907   1.522  0.00  0.00    +0.022 C 
ATOM     23  C   UNL     1       6.430  13.399   0.672  0.00  0.00    +0.005 C 
ATOM     24  C   UNL     1       5.041  14.072   0.585  0.00  0.00    +0.005 C 
ENDBRANCH   7  22
TORSDOF 5
ENDMDL
MODEL 8
REMARK VINA RESULT:      -5.3      3.502      4.805
REMARK  Name = 
REMARK  5 active torsions:
REMARK  status: ('A' for Active; 'I' for Inactive)
REMARK    1  A    between atoms: C_2  and  C_4
REMARK    2  A    between atoms: C_4  and  S_5
REMARK    3  A    between atoms: S_5  and  C_6
REMARK    4  A    between atoms: N_11  and  C_12
REMARK    5  A    between atoms: C_15  and  C_16
REMARK                            x       y       z     vdW  Elec       q    Type
REMARK                         _______ _______ _______ _____ _____    ______ ____
ROOT
ATOM      1  C   UNL     1       1.540   6.411  -4.881  0.00  0.00    +0.068 A 
ATOM      2  C   UNL     1       0.436   6.027  -5.632  0.00  0.00    +0.016 A 
ATOM      3  C   UNL     1      -0.804   6.309  -5.072  0.00  0.00    -0.003 A 
ATOM      4  C   UNL     1      -1.896   6.128  -5.881  0.00  0.00    -0.000 A 
ATOM      5  C   UNL     1      -1.770   5.321  -7.006  0.00  0.00    -0.000 A 
ATOM      6  C   UNL     1      -0.598   4.621  -7.262  0.00  0.00    +0.000 A 
ATOM      7  C   UNL     1      -0.903   6.651  -3.737  0.00  0.00    -0.022 A 
ATOM      8  C   UNL     1       0.212   6.778  -2.943  0.00  0.00    -0.003 A 
ATOM      9  C   UNL     1       0.560   5.128  -6.687  0.00  0.00    +0.001 A 
ATOM     10  C   UNL     1       1.435   6.786  -3.568  0.00  0.00    +0.017 A 
ENDROOT
BRANCH   1  12
ATOM     11  C   UNL     1       3.845   5.539  -5.103  0.00  0.00    +0.198 A 
ATOM     12  N   UNL     1       2.807   6.286  -5.537  0.00  0.00    -0.264 N 
ATOM     13  C   UNL     1       2.987   6.559  -6.837  0.00  0.00    +0.205 A 
ATOM     14 BR   UNL     1       1.929   7.844  -7.781  0.00  0.00    -0.006 Br
ATOM     15  N   UNL     1       4.117   5.952  -7.236  0.00  0.00    -0.121 NA
ATOM     16  N   UNL     1       4.731   5.562  -6.121  0.00  0.00    -0.121 NA
BRANCH  11  17
ATOM     17  S   UNL     1       3.704   4.330  -3.781  0.00  0.00    -0.063 S 
BRANCH  17  18
ATOM     18  C   UNL     1       4.268   5.049  -2.214  0.00  0.00    +0.179 C 
BRANCH  18  20
ATOM     19  O   UNL     1       2.782   5.593  -0.464  0.00  0.00    -0.245 OA
ATOM     20  C   UNL     1       3.248   4.661  -1.187  0.00  0.00    +0.376 C 
ATOM     21  O   UNL     1       3.440   3.447  -0.521  0.00  0.00    -0.245 OA
ENDBRANCH  18  20
ENDBRANCH  17  18
ENDBRANCH  11  17
ENDBRANCH   1  12
BRANCH   7  22
ATOM     22  C   UNL     1      -2.274   7.003  -3.252  0.00  0.00    +0.022 C 
ATOM     23  C   UNL     1      -2.881   5.813  -2.460  0.00  0.00    +0.005 C 
ATOM     24  C   UNL     1      -2.367   7.087  -1.751  0.00  0.00    +0.005 C 
ENDBRANCH   7  22
TORSDOF 5
ENDMDL
MODEL 9
REMARK VINA RESULT:      -5.3      1.849      3.371
REMARK  Name = 
REMARK  5 active torsions:
REMARK  status: ('A' for Active; 'I' for Inactive)
REMARK    1  A    between atoms: C_2  and  C_4
REMARK    2  A    between atoms: C_4  and  S_5
REMARK    3  A    between atoms: S_5  and  C_6
REMARK    4  A    between atoms: N_11  and  C_12
REMARK    5  A    between atoms: C_15  and  C_16
REMARK                            x       y       z     vdW  Elec       q    Type
REMARK                         _______ _______ _______ _____ _____    ______ ____
ROOT
ATOM      1  C   UNL     1       2.202   6.375  -2.304  0.00  0.00    +0.068 A 
ATOM      2  C   UNL     1       1.030   6.326  -1.560  0.00  0.00    +0.016 A 
ATOM      3  C   UNL     1      -0.138   6.126  -2.285  0.00  0.00    -0.003 A 
ATOM      4  C   UNL     1      -1.273   5.870  -1.558  0.00  0.00    -0.000 A 
ATOM      5  C   UNL     1      -1.300   6.220  -0.213  0.00  0.00    -0.000 A 
ATOM      6  C   UNL     1      -0.246   6.909   0.373  0.00  0.00    +0.000 A 
ATOM      7  C   UNL     1      -0.143   6.285  -3.657  0.00  0.00    -0.022 A 
ATOM      8  C   UNL     1       1.007   6.588  -4.348  0.00  0.00    -0.003 A 
ATOM      9  C   UNL     1       0.991   6.786  -0.248  0.00  0.00    +0.001 A 
ATOM     10  C   UNL     1       2.196   6.495  -3.668  0.00  0.00    +0.017 A 
ENDROOT
BRANCH   1  12
ATOM     11  C   UNL     1       4.119   7.506  -1.223  0.00  0.00    +0.198 A 
ATOM     12  N   UNL     1       3.416   6.398  -1.545  0.00  0.00    -0.264 N 
ATOM     13  C   UNL     1       3.788   5.401  -0.730  0.00  0.00    +0.205 A 
ATOM     14 BR   UNL     1       3.282   3.579  -1.026  0.00  0.00    -0.006 Br
ATOM     15  N   UNL     1       4.696   5.886   0.134  0.00  0.00    -0.121 NA
ATOM     16  N   UNL     1       5.052   7.075  -0.348  0.00  0.00    -0.121 NA
BRANCH  11  17
ATOM     17  S   UNL     1       3.484   9.173  -1.437  0.00  0.00    -0.063 S 
BRANCH  17  18
ATOM     18  C   UNL     1       3.011   9.874   0.168  0.00  0.00    +0.179 C 
BRANCH  18  20
ATOM     19  O   UNL     1       3.437  11.937  -0.895  0.00  0.00    -0.245 OA
ATOM     20  C   UNL     1       3.540  11.275   0.183  0.00  0.00    +0.376 C 
ATOM     21  O   UNL     1       4.717  11.508   0.900  0.00  0.00    -0.245 OA
ENDBRANCH  18  20
ENDBRANCH  17  18
ENDBRANCH  11  17
ENDBRANCH   1  12
BRANCH   7  22
ATOM     22  C   UNL     1      -1.433   5.976  -4.348  0.00  0.00    +0.022 C 
ATOM     23  C   UNL     1      -2.067   7.282  -4.901  0.00  0.00    +0.005 C 
ATOM     24  C   UNL     1      -1.391   6.247  -5.829  0.00  0.00    +0.005 C 
ENDBRANCH   7  22
TORSDOF 5
ENDMDL
