MODEL 1
REMARK VINA RESULT:      -9.4      0.000      0.000
REMARK  Name = 
REMARK  4 active torsions:
REMARK  status: ('A' for Active; 'I' for Inactive)
REMARK    1  A    between atoms: C_2  and  C_3
REMARK    2  A    between atoms: C_2  and  C_21
REMARK    3  A    between atoms: C_5  and  C_6
REMARK    4  A    between atoms: C_16  and  C_17
REMARK                            x       y       z     vdW  Elec       q    Type
REMARK                         _______ _______ _______ _____ _____    ______ ____
ROOT
ATOM      1  C   UNL     1       0.514   5.868  -7.096  0.00  0.00    +0.012 A 
ATOM      2  C   UNL     1       1.850   5.675  -7.012  0.00  0.00    +0.016 A 
ATOM      3  C   UNL     1       2.355   6.093  -5.789  0.00  0.00    +0.001 A 
ATOM      4  C   UNL     1       3.683   6.473  -5.696  0.00  0.00    +0.000 A 
ATOM      5  C   UNL     1       4.527   6.108  -6.737  0.00  0.00    +0.005 A 
ATOM      6  C   UNL     1       3.989   5.795  -7.971  0.00  0.00    +0.089 A 
ATOM      7  C   UNL     1       2.626   5.991  -8.123  0.00  0.00    +0.085 A 
ATOM      8  N   UNL     1       2.029   5.643  -9.290  0.00  0.00    -0.241 NA
ATOM      9  C   UNL     1       0.710   5.906  -9.457  0.00  0.00    +0.152 A 
ATOM     10  C   UNL     1      -0.071   5.626  -8.337  0.00  0.00    +0.021 A 
ENDROOT
BRANCH   6  11
ATOM     11  C   UNL     1       4.863   5.331  -9.064  0.00  0.00    +0.420 C 
ATOM     12  F   UNL     1       6.058   4.960  -8.465  0.00  0.00    -0.166 F 
ATOM     13  F   UNL     1       5.049   6.299 -10.012  0.00  0.00    -0.166 F 
ATOM     14  F   UNL     1       4.318   4.189  -9.599  0.00  0.00    -0.166 F 
ENDBRANCH   6  11
BRANCH   9  15
ATOM     15  C   UNL     1       0.062   5.967 -10.803  0.00  0.00    +0.435 C 
ATOM     16  F   UNL     1       1.097   6.312 -11.660  0.00  0.00    -0.164 F 
ATOM     17  F   UNL     1      -0.460   4.743 -11.128  0.00  0.00    -0.164 F 
ATOM     18  F   UNL     1      -0.888   6.959 -10.888  0.00  0.00    -0.164 F 
ENDBRANCH   9  15
BRANCH   1  20
ATOM     19  O   UNL     1       0.835   4.440  -5.324  0.00  0.00    -0.217 OA
ATOM     20  C   UNL     1      -0.397   5.123  -5.955  0.00  0.00    +0.190 C 
BRANCH  20  21
ATOM     21  C   UNL     1      -0.338   6.456  -4.813  0.00  0.00    +0.107 C 
ATOM     22  N   UNL     1      -0.707   5.519  -3.601  0.00  0.00    -0.217 NA
ATOM     23  C   UNL     1      -1.854   6.019  -2.940  0.00  0.00    +0.089 C 
ATOM     24  C   UNL     1      -3.007   5.306  -3.652  0.00  0.00    +0.019 C 
ATOM     25  C   UNL     1      -2.698   5.618  -5.117  0.00  0.00    +0.003 C 
ATOM     26  C   UNL     1      -1.899   6.879  -5.136  0.00  0.00    +0.020 C 
ENDBRANCH  20  21
ENDBRANCH   1  20
TORSDOF 4
ENDMDL
MODEL 2
REMARK VINA RESULT:      -9.2      3.196      7.457
REMARK  Name = 
REMARK  4 active torsions:
REMARK  status: ('A' for Active; 'I' for Inactive)
REMARK    1  A    between atoms: C_2  and  C_3
REMARK    2  A    between atoms: C_2  and  C_21
REMARK    3  A    between atoms: C_5  and  C_6
REMARK    4  A    between atoms: C_16  and  C_17
REMARK                            x       y       z     vdW  Elec       q    Type
REMARK                         _______ _______ _______ _____ _____    ______ ____
ROOT
ATOM      1  C   UNL     1       4.229   6.034  -8.681  0.00  0.00    +0.012 A 
ATOM      2  C   UNL     1       2.906   5.779  -8.806  0.00  0.00    +0.016 A 
ATOM      3  C   UNL     1       2.414   6.203 -10.032  0.00  0.00    +0.001 A 
ATOM      4  C   UNL     1       1.071   6.521 -10.152  0.00  0.00    +0.000 A 
ATOM      5  C   UNL     1       0.219   6.087  -9.144  0.00  0.00    +0.005 A 
ATOM      6  C   UNL     1       0.740   5.769  -7.905  0.00  0.00    +0.089 A 
ATOM      7  C   UNL     1       2.086   6.027  -7.710  0.00  0.00    +0.085 A 
ATOM      8  N   UNL     1       2.669   5.677  -6.536  0.00  0.00    -0.241 NA
ATOM      9  C   UNL     1       3.969   6.000  -6.327  0.00  0.00    +0.152 A 
ATOM     10  C   UNL     1       4.791   5.788  -7.431  0.00  0.00    +0.021 A 
ENDROOT
BRANCH   6  11
ATOM     11  C   UNL     1      -0.139   5.233  -6.848  0.00  0.00    +0.420 C 
ATOM     12  F   UNL     1      -0.364   6.284  -5.970  0.00  0.00    -0.166 F 
ATOM     13  F   UNL     1       0.422   4.156  -6.217  0.00  0.00    -0.166 F 
ATOM     14  F   UNL     1      -1.353   4.921  -7.411  0.00  0.00    -0.166 F 
ENDBRANCH   6  11
BRANCH   9  15
ATOM     15  C   UNL     1       4.578   6.056  -4.962  0.00  0.00    +0.435 C 
ATOM     16  F   UNL     1       3.512   6.368  -4.130  0.00  0.00    -0.164 F 
ATOM     17  F   UNL     1       5.116   4.840  -4.639  0.00  0.00    -0.164 F 
ATOM     18  F   UNL     1       5.503   7.067  -4.837  0.00  0.00    -0.164 F 
ENDBRANCH   9  15
BRANCH   1  20
ATOM     19  O   UNL     1       4.006   4.945 -10.693  0.00  0.00    -0.217 OA
ATOM     20  C   UNL     1       5.205   5.365  -9.815  0.00  0.00    +0.190 C 
BRANCH  20  21
ATOM     21  C   UNL     1       5.441   6.854 -10.717  0.00  0.00    +0.107 C 
ATOM     22  N   UNL     1       5.804   6.073 -12.036  0.00  0.00    -0.217 NA
ATOM     23  C   UNL     1       7.070   6.495 -12.509  0.00  0.00    +0.089 C 
ATOM     24  C   UNL     1       8.038   5.516 -11.840  0.00  0.00    +0.019 C 
ATOM     25  C   UNL     1       7.624   5.638 -10.372  0.00  0.00    +0.003 C 
ATOM     26  C   UNL     1       7.002   6.984 -10.203  0.00  0.00    +0.020 C 
ENDBRANCH  20  21
ENDBRANCH   1  20
TORSDOF 4
ENDMDL
MODEL 3
REMARK VINA RESULT:      -9.2      4.266      7.429
REMARK  Name = 
REMARK  4 active torsions:
REMARK  status: ('A' for Active; 'I' for Inactive)
REMARK    1  A    between atoms: C_2  and  C_3
REMARK    2  A    between atoms: C_2  and  C_21
REMARK    3  A    between atoms: C_5  and  C_6
REMARK    4  A    between atoms: C_16  and  C_17
REMARK                            x       y       z     vdW  Elec       q    Type
REMARK                         _______ _______ _______ _____ _____    ______ ____
ROOT
ATOM      1  C   UNL     1       1.692   5.515  -5.260  0.00  0.00    +0.012 A 
ATOM      2  C   UNL     1       0.355   5.314  -5.242  0.00  0.00    +0.016 A 
ATOM      3  C   UNL     1      -0.188   5.349  -6.518  0.00  0.00    +0.001 A 
ATOM      4  C   UNL     1      -1.520   5.692  -6.681  0.00  0.00    +0.000 A 
ATOM      5  C   UNL     1      -2.331   5.661  -5.554  0.00  0.00    +0.005 A 
ATOM      6  C   UNL     1      -1.754   5.729  -4.300  0.00  0.00    +0.089 A 
ATOM      7  C   UNL     1      -0.388   5.954  -4.254  0.00  0.00    +0.085 A 
ATOM      8  N   UNL     1       0.245   5.968  -3.055  0.00  0.00    -0.241 NA
ATOM      9  C   UNL     1       1.568   6.260  -3.014  0.00  0.00    +0.152 A 
ATOM     10  C   UNL     1       2.315   5.652  -4.021  0.00  0.00    +0.021 A 
ENDROOT
BRANCH   6  11
ATOM     11  C   UNL     1      -2.594   5.620  -3.092  0.00  0.00    +0.420 C 
ATOM     12  F   UNL     1      -2.825   6.921  -2.669  0.00  0.00    -0.166 F 
ATOM     13  F   UNL     1      -1.990   4.869  -2.120  0.00  0.00    -0.166 F 
ATOM     14  F   UNL     1      -3.812   5.099  -3.457  0.00  0.00    -0.166 F 
ENDBRANCH   6  11
BRANCH   9  15
ATOM     15  C   UNL     1       2.257   6.718  -1.768  0.00  0.00    +0.435 C 
ATOM     16  F   UNL     1       2.944   5.594  -1.331  0.00  0.00    -0.164 F 
ATOM     17  F   UNL     1       3.119   7.741  -2.058  0.00  0.00    -0.164 F 
ATOM     18  F   UNL     1       1.372   7.068  -0.774  0.00  0.00    -0.164 F 
ENDBRANCH   9  15
BRANCH   1  20
ATOM     19  O   UNL     1       1.395   3.458  -6.242  0.00  0.00    -0.217 OA
ATOM     20  C   UNL     1       2.570   4.456  -6.151  0.00  0.00    +0.190 C 
BRANCH  20  21
ATOM     21  C   UNL     1       2.170   5.185  -7.698  0.00  0.00    +0.107 C 
ATOM     22  N   UNL     1       3.029   4.129  -8.492  0.00  0.00    -0.217 NA
ATOM     23  C   UNL     1       3.982   4.796  -9.299  0.00  0.00    +0.089 C 
ATOM     24  C   UNL     1       5.209   4.890  -8.388  0.00  0.00    +0.019 C 
ATOM     25  C   UNL     1       4.605   5.522  -7.132  0.00  0.00    +0.003 C 
ATOM     26  C   UNL     1       3.394   6.281  -7.564  0.00  0.00    +0.020 C 
ENDBRANCH  20  21
ENDBRANCH   1  20
TORSDOF 4
ENDMDL
MODEL 4
REMARK VINA RESULT:      -9.0      2.562      4.646
REMARK  Name = 
REMARK  4 active torsions:
REMARK  status: ('A' for Active; 'I' for Inactive)
REMARK    1  A    between atoms: C_2  and  C_3
REMARK    2  A    between atoms: C_2  and  C_21
REMARK    3  A    between atoms: C_5  and  C_6
REMARK    4  A    between atoms: C_16  and  C_17
REMARK                            x       y       z     vdW  Elec       q    Type
REMARK                         _______ _______ _______ _____ _____    ______ ____
ROOT
ATOM      1  C   UNL     1       0.693   4.983  -4.511  0.00  0.00    +0.012 A 
ATOM      2  C   UNL     1       0.532   5.527  -5.739  0.00  0.00    +0.016 A 
ATOM      3  C   UNL     1      -0.560   4.985  -6.403  0.00  0.00    +0.001 A 
ATOM      4  C   UNL     1      -0.586   4.994  -7.788  0.00  0.00    +0.000 A 
ATOM      5  C   UNL     1       0.310   5.832  -8.439  0.00  0.00    +0.005 A 
ATOM      6  C   UNL     1       1.438   6.270  -7.772  0.00  0.00    +0.089 A 
ATOM      7  C   UNL     1       1.667   5.732  -6.516  0.00  0.00    +0.085 A 
ATOM      8  N   UNL     1       2.724   6.169  -5.786  0.00  0.00    -0.241 NA
ATOM      9  C   UNL     1       2.982   5.586  -4.591  0.00  0.00    +0.152 A 
ATOM     10  C   UNL     1       1.847   5.344  -3.820  0.00  0.00    +0.021 A 
ENDROOT
BRANCH   6  11
ATOM     11  C   UNL     1       2.359   7.221  -8.421  0.00  0.00    +0.420 C 
ATOM     12  F   UNL     1       1.902   7.368  -9.723  0.00  0.00    -0.166 F 
ATOM     13  F   UNL     1       3.654   6.781  -8.384  0.00  0.00    -0.166 F 
ATOM     14  F   UNL     1       2.218   8.445  -7.812  0.00  0.00    -0.166 F 
ENDBRANCH   6  11
BRANCH   9  15
ATOM     15  C   UNL     1       4.316   5.674  -3.920  0.00  0.00    +0.435 C 
ATOM     16  F   UNL     1       4.921   6.772  -4.516  0.00  0.00    -0.164 F 
ATOM     17  F   UNL     1       4.152   5.873  -2.575  0.00  0.00    -0.164 F 
ATOM     18  F   UNL     1       5.110   4.580  -4.176  0.00  0.00    -0.164 F 
ENDBRANCH   9  15
BRANCH   1  20
ATOM     19  O   UNL     1       0.271   4.688  -2.271  0.00  0.00    -0.217 OA
ATOM     20  C   UNL     1      -0.577   5.128  -3.484  0.00  0.00    +0.190 C 
BRANCH  20  21
ATOM     21  C   UNL     1      -0.312   6.831  -3.148  0.00  0.00    +0.107 C 
ATOM     22  N   UNL     1      -0.922   6.706  -1.700  0.00  0.00    -0.217 NA
ATOM     23  C   UNL     1      -1.979   7.635  -1.544  0.00  0.00    +0.089 C 
ATOM     24  C   UNL     1      -3.213   6.835  -1.972  0.00  0.00    +0.019 C 
ATOM     25  C   UNL     1      -2.773   6.309  -3.339  0.00  0.00    +0.003 C 
ATOM     26  C   UNL     1      -1.739   7.252  -3.859  0.00  0.00    +0.020 C 
ENDBRANCH  20  21
ENDBRANCH   1  20
TORSDOF 4
ENDMDL
MODEL 5
REMARK VINA RESULT:      -9.0      2.757      6.156
REMARK  Name = 
REMARK  4 active torsions:
REMARK  status: ('A' for Active; 'I' for Inactive)
REMARK    1  A    between atoms: C_2  and  C_3
REMARK    2  A    between atoms: C_2  and  C_21
REMARK    3  A    between atoms: C_5  and  C_6
REMARK    4  A    between atoms: C_16  and  C_17
REMARK                            x       y       z     vdW  Elec       q    Type
REMARK                         _______ _______ _______ _____ _____    ______ ____
ROOT
ATOM      1  C   UNL     1       2.857   5.593  -9.018  0.00  0.00    +0.012 A 
ATOM      2  C   UNL     1       2.286   5.549  -7.792  0.00  0.00    +0.016 A 
ATOM      3  C   UNL     1       3.123   4.957  -6.856  0.00  0.00    +0.001 A 
ATOM      4  C   UNL     1       2.572   4.350  -5.740  0.00  0.00    +0.000 A 
ATOM      5  C   UNL     1       1.249   4.647  -5.438  0.00  0.00    +0.005 A 
ATOM      6  C   UNL     1       0.421   5.142  -6.428  0.00  0.00    +0.089 A 
ATOM      7  C   UNL     1       0.944   5.193  -7.709  0.00  0.00    +0.085 A 
ATOM      8  N   UNL     1       0.202   5.728  -8.711  0.00  0.00    -0.241 NA
ATOM      9  C   UNL     1       0.693   5.708  -9.974  0.00  0.00    +0.152 A 
ATOM     10  C   UNL     1       2.045   6.028 -10.063  0.00  0.00    +0.021 A 
ENDROOT
BRANCH   6  11
ATOM     11  C   UNL     1      -0.964   5.535  -6.107  0.00  0.00    +0.420 C 
ATOM     12  F   UNL     1      -1.157   5.196  -4.775  0.00  0.00    -0.166 F 
ATOM     13  F   UNL     1      -1.870   4.918  -6.925  0.00  0.00    -0.166 F 
ATOM     14  F   UNL     1      -1.055   6.904  -6.183  0.00  0.00    -0.166 F 
ENDBRANCH   6  11
BRANCH   9  15
ATOM     15  C   UNL     1      -0.176   5.864 -11.181  0.00  0.00    +0.435 C 
ATOM     16  F   UNL     1       0.704   6.249 -12.183  0.00  0.00    -0.164 F 
ATOM     17  F   UNL     1      -0.777   4.671 -11.484  0.00  0.00    -0.164 F 
ATOM     18  F   UNL     1      -1.101   6.873 -11.040  0.00  0.00    -0.164 F 
ENDBRANCH   9  15
BRANCH   1  20
ATOM     19  O   UNL     1       4.863   5.648  -7.898  0.00  0.00    -0.217 OA
ATOM     20  C   UNL     1       4.285   6.391  -9.122  0.00  0.00    +0.190 C 
BRANCH  20  21
ATOM     21  C   UNL     1       5.015   5.258 -10.248  0.00  0.00    +0.107 C 
ATOM     22  N   UNL     1       6.473   5.637  -9.785  0.00  0.00    -0.217 NA
ATOM     23  C   UNL     1       7.239   6.046 -10.902  0.00  0.00    +0.089 C 
ATOM     24  C   UNL     1       7.018   7.561 -10.943  0.00  0.00    +0.019 C 
ATOM     25  C   UNL     1       5.490   7.644 -10.915  0.00  0.00    +0.003 C 
ATOM     26  C   UNL     1       4.972   6.360 -11.474  0.00  0.00    +0.020 C 
ENDBRANCH  20  21
ENDBRANCH   1  20
TORSDOF 4
ENDMDL
MODEL 6
REMARK VINA RESULT:      -8.9      3.790      6.570
REMARK  Name = 
REMARK  4 active torsions:
REMARK  status: ('A' for Active; 'I' for Inactive)
REMARK    1  A    between atoms: C_2  and  C_3
REMARK    2  A    between atoms: C_2  and  C_21
REMARK    3  A    between atoms: C_5  and  C_6
REMARK    4  A    between atoms: C_16  and  C_17
REMARK                            x       y       z     vdW  Elec       q    Type
REMARK                         _______ _______ _______ _____ _____    ______ ____
ROOT
ATOM      1  C   UNL     1       1.156   5.604  -2.489  0.00  0.00    +0.012 A 
ATOM      2  C   UNL     1      -0.092   5.936  -2.889  0.00  0.00    +0.016 A 
ATOM      3  C   UNL     1      -0.999   5.889  -1.840  0.00  0.00    +0.001 A 
ATOM      4  C   UNL     1      -2.340   5.670  -2.110  0.00  0.00    +0.000 A 
ATOM      5  C   UNL     1      -2.764   5.840  -3.422  0.00  0.00    +0.005 A 
ATOM      6  C   UNL     1      -1.840   5.781  -4.448  0.00  0.00    +0.089 A 
ATOM      7  C   UNL     1      -0.547   5.426  -4.101  0.00  0.00    +0.085 A 
ATOM      8  N   UNL     1       0.419   5.412  -5.053  0.00  0.00    -0.241 NA
ATOM      9  C   UNL     1       1.664   4.993  -4.720  0.00  0.00    +0.152 A 
ATOM     10  C   UNL     1       2.114   5.471  -3.492  0.00  0.00    +0.021 A 
ENDROOT
BRANCH   6  11
ATOM     11  C   UNL     1      -2.260   6.036  -5.838  0.00  0.00    +0.420 C 
ATOM     12  F   UNL     1      -3.130   5.007  -6.168  0.00  0.00    -0.166 F 
ATOM     13  F   UNL     1      -1.190   6.090  -6.690  0.00  0.00    -0.166 F 
ATOM     14  F   UNL     1      -2.993   7.198  -5.863  0.00  0.00    -0.166 F 
ENDBRANCH   6  11
BRANCH   9  15
ATOM     15  C   UNL     1       2.662   4.536  -5.736  0.00  0.00    +0.435 C 
ATOM     16  F   UNL     1       3.812   4.300  -4.997  0.00  0.00    -0.164 F 
ATOM     17  F   UNL     1       2.221   3.391  -6.343  0.00  0.00    -0.164 F 
ATOM     18  F   UNL     1       2.963   5.513  -6.658  0.00  0.00    -0.164 F 
ENDBRANCH   9  15
BRANCH   1  20
ATOM     19  O   UNL     1       1.554   5.429  -0.231  0.00  0.00    -0.217 OA
ATOM     20  C   UNL     1       1.801   6.523  -1.294  0.00  0.00    +0.190 C 
BRANCH  20  21
ATOM     21  C   UNL     1       3.454   5.994  -1.564  0.00  0.00    +0.107 C 
ATOM     22  N   UNL     1       3.790   6.044  -0.025  0.00  0.00    -0.217 NA
ATOM     23  C   UNL     1       4.912   6.879   0.193  0.00  0.00    +0.089 C 
ATOM     24  C   UNL     1       4.283   8.254   0.436  0.00  0.00    +0.019 C 
ATOM     25  C   UNL     1       3.377   8.393  -0.789  0.00  0.00    +0.003 C 
ATOM     26  C   UNL     1       3.959   7.535  -1.863  0.00  0.00    +0.020 C 
ENDBRANCH  20  21
ENDBRANCH   1  20
TORSDOF 4
ENDMDL
MODEL 7
REMARK VINA RESULT:      -8.9      3.099      5.907
REMARK  Name = 
REMARK  4 active torsions:
REMARK  status: ('A' for Active; 'I' for Inactive)
REMARK    1  A    between atoms: C_2  and  C_3
REMARK    2  A    between atoms: C_2  and  C_21
REMARK    3  A    between atoms: C_5  and  C_6
REMARK    4  A    between atoms: C_16  and  C_17
REMARK                            x       y       z     vdW  Elec       q    Type
REMARK                         _______ _______ _______ _____ _____    ______ ____
ROOT
ATOM      1  C   UNL     1       1.731   5.047  -4.936  0.00  0.00    +0.012 A 
ATOM      2  C   UNL     1       0.691   5.619  -4.287  0.00  0.00    +0.016 A 
ATOM      3  C   UNL     1       0.592   5.170  -2.978  0.00  0.00    +0.001 A 
ATOM      4  C   UNL     1      -0.637   5.201  -2.340  0.00  0.00    +0.000 A 
ATOM      5  C   UNL     1      -1.636   5.978  -2.913  0.00  0.00    +0.005 A 
ATOM      6  C   UNL     1      -1.548   6.320  -4.249  0.00  0.00    +0.089 A 
ATOM      7  C   UNL     1      -0.513   5.749  -4.971  0.00  0.00    +0.085 A 
ATOM      8  N   UNL     1      -0.337   6.095  -6.271  0.00  0.00    -0.241 NA
ATOM      9  C   UNL     1       0.632   5.478  -6.990  0.00  0.00    +0.152 A 
ATOM     10  C   UNL     1       1.830   5.311  -6.300  0.00  0.00    +0.021 A 
ENDROOT
BRANCH   6  11
ATOM     11  C   UNL     1      -2.558   7.208  -4.853  0.00  0.00    +0.420 C 
ATOM     12  F   UNL     1      -3.618   7.246  -3.958  0.00  0.00    -0.166 F 
ATOM     13  F   UNL     1      -2.951   6.766  -6.087  0.00  0.00    -0.166 F 
ATOM     14  F   UNL     1      -2.040   8.480  -4.907  0.00  0.00    -0.166 F 
ENDBRANCH   6  11
BRANCH   9  15
ATOM     15  C   UNL     1       0.639   5.456  -8.485  0.00  0.00    +0.435 C 
ATOM     16  F   UNL     1      -0.657   5.092  -8.823  0.00  0.00    -0.164 F 
ATOM     17  F   UNL     1       0.944   6.699  -8.970  0.00  0.00    -0.164 F 
ATOM     18  F   UNL     1       1.480   4.494  -8.995  0.00  0.00    -0.164 F 
ENDBRANCH   9  15
BRANCH   1  20
ATOM     19  O   UNL     1       3.928   4.674  -5.499  0.00  0.00    -0.217 OA
ATOM     20  C   UNL     1       3.212   5.273  -4.269  0.00  0.00    +0.190 C 
BRANCH  20  21
ATOM     21  C   UNL     1       3.402   6.915  -4.862  0.00  0.00    +0.107 C 
ATOM     22  N   UNL     1       4.973   6.794  -4.884  0.00  0.00    -0.217 NA
ATOM     23  C   UNL     1       5.544   7.832  -4.109  0.00  0.00    +0.089 C 
ATOM     24  C   UNL     1       5.662   7.205  -2.717  0.00  0.00    +0.019 C 
ATOM     25  C   UNL     1       4.237   6.697  -2.492  0.00  0.00    +0.003 C 
ATOM     26  C   UNL     1       3.335   7.535  -3.336  0.00  0.00    +0.020 C 
ENDBRANCH  20  21
ENDBRANCH   1  20
TORSDOF 4
ENDMDL
MODEL 8
REMARK VINA RESULT:      -8.8      3.806      7.034
REMARK  Name = 
REMARK  4 active torsions:
REMARK  status: ('A' for Active; 'I' for Inactive)
REMARK    1  A    between atoms: C_2  and  C_3
REMARK    2  A    between atoms: C_2  and  C_21
REMARK    3  A    between atoms: C_5  and  C_6
REMARK    4  A    between atoms: C_16  and  C_17
REMARK                            x       y       z     vdW  Elec       q    Type
REMARK                         _______ _______ _______ _____ _____    ______ ____
ROOT
ATOM      1  C   UNL     1       2.392   6.259  -6.691  0.00  0.00    +0.012 A 
ATOM      2  C   UNL     1       1.246   5.807  -6.133  0.00  0.00    +0.016 A 
ATOM      3  C   UNL     1       0.223   5.707  -7.066  0.00  0.00    +0.001 A 
ATOM      4  C   UNL     1      -1.093   5.786  -6.643  0.00  0.00    +0.000 A 
ATOM      5  C   UNL     1      -1.339   5.627  -5.285  0.00  0.00    +0.005 A 
ATOM      6  C   UNL     1      -0.315   5.833  -4.381  0.00  0.00    +0.089 A 
ATOM      7  C   UNL     1       0.879   6.315  -4.891  0.00  0.00    +0.085 A 
ATOM      8  N   UNL     1       1.941   6.478  -4.063  0.00  0.00    -0.241 NA
ATOM      9  C   UNL     1       3.082   7.019  -4.556  0.00  0.00    +0.152 A 
ATOM     10  C   UNL     1       3.438   6.542  -5.815  0.00  0.00    +0.021 A 
ENDROOT
BRANCH   6  11
ATOM     11  C   UNL     1      -0.538   5.593  -2.943  0.00  0.00    +0.420 C 
ATOM     12  F   UNL     1      -1.796   5.018  -2.843  0.00  0.00    -0.166 F 
ATOM     13  F   UNL     1      -0.448   6.748  -2.215  0.00  0.00    -0.166 F 
ATOM     14  F   UNL     1       0.365   4.649  -2.516  0.00  0.00    -0.166 F 
ENDBRANCH   6  11
BRANCH   9  15
ATOM     15  C   UNL     1       4.131   7.628  -3.682  0.00  0.00    +0.435 C 
ATOM     16  F   UNL     1       4.707   6.541  -3.039  0.00  0.00    -0.164 F 
ATOM     17  F   UNL     1       5.051   8.292  -4.448  0.00  0.00    -0.164 F 
ATOM     18  F   UNL     1       3.600   8.444  -2.709  0.00  0.00    -0.164 F 
ENDBRANCH   9  15
BRANCH   1  20
ATOM     19  O   UNL     1       1.793   4.399  -7.901  0.00  0.00    -0.217 OA
ATOM     20  C   UNL     1       2.995   5.368  -7.927  0.00  0.00    +0.190 C 
BRANCH  20  21
ATOM     21  C   UNL     1       2.274   6.348  -9.194  0.00  0.00    +0.107 C 
ATOM     22  N   UNL     1       2.471   5.215 -10.272  0.00  0.00    -0.217 NA
ATOM     23  C   UNL     1       3.208   5.721 -11.369  0.00  0.00    +0.089 C 
ATOM     24  C   UNL     1       4.659   5.407 -10.990  0.00  0.00    +0.019 C 
ATOM     25  C   UNL     1       4.744   6.016  -9.589  0.00  0.00    +0.003 C 
ATOM     26  C   UNL     1       3.711   7.091  -9.516  0.00  0.00    +0.020 C 
ENDBRANCH  20  21
ENDBRANCH   1  20
TORSDOF 4
ENDMDL
MODEL 9
REMARK VINA RESULT:      -8.8      2.647      3.755
REMARK  Name = 
REMARK  4 active torsions:
REMARK  status: ('A' for Active; 'I' for Inactive)
REMARK    1  A    between atoms: C_2  and  C_3
REMARK    2  A    between atoms: C_2  and  C_21
REMARK    3  A    between atoms: C_5  and  C_6
REMARK    4  A    between atoms: C_16  and  C_17
REMARK                            x       y       z     vdW  Elec       q    Type
REMARK                         _______ _______ _______ _____ _____    ______ ____
ROOT
ATOM      1  C   UNL     1       2.513   5.743  -9.640  0.00  0.00    +0.012 A 
ATOM      2  C   UNL     1       3.718   5.465 -10.189  0.00  0.00    +0.016 A 
ATOM      3  C   UNL     1       4.735   5.501  -9.245  0.00  0.00    +0.001 A 
ATOM      4  C   UNL     1       6.031   5.771  -9.651  0.00  0.00    +0.000 A 
ATOM      5  C   UNL     1       6.311   5.664 -11.008  0.00  0.00    +0.005 A 
ATOM      6  C   UNL     1       5.277   5.734 -11.922  0.00  0.00    +0.089 A 
ATOM      7  C   UNL     1       4.022   6.035 -11.421  0.00  0.00    +0.085 A 
ATOM      8  N   UNL     1       2.956   6.055 -12.260  0.00  0.00    -0.241 NA
ATOM      9  C   UNL     1       1.745   6.421 -11.776  0.00  0.00    +0.152 A 
ATOM     10  C   UNL     1       1.447   5.884 -10.526  0.00  0.00    +0.021 A 
ENDROOT
BRANCH   6  11
ATOM     11  C   UNL     1       5.547   5.545 -13.360  0.00  0.00    +0.420 C 
ATOM     12  F   UNL     1       6.858   5.100 -13.446  0.00  0.00    -0.166 F 
ATOM     13  F   UNL     1       5.355   6.699 -14.069  0.00  0.00    -0.166 F 
ATOM     14  F   UNL     1       4.751   4.524 -13.820  0.00  0.00    -0.166 F 
ENDBRANCH   6  11
BRANCH   9  15
ATOM     15  C   UNL     1       0.629   6.885 -12.656  0.00  0.00    +0.435 C 
ATOM     16  F   UNL     1       0.512   5.883 -13.609  0.00  0.00    -0.164 F 
ATOM     17  F   UNL     1      -0.523   7.009 -11.927  0.00  0.00    -0.164 F 
ATOM     18  F   UNL     1       0.931   8.050 -13.323  0.00  0.00    -0.164 F 
ENDBRANCH   9  15
BRANCH   1  20
ATOM     19  O   UNL     1       3.228   3.806  -8.628  0.00  0.00    -0.217 OA
ATOM     20  C   UNL     1       2.030   4.759  -8.421  0.00  0.00    +0.190 C 
BRANCH  20  21
ATOM     21  C   UNL     1       2.864   5.653  -7.159  0.00  0.00    +0.107 C 
ATOM     22  N   UNL     1       2.524   4.564  -6.073  0.00  0.00    -0.217 NA
ATOM     23  C   UNL     1       1.852   5.167  -4.983  0.00  0.00    +0.089 C 
ATOM     24  C   UNL     1       0.375   5.033  -5.365  0.00  0.00    +0.019 C 
ATOM     25  C   UNL     1       0.371   5.634  -6.772  0.00  0.00    +0.003 C 
ATOM     26  C   UNL     1       1.530   6.572  -6.850  0.00  0.00    +0.020 C 
ENDBRANCH  20  21
ENDBRANCH   1  20
TORSDOF 4
ENDMDL
