MODEL 1
REMARK VINA RESULT:      -7.5      0.000      0.000
REMARK  Name = 
REMARK  11 active torsions:
REMARK  status: ('A' for Active; 'I' for Inactive)
REMARK    1  A    between atoms: N_2  and  C_3
REMARK    2  A    between atoms: N_2  and  C_17
REMARK    3  A    between atoms: C_3  and  C_4
REMARK    4  A    between atoms: C_4  and  O_5
REMARK    5  A    between atoms: O_5  and  C_6
REMARK    6  A    between atoms: C_9  and  N_10
REMARK    7  A    between atoms: N_10  and  S_11
REMARK    8  A    between atoms: C_17  and  C_18
REMARK    9  A    between atoms: C_18  and  C_19
REMARK   10  A    between atoms: C_22  and  N_23
REMARK   11  A    between atoms: N_23  and  S_24
REMARK                            x       y       z     vdW  Elec       q    Type
REMARK                         _______ _______ _______ _____ _____    ______ ____
ROOT
ATOM      1  C   UNL     1       3.508   4.338  -8.828  0.00  0.00    +0.090 C 
ATOM      2  N   UNL     1       3.648   5.782  -8.976  0.00  0.00    -0.268 NA
ENDROOT
BRANCH   2   3
ATOM      3  C   UNL     1       3.614   6.352  -7.631  0.00  0.00    +0.077 C 
BRANCH   3   4
ATOM      4  C   UNL     1       4.552   5.620  -6.693  0.00  0.00    +0.044 C 
BRANCH   4   5
ATOM      5  C   UNL     1       4.159   5.889  -5.281  0.00  0.00    -0.021 A 
ATOM      6  C   UNL     1       4.328   4.858  -4.380  0.00  0.00    -0.003 A 
ATOM      7  C   UNL     1       3.715   4.989  -3.141  0.00  0.00    +0.018 A 
ATOM      8  C   UNL     1       3.038   6.132  -2.763  0.00  0.00    +0.091 A 
ATOM      9  C   UNL     1       2.951   7.159  -3.673  0.00  0.00    +0.018 A 
ATOM     10  C   UNL     1       3.703   7.099  -4.835  0.00  0.00    -0.003 A 
BRANCH   8  11
ATOM     11  N   UNL     1       2.842   6.323  -1.357  0.00  0.00    -0.101 NA
BRANCH  11  12
ATOM     12  S   UNL     1       3.941   7.303  -0.437  0.00  0.00    +0.075 S 
ATOM     13  O   UNL     1       4.111   6.721   0.942  0.00  0.00    -0.153 OA
ATOM     14  O   UNL     1       5.268   7.242  -1.158  0.00  0.00    -0.153 OA
ATOM     15  C   UNL     1       3.379   8.972  -0.297  0.00  0.00    +0.202 C 
ENDBRANCH  11  12
ENDBRANCH   8  11
ENDBRANCH   4   5
ENDBRANCH   3   4
ENDBRANCH   2   3
BRANCH   2  16
ATOM     16  C   UNL     1       2.425   6.239  -9.628  0.00  0.00    +0.120 C 
BRANCH  16  17
ATOM     17  C   UNL     1       1.314   5.249  -9.313  0.00  0.00    +0.223 C 
BRANCH  17  18
ATOM     18  O   UNL     1       0.297   5.845  -8.538  0.00  0.00    -0.474 OA
BRANCH  18  19
ATOM     19  C   UNL     1      -0.198   5.272  -7.363  0.00  0.00    +0.139 A 
ATOM     20  C   UNL     1       0.660   4.792  -6.380  0.00  0.00    +0.038 A 
ATOM     21  C   UNL     1       0.395   5.017  -5.036  0.00  0.00    +0.021 A 
ATOM     22  C   UNL     1      -0.807   5.574  -4.629  0.00  0.00    +0.091 A 
ATOM     23  C   UNL     1      -1.802   5.630  -5.597  0.00  0.00    +0.021 A 
ATOM     24  C   UNL     1      -1.503   5.503  -6.947  0.00  0.00    +0.038 A 
BRANCH  22  25
ATOM     25  N   UNL     1      -0.933   6.398  -3.486  0.00  0.00    -0.101 NA
BRANCH  25  26
ATOM     26  S   UNL     1      -1.469   5.822  -1.963  0.00  0.00    +0.075 S 
ATOM     27  O   UNL     1      -2.661   4.928  -2.058  0.00  0.00    -0.153 OA
ATOM     28  O   UNL     1      -0.343   5.017  -1.364  0.00  0.00    -0.153 OA
ATOM     29  C   UNL     1      -1.844   7.139  -0.842  0.00  0.00    +0.202 C 
ENDBRANCH  25  26
ENDBRANCH  22  25
ENDBRANCH  18  19
ENDBRANCH  17  18
ENDBRANCH  16  17
ENDBRANCH   2  16
TORSDOF 11
ENDMDL
MODEL 2
REMARK VINA RESULT:      -7.5      1.495      5.085
REMARK  Name = 
REMARK  11 active torsions:
REMARK  status: ('A' for Active; 'I' for Inactive)
REMARK    1  A    between atoms: N_2  and  C_3
REMARK    2  A    between atoms: N_2  and  C_17
REMARK    3  A    between atoms: C_3  and  C_4
REMARK    4  A    between atoms: C_4  and  O_5
REMARK    5  A    between atoms: O_5  and  C_6
REMARK    6  A    between atoms: C_9  and  N_10
REMARK    7  A    between atoms: N_10  and  S_11
REMARK    8  A    between atoms: C_17  and  C_18
REMARK    9  A    between atoms: C_18  and  C_19
REMARK   10  A    between atoms: C_22  and  N_23
REMARK   11  A    between atoms: N_23  and  S_24
REMARK                            x       y       z     vdW  Elec       q    Type
REMARK                         _______ _______ _______ _____ _____    ______ ____
ROOT
ATOM      1  C   UNL     1       2.507   6.386  -9.393  0.00  0.00    +0.090 C 
ATOM      2  N   UNL     1       2.365   4.935  -9.351  0.00  0.00    -0.268 NA
ENDROOT
BRANCH   2   3
ATOM      3  C   UNL     1       1.438   4.629  -8.265  0.00  0.00    +0.077 C 
BRANCH   3   4
ATOM      4  C   UNL     1       0.163   5.439  -8.377  0.00  0.00    +0.044 C 
BRANCH   4   5
ATOM      5  C   UNL     1      -0.307   5.826  -7.016  0.00  0.00    -0.021 A 
ATOM      6  C   UNL     1      -1.592   5.459  -6.673  0.00  0.00    -0.003 A 
ATOM      7  C   UNL     1      -2.139   6.046  -5.539  0.00  0.00    +0.018 A 
ATOM      8  C   UNL     1      -1.418   6.891  -4.717  0.00  0.00    +0.091 A 
ATOM      9  C   UNL     1      -0.120   7.176  -5.067  0.00  0.00    +0.018 A 
ATOM     10  C   UNL     1       0.477   6.462  -6.093  0.00  0.00    -0.003 A 
BRANCH   8  11
ATOM     11  N   UNL     1      -1.921   7.071  -3.388  0.00  0.00    -0.101 NA
BRANCH  11  12
ATOM     12  S   UNL     1      -1.800   5.794  -2.217  0.00  0.00    +0.075 S 
ATOM     13  O   UNL     1      -2.958   4.844  -2.379  0.00  0.00    -0.153 OA
ATOM     14  O   UNL     1      -0.518   5.056  -2.528  0.00  0.00    -0.153 OA
ATOM     15  C   UNL     1      -1.783   6.414  -0.564  0.00  0.00    +0.202 C 
ENDBRANCH  11  12
ENDBRANCH   8  11
ENDBRANCH   4   5
ENDBRANCH   3   4
ENDBRANCH   2   3
BRANCH   2  16
ATOM     16  C   UNL     1       3.661   4.418  -8.921  0.00  0.00    +0.120 C 
BRANCH  16  17
ATOM     17  C   UNL     1       4.567   5.598  -8.604  0.00  0.00    +0.223 C 
BRANCH  17  18
ATOM     18  O   UNL     1       5.061   5.527  -7.285  0.00  0.00    -0.474 OA
BRANCH  18  19
ATOM     19  C   UNL     1       4.254   5.723  -6.160  0.00  0.00    +0.139 A 
ATOM     20  C   UNL     1       4.168   4.761  -5.159  0.00  0.00    +0.038 A 
ATOM     21  C   UNL     1       4.163   5.130  -3.821  0.00  0.00    +0.021 A 
ATOM     22  C   UNL     1       4.074   6.462  -3.447  0.00  0.00    +0.091 A 
ATOM     23  C   UNL     1       3.720   7.347  -4.458  0.00  0.00    +0.021 A 
ATOM     24  C   UNL     1       3.828   6.994  -5.796  0.00  0.00    +0.038 A 
BRANCH  22  25
ATOM     25  N   UNL     1       4.675   6.982  -2.276  0.00  0.00    -0.101 NA
BRANCH  25  26
ATOM     26  S   UNL     1       3.917   6.962  -0.739  0.00  0.00    +0.075 S 
ATOM     27  O   UNL     1       4.433   5.886   0.158  0.00  0.00    -0.153 OA
ATOM     28  O   UNL     1       4.208   8.285  -0.076  0.00  0.00    -0.153 OA
ATOM     29  C   UNL     1       2.159   6.796  -0.861  0.00  0.00    +0.202 C 
ENDBRANCH  25  26
ENDBRANCH  22  25
ENDBRANCH  18  19
ENDBRANCH  17  18
ENDBRANCH  16  17
ENDBRANCH   2  16
TORSDOF 11
ENDMDL
MODEL 3
REMARK VINA RESULT:      -7.3      5.387      9.043
REMARK  Name = 
REMARK  11 active torsions:
REMARK  status: ('A' for Active; 'I' for Inactive)
REMARK    1  A    between atoms: N_2  and  C_3
REMARK    2  A    between atoms: N_2  and  C_17
REMARK    3  A    between atoms: C_3  and  C_4
REMARK    4  A    between atoms: C_4  and  O_5
REMARK    5  A    between atoms: O_5  and  C_6
REMARK    6  A    between atoms: C_9  and  N_10
REMARK    7  A    between atoms: N_10  and  S_11
REMARK    8  A    between atoms: C_17  and  C_18
REMARK    9  A    between atoms: C_18  and  C_19
REMARK   10  A    between atoms: C_22  and  N_23
REMARK   11  A    between atoms: N_23  and  S_24
REMARK                            x       y       z     vdW  Elec       q    Type
REMARK                         _______ _______ _______ _____ _____    ______ ____
ROOT
ATOM      1  C   UNL     1       2.146   6.109  -4.814  0.00  0.00    +0.090 C 
ATOM      2  N   UNL     1       2.190   5.793  -6.237  0.00  0.00    -0.268 NA
ENDROOT
BRANCH   2   3
ATOM      3  C   UNL     1       3.437   6.346  -6.757  0.00  0.00    +0.077 C 
BRANCH   3   4
ATOM      4  C   UNL     1       4.333   5.263  -7.324  0.00  0.00    +0.044 C 
BRANCH   4   5
ATOM      5  C   UNL     1       4.791   5.654  -8.687  0.00  0.00    -0.021 A 
ATOM      6  C   UNL     1       6.126   5.462  -8.974  0.00  0.00    -0.003 A 
ATOM      7  C   UNL     1       6.625   6.071 -10.118  0.00  0.00    +0.018 A 
ATOM      8  C   UNL     1       5.822   6.766 -11.001  0.00  0.00    +0.091 A 
ATOM      9  C   UNL     1       4.484   6.877 -10.704  0.00  0.00    +0.018 A 
ATOM     10  C   UNL     1       3.958   6.130  -9.663  0.00  0.00    -0.003 A 
BRANCH   8  11
ATOM     11  N   UNL     1       6.341   6.959 -12.322  0.00  0.00    -0.101 NA
BRANCH  11  12
ATOM     12  S   UNL     1       6.536   5.611 -13.400  0.00  0.00    +0.075 S 
ATOM     13  O   UNL     1       7.660   4.732 -12.918  0.00  0.00    -0.153 OA
ATOM     14  O   UNL     1       5.244   4.828 -13.335  0.00  0.00    -0.153 OA
ATOM     15  C   UNL     1       6.872   6.131 -15.054  0.00  0.00    +0.202 C 
ENDBRANCH  11  12
ENDBRANCH   8  11
ENDBRANCH   4   5
ENDBRANCH   3   4
ENDBRANCH   2   3
BRANCH   2  16
ATOM     16  C   UNL     1       1.124   6.577  -6.854  0.00  0.00    +0.120 C 
BRANCH  16  17
ATOM     17  C   UNL     1       0.172   5.621  -7.558  0.00  0.00    +0.223 C 
BRANCH  17  18
ATOM     18  O   UNL     1       0.748   5.091  -8.731  0.00  0.00    -0.474 OA
BRANCH  18  19
ATOM     19  C   UNL     1       0.270   5.384 -10.011  0.00  0.00    +0.139 A 
ATOM     20  C   UNL     1       0.026   6.694 -10.406  0.00  0.00    +0.038 A 
ATOM     21  C   UNL     1       0.383   7.130 -11.675  0.00  0.00    +0.021 A 
ATOM     22  C   UNL     1       0.834   6.239 -12.636  0.00  0.00    +0.091 A 
ATOM     23  C   UNL     1       0.644   4.894 -12.343  0.00  0.00    +0.021 A 
ATOM     24  C   UNL     1       0.387   4.467 -11.048  0.00  0.00    +0.038 A 
BRANCH  22  25
ATOM     25  N   UNL     1       1.772   6.585 -13.637  0.00  0.00    -0.101 NA
BRANCH  25  26
ATOM     26  S   UNL     1       1.333   7.277 -15.142  0.00  0.00    +0.075 S 
ATOM     27  O   UNL     1       0.401   6.421 -15.934  0.00  0.00    -0.153 OA
ATOM     28  O   UNL     1       0.623   8.575 -14.851  0.00  0.00    -0.153 OA
ATOM     29  C   UNL     1       2.743   7.648 -16.146  0.00  0.00    +0.202 C 
ENDBRANCH  25  26
ENDBRANCH  22  25
ENDBRANCH  18  19
ENDBRANCH  17  18
ENDBRANCH  16  17
ENDBRANCH   2  16
TORSDOF 11
ENDMDL
MODEL 4
REMARK VINA RESULT:      -7.2      4.060      6.812
REMARK  Name = 
REMARK  11 active torsions:
REMARK  status: ('A' for Active; 'I' for Inactive)
REMARK    1  A    between atoms: N_2  and  C_3
REMARK    2  A    between atoms: N_2  and  C_17
REMARK    3  A    between atoms: C_3  and  C_4
REMARK    4  A    between atoms: C_4  and  O_5
REMARK    5  A    between atoms: O_5  and  C_6
REMARK    6  A    between atoms: C_9  and  N_10
REMARK    7  A    between atoms: N_10  and  S_11
REMARK    8  A    between atoms: C_17  and  C_18
REMARK    9  A    between atoms: C_18  and  C_19
REMARK   10  A    between atoms: C_22  and  N_23
REMARK   11  A    between atoms: N_23  and  S_24
REMARK                            x       y       z     vdW  Elec       q    Type
REMARK                         _______ _______ _______ _____ _____    ______ ____
ROOT
ATOM      1  C   UNL     1       1.450   4.292  -6.152  0.00  0.00    +0.090 C 
ATOM      2  N   UNL     1       0.947   5.360  -7.009  0.00  0.00    -0.268 NA
ENDROOT
BRANCH   2   3
ATOM      3  C   UNL     1       2.063   6.269  -7.255  0.00  0.00    +0.077 C 
BRANCH   3   4
ATOM      4  C   UNL     1       3.396   5.557  -7.146  0.00  0.00    +0.044 C 
BRANCH   4   5
ATOM      5  C   UNL     1       4.228   5.864  -8.343  0.00  0.00    -0.021 A 
ATOM      6  C   UNL     1       3.690   6.735  -9.268  0.00  0.00    -0.003 A 
ATOM      7  C   UNL     1       4.315   6.813 -10.507  0.00  0.00    +0.018 A 
ATOM      8  C   UNL     1       5.482   6.132 -10.795  0.00  0.00    +0.091 A 
ATOM      9  C   UNL     1       6.015   5.325  -9.817  0.00  0.00    +0.018 A 
ATOM     10  C   UNL     1       5.493   5.380  -8.535  0.00  0.00    -0.003 A 
BRANCH   8  11
ATOM     11  N   UNL     1       6.250   6.620 -11.902  0.00  0.00    -0.101 NA
BRANCH  11  12
ATOM     12  S   UNL     1       6.604   5.588 -13.254  0.00  0.00    +0.075 S 
ATOM     13  O   UNL     1       7.756   4.680 -12.913  0.00  0.00    -0.153 OA
ATOM     14  O   UNL     1       5.369   4.745 -13.477  0.00  0.00    -0.153 OA
ATOM     15  C   UNL     1       7.002   6.514 -14.704  0.00  0.00    +0.202 C 
ENDBRANCH  11  12
ENDBRANCH   8  11
ENDBRANCH   4   5
ENDBRANCH   3   4
ENDBRANCH   2   3
BRANCH   2  16
ATOM     16  C   UNL     1      -0.003   6.113  -6.195  0.00  0.00    +0.120 C 
BRANCH  16  17
ATOM     17  C   UNL     1      -1.365   5.444  -6.305  0.00  0.00    +0.223 C 
BRANCH  17  18
ATOM     18  O   UNL     1      -2.397   6.303  -5.875  0.00  0.00    -0.474 OA
BRANCH  18  19
ATOM     19  C   UNL     1      -2.711   6.499  -4.527  0.00  0.00    +0.139 A 
ATOM     20  C   UNL     1      -3.045   5.430  -3.703  0.00  0.00    +0.038 A 
ATOM     21  C   UNL     1      -2.557   5.356  -2.406  0.00  0.00    +0.021 A 
ATOM     22  C   UNL     1      -1.868   6.418  -1.840  0.00  0.00    +0.091 A 
ATOM     23  C   UNL     1      -1.940   7.619  -2.534  0.00  0.00    +0.021 A 
ATOM     24  C   UNL     1      -2.335   7.661  -3.865  0.00  0.00    +0.038 A 
BRANCH  22  25
ATOM     25  N   UNL     1      -0.838   6.253  -0.884  0.00  0.00    -0.101 NA
BRANCH  25  26
ATOM     26  S   UNL     1       0.725   5.668  -1.273  0.00  0.00    +0.075 S 
ATOM     27  O   UNL     1       1.752   5.999  -0.240  0.00  0.00    -0.153 OA
ATOM     28  O   UNL     1       0.635   4.164  -1.359  0.00  0.00    -0.153 OA
ATOM     29  C   UNL     1       1.294   6.263  -2.839  0.00  0.00    +0.202 C 
ENDBRANCH  25  26
ENDBRANCH  22  25
ENDBRANCH  18  19
ENDBRANCH  17  18
ENDBRANCH  16  17
ENDBRANCH   2  16
TORSDOF 11
ENDMDL
MODEL 5
REMARK VINA RESULT:      -7.2      6.191     11.037
REMARK  Name = 
REMARK  11 active torsions:
REMARK  status: ('A' for Active; 'I' for Inactive)
REMARK    1  A    between atoms: N_2  and  C_3
REMARK    2  A    between atoms: N_2  and  C_17
REMARK    3  A    between atoms: C_3  and  C_4
REMARK    4  A    between atoms: C_4  and  O_5
REMARK    5  A    between atoms: O_5  and  C_6
REMARK    6  A    between atoms: C_9  and  N_10
REMARK    7  A    between atoms: N_10  and  S_11
REMARK    8  A    between atoms: C_17  and  C_18
REMARK    9  A    between atoms: C_18  and  C_19
REMARK   10  A    between atoms: C_22  and  N_23
REMARK   11  A    between atoms: N_23  and  S_24
REMARK                            x       y       z     vdW  Elec       q    Type
REMARK                         _______ _______ _______ _____ _____    ______ ____
ROOT
ATOM      1  C   UNL     1       0.345   5.779  -7.331  0.00  0.00    +0.090 C 
ATOM      2  N   UNL     1       1.039   5.758  -8.613  0.00  0.00    -0.268 NA
ENDROOT
BRANCH   2   3
ATOM      3  C   UNL     1       0.016   5.856  -9.651  0.00  0.00    +0.077 C 
BRANCH   3   4
ATOM      4  C   UNL     1       0.190   4.784 -10.707  0.00  0.00    +0.044 C 
BRANCH   4   5
ATOM      5  C   UNL     1       0.583   5.412 -12.000  0.00  0.00    -0.021 A 
ATOM      6  C   UNL     1       0.583   6.791 -12.048  0.00  0.00    -0.003 A 
ATOM      7  C   UNL     1       0.668   7.384 -13.301  0.00  0.00    +0.018 A 
ATOM      8  C   UNL     1       0.843   6.652 -14.460  0.00  0.00    +0.091 A 
ATOM      9  C   UNL     1       0.900   5.282 -14.354  0.00  0.00    +0.018 A 
ATOM     10  C   UNL     1       0.988   4.704 -13.098  0.00  0.00    -0.003 A 
BRANCH   8  11
ATOM     11  N   UNL     1       1.349   7.365 -15.595  0.00  0.00    -0.101 NA
BRANCH  11  12
ATOM     12  S   UNL     1       0.322   7.703 -16.955  0.00  0.00    +0.075 S 
ATOM     13  O   UNL     1       0.224   9.193 -17.160  0.00  0.00    -0.153 OA
ATOM     14  O   UNL     1       0.999   7.090 -18.159  0.00  0.00    -0.153 OA
ATOM     15  C   UNL     1      -1.299   7.038 -16.739  0.00  0.00    +0.202 C 
ENDBRANCH  11  12
ENDBRANCH   8  11
ENDBRANCH   4   5
ENDBRANCH   3   4
ENDBRANCH   2   3
BRANCH   2  16
ATOM     16  C   UNL     1       1.605   4.419  -8.742  0.00  0.00    +0.120 C 
BRANCH  16  17
ATOM     17  C   UNL     1       2.916   4.375  -7.972  0.00  0.00    +0.223 C 
BRANCH  17  18
ATOM     18  O   UNL     1       4.024   4.351  -8.843  0.00  0.00    -0.474 OA
BRANCH  18  19
ATOM     19  C   UNL     1       4.767   5.492  -9.160  0.00  0.00    +0.139 A 
ATOM     20  C   UNL     1       6.157   5.474  -9.144  0.00  0.00    +0.038 A 
ATOM     21  C   UNL     1       6.885   6.108 -10.141  0.00  0.00    +0.021 A 
ATOM     22  C   UNL     1       6.260   6.914 -11.080  0.00  0.00    +0.091 A 
ATOM     23  C   UNL     1       4.943   7.255 -10.796  0.00  0.00    +0.021 A 
ATOM     24  C   UNL     1       4.198   6.544  -9.867  0.00  0.00    +0.038 A 
BRANCH  22  25
ATOM     25  N   UNL     1       6.723   7.062 -12.408  0.00  0.00    -0.101 NA
BRANCH  25  26
ATOM     26  S   UNL     1       6.842   5.758 -13.515  0.00  0.00    +0.075 S 
ATOM     27  O   UNL     1       7.947   4.808 -13.190  0.00  0.00    -0.153 OA
ATOM     28  O   UNL     1       5.546   4.989 -13.446  0.00  0.00    -0.153 OA
ATOM     29  C   UNL     1       7.051   6.312 -15.183  0.00  0.00    +0.202 C 
ENDBRANCH  25  26
ENDBRANCH  22  25
ENDBRANCH  18  19
ENDBRANCH  17  18
ENDBRANCH  16  17
ENDBRANCH   2  16
TORSDOF 11
ENDMDL
MODEL 6
REMARK VINA RESULT:      -7.0      4.640      7.989
REMARK  Name = 
REMARK  11 active torsions:
REMARK  status: ('A' for Active; 'I' for Inactive)
REMARK    1  A    between atoms: N_2  and  C_3
REMARK    2  A    between atoms: N_2  and  C_17
REMARK    3  A    between atoms: C_3  and  C_4
REMARK    4  A    between atoms: C_4  and  O_5
REMARK    5  A    between atoms: O_5  and  C_6
REMARK    6  A    between atoms: C_9  and  N_10
REMARK    7  A    between atoms: N_10  and  S_11
REMARK    8  A    between atoms: C_17  and  C_18
REMARK    9  A    between atoms: C_18  and  C_19
REMARK   10  A    between atoms: C_22  and  N_23
REMARK   11  A    between atoms: N_23  and  S_24
REMARK                            x       y       z     vdW  Elec       q    Type
REMARK                         _______ _______ _______ _____ _____    ______ ____
ROOT
ATOM      1  C   UNL     1       5.130   7.139  -4.429  0.00  0.00    +0.090 C 
ATOM      2  N   UNL     1       4.186   6.294  -5.150  0.00  0.00    -0.268 NA
ENDROOT
BRANCH   2   3
ATOM      3  C   UNL     1       4.371   6.567  -6.573  0.00  0.00    +0.077 C 
BRANCH   3   4
ATOM      4  C   UNL     1       4.996   5.388  -7.289  0.00  0.00    +0.044 C 
BRANCH   4   5
ATOM      5  C   UNL     1       5.358   5.781  -8.681  0.00  0.00    -0.021 A 
ATOM      6  C   UNL     1       6.648   5.511  -9.088  0.00  0.00    -0.003 A 
ATOM      7  C   UNL     1       7.084   6.115 -10.261  0.00  0.00    +0.018 A 
ATOM      8  C   UNL     1       6.254   6.881 -11.057  0.00  0.00    +0.091 A 
ATOM      9  C   UNL     1       4.957   7.069 -10.639  0.00  0.00    +0.018 A 
ATOM     10  C   UNL     1       4.476   6.332  -9.570  0.00  0.00    -0.003 A 
BRANCH   8  11
ATOM     11  N   UNL     1       6.668   7.072 -12.415  0.00  0.00    -0.101 NA
BRANCH  11  12
ATOM     12  S   UNL     1       6.476   5.801 -13.583  0.00  0.00    +0.075 S 
ATOM     13  O   UNL     1       6.738   6.338 -14.966  0.00  0.00    -0.153 OA
ATOM     14  O   UNL     1       7.527   4.765 -13.257  0.00  0.00    -0.153 OA
ATOM     15  C   UNL     1       4.859   5.094 -13.529  0.00  0.00    +0.202 C 
ENDBRANCH  11  12
ENDBRANCH   8  11
ENDBRANCH   4   5
ENDBRANCH   3   4
ENDBRANCH   2   3
BRANCH   2  16
ATOM     16  C   UNL     1       2.858   6.803  -4.820  0.00  0.00    +0.120 C 
BRANCH  16  17
ATOM     17  C   UNL     1       2.057   5.677  -4.185  0.00  0.00    +0.223 C 
BRANCH  17  18
ATOM     18  O   UNL     1       2.104   4.505  -4.968  0.00  0.00    -0.474 OA
BRANCH  18  19
ATOM     19  C   UNL     1       1.390   4.360  -6.161  0.00  0.00    +0.139 A 
ATOM     20  C   UNL     1       0.146   4.956  -6.333  0.00  0.00    +0.038 A 
ATOM     21  C   UNL     1      -0.187   5.567  -7.533  0.00  0.00    +0.021 A 
ATOM     22  C   UNL     1       0.635   5.457  -8.644  0.00  0.00    +0.091 A 
ATOM     23  C   UNL     1       1.636   4.496  -8.557  0.00  0.00    +0.021 A 
ATOM     24  C   UNL     1       2.025   3.969  -7.333  0.00  0.00    +0.038 A 
BRANCH  22  25
ATOM     25  N   UNL     1       0.758   6.470  -9.624  0.00  0.00    -0.101 NA
BRANCH  25  26
ATOM     26  S   UNL     1       0.242   6.279 -11.247  0.00  0.00    +0.075 S 
ATOM     27  O   UNL     1      -0.366   4.942 -11.518  0.00  0.00    -0.153 OA
ATOM     28  O   UNL     1      -0.815   7.321 -11.510  0.00  0.00    -0.153 OA
ATOM     29  C   UNL     1       1.557   6.541 -12.403  0.00  0.00    +0.202 C 
ENDBRANCH  25  26
ENDBRANCH  22  25
ENDBRANCH  18  19
ENDBRANCH  17  18
ENDBRANCH  16  17
ENDBRANCH   2  16
TORSDOF 11
ENDMDL
MODEL 7
REMARK VINA RESULT:      -6.9      1.837      2.535
REMARK  Name = 
REMARK  11 active torsions:
REMARK  status: ('A' for Active; 'I' for Inactive)
REMARK    1  A    between atoms: N_2  and  C_3
REMARK    2  A    between atoms: N_2  and  C_17
REMARK    3  A    between atoms: C_3  and  C_4
REMARK    4  A    between atoms: C_4  and  O_5
REMARK    5  A    between atoms: O_5  and  C_6
REMARK    6  A    between atoms: C_9  and  N_10
REMARK    7  A    between atoms: N_10  and  S_11
REMARK    8  A    between atoms: C_17  and  C_18
REMARK    9  A    between atoms: C_18  and  C_19
REMARK   10  A    between atoms: C_22  and  N_23
REMARK   11  A    between atoms: N_23  and  S_24
REMARK                            x       y       z     vdW  Elec       q    Type
REMARK                         _______ _______ _______ _____ _____    ______ ____
ROOT
ATOM      1  C   UNL     1       4.436   5.475  -7.332  0.00  0.00    +0.090 C 
ATOM      2  N   UNL     1       3.145   5.387  -6.659  0.00  0.00    -0.268 NA
ENDROOT
BRANCH   2   3
ATOM      3  C   UNL     1       3.402   4.893  -5.309  0.00  0.00    +0.077 C 
BRANCH   3   4
ATOM      4  C   UNL     1       4.645   5.523  -4.713  0.00  0.00    +0.044 C 
BRANCH   4   5
ATOM      5  C   UNL     1       4.411   5.829  -3.273  0.00  0.00    -0.021 A 
ATOM      6  C   UNL     1       4.762   7.090  -2.839  0.00  0.00    -0.003 A 
ATOM      7  C   UNL     1       4.817   7.298  -1.466  0.00  0.00    +0.018 A 
ATOM      8  C   UNL     1       4.449   6.330  -0.552  0.00  0.00    +0.091 A 
ATOM      9  C   UNL     1       4.045   5.108  -1.036  0.00  0.00    +0.018 A 
ATOM     10  C   UNL     1       3.826   4.957  -2.395  0.00  0.00    -0.003 A 
BRANCH   8  11
ATOM     11  N   UNL     1       4.129   6.786   0.768  0.00  0.00    -0.101 NA
BRANCH  11  12
ATOM     12  S   UNL     1       2.668   7.678   1.063  0.00  0.00    +0.075 S 
ATOM     13  O   UNL     1       1.500   6.966   0.433  0.00  0.00    -0.153 OA
ATOM     14  O   UNL     1       2.478   7.692   2.563  0.00  0.00    -0.153 OA
ATOM     15  C   UNL     1       2.759   9.323   0.426  0.00  0.00    +0.202 C 
ENDBRANCH  11  12
ENDBRANCH   8  11
ENDBRANCH   4   5
ENDBRANCH   3   4
ENDBRANCH   2   3
BRANCH   2  16
ATOM     16  C   UNL     1       2.412   4.321  -7.335  0.00  0.00    +0.120 C 
BRANCH  16  17
ATOM     17  C   UNL     1       1.124   4.907  -7.896  0.00  0.00    +0.223 C 
BRANCH  17  18
ATOM     18  O   UNL     1       0.061   4.789  -6.976  0.00  0.00    -0.474 OA
BRANCH  18  19
ATOM     19  C   UNL     1      -0.652   5.890  -6.494  0.00  0.00    +0.139 A 
ATOM     20  C   UNL     1      -2.031   5.838  -6.327  0.00  0.00    +0.038 A 
ATOM     21  C   UNL     1      -2.631   6.394  -5.206  0.00  0.00    +0.021 A 
ATOM     22  C   UNL     1      -1.901   7.159  -4.310  0.00  0.00    +0.091 A 
ATOM     23  C   UNL     1      -0.639   7.549  -4.743  0.00  0.00    +0.021 A 
ATOM     24  C   UNL     1      -0.012   6.913  -5.805  0.00  0.00    +0.038 A 
BRANCH  22  25
ATOM     25  N   UNL     1      -2.185   7.216  -2.925  0.00  0.00    -0.101 NA
BRANCH  25  26
ATOM     26  S   UNL     1      -1.715   5.997  -1.815  0.00  0.00    +0.075 S 
ATOM     27  O   UNL     1      -1.679   6.472  -0.400  0.00  0.00    -0.153 OA
ATOM     28  O   UNL     1      -2.738   4.892  -1.899  0.00  0.00    -0.153 OA
ATOM     29  C   UNL     1      -0.137   5.301  -2.213  0.00  0.00    +0.202 C 
ENDBRANCH  25  26
ENDBRANCH  22  25
ENDBRANCH  18  19
ENDBRANCH  17  18
ENDBRANCH  16  17
ENDBRANCH   2  16
TORSDOF 11
ENDMDL
MODEL 8
REMARK VINA RESULT:      -6.8      2.977      6.023
REMARK  Name = 
REMARK  11 active torsions:
REMARK  status: ('A' for Active; 'I' for Inactive)
REMARK    1  A    between atoms: N_2  and  C_3
REMARK    2  A    between atoms: N_2  and  C_17
REMARK    3  A    between atoms: C_3  and  C_4
REMARK    4  A    between atoms: C_4  and  O_5
REMARK    5  A    between atoms: O_5  and  C_6
REMARK    6  A    between atoms: C_9  and  N_10
REMARK    7  A    between atoms: N_10  and  S_11
REMARK    8  A    between atoms: C_17  and  C_18
REMARK    9  A    between atoms: C_18  and  C_19
REMARK   10  A    between atoms: C_22  and  N_23
REMARK   11  A    between atoms: N_23  and  S_24
REMARK                            x       y       z     vdW  Elec       q    Type
REMARK                         _______ _______ _______ _____ _____    ______ ____
ROOT
ATOM      1  C   UNL     1       0.665   5.003  -2.019  0.00  0.00    +0.090 C 
ATOM      2  N   UNL     1       1.345   6.210  -1.563  0.00  0.00    -0.268 NA
ENDROOT
BRANCH   2   3
ATOM      3  C   UNL     1       2.662   5.801  -1.084  0.00  0.00    +0.077 C 
BRANCH   3   4
ATOM      4  C   UNL     1       3.750   6.730  -1.583  0.00  0.00    +0.044 C 
BRANCH   4   5
ATOM      5  C   UNL     1       4.128   6.357  -2.975  0.00  0.00    -0.021 A 
ATOM      6  C   UNL     1       4.435   7.390  -3.835  0.00  0.00    -0.003 A 
ATOM      7  C   UNL     1       4.512   7.089  -5.190  0.00  0.00    +0.018 A 
ATOM      8  C   UNL     1       4.386   5.802  -5.674  0.00  0.00    +0.091 A 
ATOM      9  C   UNL     1       4.142   4.795  -4.769  0.00  0.00    +0.018 A 
ATOM     10  C   UNL     1       4.237   5.065  -3.414  0.00  0.00    -0.003 A 
BRANCH   8  11
ATOM     11  N   UNL     1       4.910   5.558  -6.984  0.00  0.00    -0.101 NA
BRANCH  11  12
ATOM     12  S   UNL     1       3.847   5.427  -8.351  0.00  0.00    +0.075 S 
ATOM     13  O   UNL     1       2.968   4.213  -8.198  0.00  0.00    -0.153 OA
ATOM     14  O   UNL     1       2.976   6.663  -8.329  0.00  0.00    -0.153 OA
ATOM     15  C   UNL     1       4.737   5.313  -9.872  0.00  0.00    +0.202 C 
ENDBRANCH  11  12
ENDBRANCH   8  11
ENDBRANCH   4   5
ENDBRANCH   3   4
ENDBRANCH   2   3
BRANCH   2  16
ATOM     16  C   UNL     1       0.616   6.659  -0.380  0.00  0.00    +0.120 C 
BRANCH  16  17
ATOM     17  C   UNL     1      -0.844   6.262  -0.537  0.00  0.00    +0.223 C 
BRANCH  17  18
ATOM     18  O   UNL     1      -1.594   7.290  -1.146  0.00  0.00    -0.474 OA
BRANCH  18  19
ATOM     19  C   UNL     1      -2.333   7.101  -2.317  0.00  0.00    +0.139 A 
ATOM     20  C   UNL     1      -2.201   7.963  -3.399  0.00  0.00    +0.038 A 
ATOM     21  C   UNL     1      -2.158   7.471  -4.696  0.00  0.00    +0.021 A 
ATOM     22  C   UNL     1      -2.414   6.135  -4.963  0.00  0.00    +0.091 A 
ATOM     23  C   UNL     1      -2.969   5.410  -3.915  0.00  0.00    +0.021 A 
ATOM     24  C   UNL     1      -2.913   5.872  -2.608  0.00  0.00    +0.038 A 
BRANCH  22  25
ATOM     25  N   UNL     1      -1.809   5.425  -6.027  0.00  0.00    -0.101 NA
BRANCH  25  26
ATOM     26  S   UNL     1      -0.126   5.469  -6.352  0.00  0.00    +0.075 S 
ATOM     27  O   UNL     1       0.584   4.220  -5.947  0.00  0.00    -0.153 OA
ATOM     28  O   UNL     1       0.041   5.623  -7.843  0.00  0.00    -0.153 OA
ATOM     29  C   UNL     1       0.671   6.845  -5.576  0.00  0.00    +0.202 C 
ENDBRANCH  25  26
ENDBRANCH  22  25
ENDBRANCH  18  19
ENDBRANCH  17  18
ENDBRANCH  16  17
ENDBRANCH   2  16
TORSDOF 11
ENDMDL
MODEL 9
REMARK VINA RESULT:      -6.7      1.517      5.136
REMARK  Name = 
REMARK  11 active torsions:
REMARK  status: ('A' for Active; 'I' for Inactive)
REMARK    1  A    between atoms: N_2  and  C_3
REMARK    2  A    between atoms: N_2  and  C_17
REMARK    3  A    between atoms: C_3  and  C_4
REMARK    4  A    between atoms: C_4  and  O_5
REMARK    5  A    between atoms: O_5  and  C_6
REMARK    6  A    between atoms: C_9  and  N_10
REMARK    7  A    between atoms: N_10  and  S_11
REMARK    8  A    between atoms: C_17  and  C_18
REMARK    9  A    between atoms: C_18  and  C_19
REMARK   10  A    between atoms: C_22  and  N_23
REMARK   11  A    between atoms: N_23  and  S_24
REMARK                            x       y       z     vdW  Elec       q    Type
REMARK                         _______ _______ _______ _____ _____    ______ ____
ROOT
ATOM      1  C   UNL     1       1.671   5.499 -10.437  0.00  0.00    +0.090 C 
ATOM      2  N   UNL     1       2.535   4.979  -9.384  0.00  0.00    -0.268 NA
ENDROOT
BRANCH   2   3
ATOM      3  C   UNL     1       1.692   4.760  -8.212  0.00  0.00    +0.077 C 
BRANCH   3   4
ATOM      4  C   UNL     1       0.491   5.684  -8.209  0.00  0.00    +0.044 C 
BRANCH   4   5
ATOM      5  C   UNL     1      -0.094   5.741  -6.840  0.00  0.00    -0.021 A 
ATOM      6  C   UNL     1       0.792   5.841  -5.788  0.00  0.00    -0.003 A 
ATOM      7  C   UNL     1       0.292   5.614  -4.511  0.00  0.00    +0.018 A 
ATOM      8  C   UNL     1      -1.048   5.389  -4.267  0.00  0.00    +0.091 A 
ATOM      9  C   UNL     1      -1.903   5.361  -5.343  0.00  0.00    +0.018 A 
ATOM     10  C   UNL     1      -1.439   5.756  -6.587  0.00  0.00    -0.003 A 
BRANCH   8  11
ATOM     11  N   UNL     1      -1.498   5.607  -2.924  0.00  0.00    -0.101 NA
BRANCH  11  12
ATOM     12  S   UNL     1      -2.348   7.061  -2.502  0.00  0.00    +0.075 S 
ATOM     13  O   UNL     1      -2.096   8.119  -3.545  0.00  0.00    -0.153 OA
ATOM     14  O   UNL     1      -3.818   6.710  -2.512  0.00  0.00    -0.153 OA
ATOM     15  C   UNL     1      -1.859   7.676  -0.920  0.00  0.00    +0.202 C 
ENDBRANCH  11  12
ENDBRANCH   8  11
ENDBRANCH   4   5
ENDBRANCH   3   4
ENDBRANCH   2   3
BRANCH   2  16
ATOM     16  C   UNL     1       3.432   6.073  -9.025  0.00  0.00    +0.120 C 
BRANCH  16  17
ATOM     17  C   UNL     1       4.242   5.649  -7.808  0.00  0.00    +0.223 C 
BRANCH  17  18
ATOM     18  O   UNL     1       4.046   6.532  -6.726  0.00  0.00    -0.474 OA
BRANCH  18  19
ATOM     19  C   UNL     1       4.502   6.262  -5.433  0.00  0.00    +0.139 A 
ATOM     20  C   UNL     1       4.900   7.287  -4.581  0.00  0.00    +0.038 A 
ATOM     21  C   UNL     1       4.548   7.269  -3.239  0.00  0.00    +0.021 A 
ATOM     22  C   UNL     1       3.941   6.158  -2.674  0.00  0.00    +0.091 A 
ATOM     23  C   UNL     1       3.964   5.004  -3.447  0.00  0.00    +0.021 A 
ATOM     24  C   UNL     1       4.219   5.053  -4.811  0.00  0.00    +0.038 A 
BRANCH  22  25
ATOM     25  N   UNL     1       3.014   6.237  -1.608  0.00  0.00    -0.101 NA
BRANCH  25  26
ATOM     26  S   UNL     1       3.345   7.034  -0.127  0.00  0.00    +0.075 S 
ATOM     27  O   UNL     1       2.195   7.007   0.825  0.00  0.00    -0.153 OA
ATOM     28  O   UNL     1       4.495   6.310   0.527  0.00  0.00    -0.153 OA
ATOM     29  C   UNL     1       3.835   8.717  -0.367  0.00  0.00    +0.202 C 
ENDBRANCH  25  26
ENDBRANCH  22  25
ENDBRANCH  18  19
ENDBRANCH  17  18
ENDBRANCH  16  17
ENDBRANCH   2  16
TORSDOF 11
ENDMDL
