MODEL 1
REMARK VINA RESULT:      -5.9      0.000      0.000
REMARK  Name = 
REMARK  3 active torsions:
REMARK  status: ('A' for Active; 'I' for Inactive)
REMARK    1  A    between atoms: N_4  and  C_5
REMARK    2  A    between atoms: C_5  and  C_7
REMARK    3  A    between atoms: C_7  and  C_8
REMARK                            x       y       z     vdW  Elec       q    Type
REMARK                         _______ _______ _______ _____ _____    ______ ____
ROOT
ATOM      1  C   UNL     1      -0.047   5.879  -5.192  0.00  0.00    +0.010 A 
ATOM      2  C   UNL     1      -0.982   5.899  -6.217  0.00  0.00    +0.055 A 
ATOM      3 CL   UNL     1      -0.559   5.320  -7.826  0.00  0.00    -0.083 Cl
ATOM      4  C   UNL     1      -2.316   6.201  -5.969  0.00  0.00    +0.011 A 
ATOM      5  C   UNL     1      -2.558   6.845  -4.761  0.00  0.00    +0.002 A 
ATOM      6  C   UNL     1      -1.713   6.637  -3.678  0.00  0.00    +0.011 A 
ATOM      7  C   UNL     1      -0.508   5.978  -3.886  0.00  0.00    +0.055 A 
ATOM      8 CL   UNL     1       0.274   5.113  -2.564  0.00  0.00    -0.083 Cl
ENDROOT
BRANCH   1   9
ATOM      9  C   UNL     1       1.218   5.134  -5.425  0.00  0.00    +0.134 C 
BRANCH   9  10
ATOM     10  C   UNL     1       2.342   6.048  -5.771  0.00  0.00    +0.323 C 
ATOM     11  O   UNL     1       2.974   6.606  -4.823  0.00  0.00    -0.253 OA
BRANCH  10  14
ATOM     12  N   UNL     1       3.519   6.774  -9.160  0.00  0.00    +0.133 NA
ATOM     13  C   UNL     1       2.937   6.996  -7.877  0.00  0.00    +0.532 C 
ATOM     14  N   UNL     1       2.877   5.993  -7.082  0.00  0.00    +0.008 NA
ATOM     15  N   UNL     1       2.074   8.136  -7.772  0.00  0.00    +0.133 NA
ENDBRANCH  10  14
ENDBRANCH   9  10
ENDBRANCH   1   9
TORSDOF 3
ENDMDL
MODEL 2
REMARK VINA RESULT:      -5.8      4.701      7.766
REMARK  Name = 
REMARK  3 active torsions:
REMARK  status: ('A' for Active; 'I' for Inactive)
REMARK    1  A    between atoms: N_4  and  C_5
REMARK    2  A    between atoms: C_5  and  C_7
REMARK    3  A    between atoms: C_7  and  C_8
REMARK                            x       y       z     vdW  Elec       q    Type
REMARK                         _______ _______ _______ _____ _____    ______ ____
ROOT
ATOM      1  C   UNL     1       5.187   5.798 -10.564  0.00  0.00    +0.010 A 
ATOM      2  C   UNL     1       5.994   5.752  -9.435  0.00  0.00    +0.055 A 
ATOM      3 CL   UNL     1       5.375   5.102  -7.919  0.00  0.00    -0.083 Cl
ATOM      4  C   UNL     1       7.350   6.045  -9.508  0.00  0.00    +0.011 A 
ATOM      5  C   UNL     1       7.742   6.743 -10.644  0.00  0.00    +0.002 A 
ATOM      6  C   UNL     1       7.030   6.602 -11.829  0.00  0.00    +0.011 A 
ATOM      7  C   UNL     1       5.801   5.953 -11.799  0.00  0.00    +0.055 A 
ATOM      8 CL   UNL     1       5.174   5.167 -13.246  0.00  0.00    -0.083 Cl
ENDROOT
BRANCH   1   9
ATOM      9  C   UNL     1       3.896   5.063 -10.519  0.00  0.00    +0.134 C 
BRANCH   9  10
ATOM     10  C   UNL     1       2.732   5.980 -10.674  0.00  0.00    +0.323 C 
ATOM     11  O   UNL     1       1.761   5.599 -11.394  0.00  0.00    -0.253 OA
BRANCH  10  14
ATOM     12  N   UNL     1       2.128   8.114  -7.762  0.00  0.00    +0.133 NA
ATOM     13  C   UNL     1       2.194   6.930  -8.555  0.00  0.00    +0.532 C 
ATOM     14  N   UNL     1       2.598   7.057  -9.763  0.00  0.00    +0.008 NA
ATOM     15  N   UNL     1       1.383   5.834  -8.106  0.00  0.00    +0.133 NA
ENDBRANCH  10  14
ENDBRANCH   9  10
ENDBRANCH   1   9
TORSDOF 3
ENDMDL
MODEL 3
REMARK VINA RESULT:      -5.7      3.176      4.516
REMARK  Name = 
REMARK  3 active torsions:
REMARK  status: ('A' for Active; 'I' for Inactive)
REMARK    1  A    between atoms: N_4  and  C_5
REMARK    2  A    between atoms: C_5  and  C_7
REMARK    3  A    between atoms: C_7  and  C_8
REMARK                            x       y       z     vdW  Elec       q    Type
REMARK                         _______ _______ _______ _____ _____    ______ ____
ROOT
ATOM      1  C   UNL     1      -0.173   6.232  -5.201  0.00  0.00    +0.010 A 
ATOM      2  C   UNL     1      -1.424   6.585  -4.713  0.00  0.00    +0.055 A 
ATOM      3 CL   UNL     1      -1.572   7.533  -3.236  0.00  0.00    -0.083 Cl
ATOM      4  C   UNL     1      -2.576   6.363  -5.457  0.00  0.00    +0.011 A 
ATOM      5  C   UNL     1      -2.440   5.444  -6.491  0.00  0.00    +0.002 A 
ATOM      6  C   UNL     1      -1.209   5.264  -7.107  0.00  0.00    +0.011 A 
ATOM      7  C   UNL     1      -0.080   5.830  -6.527  0.00  0.00    +0.055 A 
ATOM      8 CL   UNL     1       1.328   6.220  -7.512  0.00  0.00    -0.083 Cl
ENDROOT
BRANCH   1   9
ATOM      9  C   UNL     1       1.016   6.881  -4.589  0.00  0.00    +0.134 C 
BRANCH   9  10
ATOM     10  C   UNL     1       1.760   5.945  -3.700  0.00  0.00    +0.323 C 
ATOM     11  O   UNL     1       2.570   5.129  -4.233  0.00  0.00    -0.253 OA
BRANCH  10  14
ATOM     12  N   UNL     1       1.340   5.949  -0.063  0.00  0.00    +0.133 NA
ATOM     13  C   UNL     1       1.182   5.543  -1.422  0.00  0.00    +0.532 C 
ATOM     14  N   UNL     1       1.801   6.225  -2.311  0.00  0.00    +0.008 NA
ATOM     15  N   UNL     1       0.020   4.751  -1.705  0.00  0.00    +0.133 NA
ENDBRANCH  10  14
ENDBRANCH   9  10
ENDBRANCH   1   9
TORSDOF 3
ENDMDL
MODEL 4
REMARK VINA RESULT:      -5.7      6.242      7.720
REMARK  Name = 
REMARK  3 active torsions:
REMARK  status: ('A' for Active; 'I' for Inactive)
REMARK    1  A    between atoms: N_4  and  C_5
REMARK    2  A    between atoms: C_5  and  C_7
REMARK    3  A    between atoms: C_7  and  C_8
REMARK                            x       y       z     vdW  Elec       q    Type
REMARK                         _______ _______ _______ _____ _____    ______ ____
ROOT
ATOM      1  C   UNL     1       5.223   6.248 -10.161  0.00  0.00    +0.010 A 
ATOM      2  C   UNL     1       6.373   6.801 -10.707  0.00  0.00    +0.055 A 
ATOM      3 CL   UNL     1       6.266   8.025 -11.969  0.00  0.00    -0.083 Cl
ATOM      4  C   UNL     1       7.624   6.545 -10.159  0.00  0.00    +0.011 A 
ATOM      5  C   UNL     1       7.685   5.435  -9.324  0.00  0.00    +0.002 A 
ATOM      6  C   UNL     1       6.558   5.029  -8.621  0.00  0.00    +0.011 A 
ATOM      7  C   UNL     1       5.329   5.592  -8.942  0.00  0.00    +0.055 A 
ATOM      8 CL   UNL     1       4.038   5.656  -7.744  0.00  0.00    -0.083 Cl
ENDROOT
BRANCH   1   9
ATOM      9  C   UNL     1       3.924   6.893 -10.489  0.00  0.00    +0.134 C 
BRANCH   9  10
ATOM     10  C   UNL     1       3.053   5.999 -11.302  0.00  0.00    +0.323 C 
ATOM     11  O   UNL     1       2.219   5.262 -10.696  0.00  0.00    -0.253 OA
BRANCH  10  14
ATOM     12  N   UNL     1       3.300   5.928 -14.954  0.00  0.00    +0.133 NA
ATOM     13  C   UNL     1       3.526   5.552 -13.597  0.00  0.00    +0.532 C 
ATOM     14  N   UNL     1       2.943   6.248 -12.693  0.00  0.00    +0.008 NA
ATOM     15  N   UNL     1       4.708   4.777 -13.353  0.00  0.00    +0.133 NA
ENDBRANCH  10  14
ENDBRANCH   9  10
ENDBRANCH   1   9
TORSDOF 3
ENDMDL
MODEL 5
REMARK VINA RESULT:      -5.7      3.288      5.445
REMARK  Name = 
REMARK  3 active torsions:
REMARK  status: ('A' for Active; 'I' for Inactive)
REMARK    1  A    between atoms: N_4  and  C_5
REMARK    2  A    between atoms: C_5  and  C_7
REMARK    3  A    between atoms: C_7  and  C_8
REMARK                            x       y       z     vdW  Elec       q    Type
REMARK                         _______ _______ _______ _____ _____    ______ ____
ROOT
ATOM      1  C   UNL     1       1.708   5.727  -6.288  0.00  0.00    +0.010 A 
ATOM      2  C   UNL     1       3.089   5.583  -6.294  0.00  0.00    +0.055 A 
ATOM      3 CL   UNL     1       3.907   4.744  -4.979  0.00  0.00    -0.083 Cl
ATOM      4  C   UNL     1       3.843   5.929  -7.409  0.00  0.00    +0.011 A 
ATOM      5  C   UNL     1       3.202   6.764  -8.316  0.00  0.00    +0.002 A 
ATOM      6  C   UNL     1       1.819   6.733  -8.437  0.00  0.00    +0.011 A 
ATOM      7  C   UNL     1       1.079   6.042  -7.484  0.00  0.00    +0.055 A 
ATOM      8 CL   UNL     1      -0.514   5.403  -7.886  0.00  0.00    -0.083 Cl
ENDROOT
BRANCH   1   9
ATOM      9  C   UNL     1       0.937   4.946  -5.285  0.00  0.00    +0.134 C 
BRANCH   9  10
ATOM     10  C   UNL     1       0.256   5.833  -4.299  0.00  0.00    +0.323 C 
ATOM     11  O   UNL     1       0.721   6.999  -4.121  0.00  0.00    -0.253 OA
BRANCH  10  14
ATOM     12  N   UNL     1      -2.742   4.983  -2.379  0.00  0.00    +0.133 NA
ATOM     13  C   UNL     1      -1.381   5.318  -2.644  0.00  0.00    +0.532 C 
ATOM     14  N   UNL     1      -1.049   5.484  -3.870  0.00  0.00    +0.008 NA
ATOM     15  N   UNL     1      -0.444   4.981  -1.612  0.00  0.00    +0.133 NA
ENDBRANCH  10  14
ENDBRANCH   9  10
ENDBRANCH   1   9
TORSDOF 3
ENDMDL
MODEL 6
REMARK VINA RESULT:      -5.6      4.295      5.527
REMARK  Name = 
REMARK  3 active torsions:
REMARK  status: ('A' for Active; 'I' for Inactive)
REMARK    1  A    between atoms: N_4  and  C_5
REMARK    2  A    between atoms: C_5  and  C_7
REMARK    3  A    between atoms: C_7  and  C_8
REMARK                            x       y       z     vdW  Elec       q    Type
REMARK                         _______ _______ _______ _____ _____    ______ ____
ROOT
ATOM      1  C   UNL     1       3.157   5.908  -9.126  0.00  0.00    +0.010 A 
ATOM      2  C   UNL     1       1.784   5.829  -9.312  0.00  0.00    +0.055 A 
ATOM      3 CL   UNL     1       1.119   5.086 -10.764  0.00  0.00    -0.083 Cl
ATOM      4  C   UNL     1       0.900   6.163  -8.294  0.00  0.00    +0.011 A 
ATOM      5  C   UNL     1       1.444   6.928  -7.269  0.00  0.00    +0.002 A 
ATOM      6  C   UNL     1       2.796   6.827  -6.966  0.00  0.00    +0.011 A 
ATOM      7  C   UNL     1       3.630   6.143  -7.842  0.00  0.00    +0.055 A 
ATOM      8 CL   UNL     1       5.125   5.412  -7.262  0.00  0.00    -0.083 Cl
ENDROOT
BRANCH   1   9
ATOM      9  C   UNL     1       4.025   5.135 -10.053  0.00  0.00    +0.134 C 
BRANCH   9  10
ATOM     10  C   UNL     1       4.927   6.024 -10.837  0.00  0.00    +0.323 C 
ATOM     11  O   UNL     1       4.680   7.268 -10.849  0.00  0.00    -0.253 OA
BRANCH  10  14
ATOM     12  N   UNL     1       7.818   4.760 -12.693  0.00  0.00    +0.133 NA
ATOM     13  C   UNL     1       6.500   5.250 -12.454  0.00  0.00    +0.532 C 
ATOM     14  N   UNL     1       6.188   5.518 -11.240  0.00  0.00    +0.008 NA
ATOM     15  N   UNL     1       5.531   4.955 -13.469  0.00  0.00    +0.133 NA
ENDBRANCH  10  14
ENDBRANCH   9  10
ENDBRANCH   1   9
TORSDOF 3
ENDMDL
MODEL 7
REMARK VINA RESULT:      -5.6      3.801      4.797
REMARK  Name = 
REMARK  3 active torsions:
REMARK  status: ('A' for Active; 'I' for Inactive)
REMARK    1  A    between atoms: N_4  and  C_5
REMARK    2  A    between atoms: C_5  and  C_7
REMARK    3  A    between atoms: C_7  and  C_8
REMARK                            x       y       z     vdW  Elec       q    Type
REMARK                         _______ _______ _______ _____ _____    ______ ____
ROOT
ATOM      1  C   UNL     1      -0.720   5.899  -4.463  0.00  0.00    +0.010 A 
ATOM      2  C   UNL     1      -2.051   5.955  -4.851  0.00  0.00    +0.055 A 
ATOM      3 CL   UNL     1      -3.294   6.466  -3.714  0.00  0.00    -0.083 Cl
ATOM      4  C   UNL     1      -2.420   5.787  -6.180  0.00  0.00    +0.011 A 
ATOM      5  C   UNL     1      -1.459   5.187  -6.987  0.00  0.00    +0.002 A 
ATOM      6  C   UNL     1      -0.110   5.329  -6.686  0.00  0.00    +0.011 A 
ATOM      7  C   UNL     1       0.250   5.865  -5.456  0.00  0.00    +0.055 A 
ATOM      8 CL   UNL     1       1.805   6.670  -5.255  0.00  0.00    -0.083 Cl
ENDROOT
BRANCH   1   9
ATOM      9  C   UNL     1      -0.355   6.515  -3.160  0.00  0.00    +0.134 C 
BRANCH   9  10
ATOM     10  C   UNL     1      -0.134   5.487  -2.105  0.00  0.00    +0.323 C 
ATOM     11  O   UNL     1      -1.149   4.921  -1.599  0.00  0.00    -0.253 OA
BRANCH  10  14
ATOM     12  N   UNL     1       3.196   4.510  -0.941  0.00  0.00    +0.133 NA
ATOM     13  C   UNL     1       1.919   5.145  -0.941  0.00  0.00    +0.532 C 
ATOM     14  N   UNL     1       1.165   4.942  -1.957  0.00  0.00    +0.008 NA
ATOM     15  N   UNL     1       1.789   6.284  -0.079  0.00  0.00    +0.133 NA
ENDBRANCH  10  14
ENDBRANCH   9  10
ENDBRANCH   1   9
TORSDOF 3
ENDMDL
MODEL 8
REMARK VINA RESULT:      -5.5      5.999      8.070
REMARK  Name = 
REMARK  3 active torsions:
REMARK  status: ('A' for Active; 'I' for Inactive)
REMARK    1  A    between atoms: N_4  and  C_5
REMARK    2  A    between atoms: C_5  and  C_7
REMARK    3  A    between atoms: C_7  and  C_8
REMARK                            x       y       z     vdW  Elec       q    Type
REMARK                         _______ _______ _______ _____ _____    ______ ____
ROOT
ATOM      1  C   UNL     1       5.219   5.826 -10.647  0.00  0.00    +0.010 A 
ATOM      2  C   UNL     1       5.994   5.762  -9.498  0.00  0.00    +0.055 A 
ATOM      3 CL   UNL     1       5.327   5.105  -8.005  0.00  0.00    -0.083 Cl
ATOM      4  C   UNL     1       7.355   6.040  -9.531  0.00  0.00    +0.011 A 
ATOM      5  C   UNL     1       7.784   6.743 -10.650  0.00  0.00    +0.002 A 
ATOM      6  C   UNL     1       7.104   6.621 -11.854  0.00  0.00    +0.011 A 
ATOM      7  C   UNL     1       5.868   5.985 -11.864  0.00  0.00    +0.055 A 
ATOM      8 CL   UNL     1       5.272   5.219 -13.335  0.00  0.00    -0.083 Cl
ENDROOT
BRANCH   1   9
ATOM      9  C   UNL     1       3.919   5.105 -10.645  0.00  0.00    +0.134 C 
BRANCH   9  10
ATOM     10  C   UNL     1       2.764   6.046 -10.668  0.00  0.00    +0.323 C 
ATOM     11  O   UNL     1       2.497   6.693  -9.611  0.00  0.00    -0.253 OA
BRANCH  10  14
ATOM     12  N   UNL     1       0.682   6.627 -13.622  0.00  0.00    +0.133 NA
ATOM     13  C   UNL     1       1.062   6.142 -12.336  0.00  0.00    +0.532 C 
ATOM     14  N   UNL     1       2.240   6.437 -11.925  0.00  0.00    +0.008 NA
ATOM     15  N   UNL     1       0.316   5.020 -11.846  0.00  0.00    +0.133 NA
ENDBRANCH  10  14
ENDBRANCH   9  10
ENDBRANCH   1   9
TORSDOF 3
ENDMDL
MODEL 9
REMARK VINA RESULT:      -5.5      2.390      3.369
REMARK  Name = 
REMARK  3 active torsions:
REMARK  status: ('A' for Active; 'I' for Inactive)
REMARK    1  A    between atoms: N_4  and  C_5
REMARK    2  A    between atoms: C_5  and  C_7
REMARK    3  A    between atoms: C_7  and  C_8
REMARK                            x       y       z     vdW  Elec       q    Type
REMARK                         _______ _______ _______ _____ _____    ______ ____
ROOT
ATOM      1  C   UNL     1      -1.078   6.031  -4.461  0.00  0.00    +0.010 A 
ATOM      2  C   UNL     1      -0.437   5.615  -3.303  0.00  0.00    +0.055 A 
ATOM      3 CL   UNL     1       1.313   5.413  -3.273  0.00  0.00    -0.083 Cl
ATOM      4  C   UNL     1      -1.119   5.520  -2.096  0.00  0.00    +0.011 A 
ATOM      5  C   UNL     1      -2.505   5.480  -2.206  0.00  0.00    +0.002 A 
ATOM      6  C   UNL     1      -3.137   6.095  -3.278  0.00  0.00    +0.011 A 
ATOM      7  C   UNL     1      -2.367   6.535  -4.348  0.00  0.00    +0.055 A 
ATOM      8 CL   UNL     1      -2.938   7.848  -5.377  0.00  0.00    -0.083 Cl
ENDROOT
BRANCH   1   9
ATOM      9  C   UNL     1      -0.233   6.534  -5.576  0.00  0.00    +0.134 C 
BRANCH   9  10
ATOM     10  C   UNL     1      -0.116   5.535  -6.674  0.00  0.00    +0.323 C 
ATOM     11  O   UNL     1      -1.180   5.031  -7.142  0.00  0.00    -0.253 OA
BRANCH  10  14
ATOM     12  N   UNL     1       3.093   4.500  -8.101  0.00  0.00    +0.133 NA
ATOM     13  C   UNL     1       1.899   4.436  -7.322  0.00  0.00    +0.532 C 
ATOM     14  N   UNL     1       1.113   5.446  -7.375  0.00  0.00    +0.008 NA
ATOM     15  N   UNL     1       1.916   3.508  -6.230  0.00  0.00    +0.133 NA
ENDBRANCH  10  14
ENDBRANCH   9  10
ENDBRANCH   1   9
TORSDOF 3
ENDMDL
