MODEL 1
REMARK VINA RESULT:      -7.7      0.000      0.000
REMARK  Name = 
REMARK  4 active torsions:
REMARK  status: ('A' for Active; 'I' for Inactive)
REMARK    1  A    between atoms: S_2  and  C_3
REMARK    2  A    between atoms: N_9  and  C_10
REMARK    3  A    between atoms: C_10  and  C_11
REMARK    4  A    between atoms: C_11  and  C_12
REMARK                            x       y       z     vdW  Elec       q    Type
REMARK                         _______ _______ _______ _____ _____    ______ ____
ROOT
ATOM      1  C   UNL     1      -1.378   5.838  -3.457  0.00  0.00    +0.027 A 
ATOM      2  C   UNL     1      -0.294   5.482  -4.230  0.00  0.00    +0.021 A 
ATOM      3  C   UNL     1       0.930   5.347  -3.584  0.00  0.00    +0.058 A 
ATOM      4  N   UNL     1       2.098   5.327  -4.394  0.00  0.00    -0.286 N 
ATOM      5  C   UNL     1       3.378   5.725  -3.948  0.00  0.00    +0.058 A 
ATOM      6  C   UNL     1       3.656   6.210  -2.691  0.00  0.00    +0.043 A 
ATOM      7  S   UNL     1       2.568   5.630  -1.385  0.00  0.00    -0.084 S 
ATOM      8  C   UNL     1       4.551   7.232  -2.523  0.00  0.00    +0.008 A 
ATOM      9  C   UNL     1       5.438   7.537  -3.547  0.00  0.00    +0.001 A 
ATOM     10  C   UNL     1       5.399   6.806  -4.720  0.00  0.00    +0.001 A 
ATOM     11  C   UNL     1       4.404   5.848  -4.878  0.00  0.00    +0.015 A 
ATOM     12  C   UNL     1       1.024   5.230  -2.213  0.00  0.00    +0.043 A 
ATOM     13  C   UNL     1      -0.125   5.245  -1.486  0.00  0.00    +0.008 A 
ATOM     14  C   UNL     1      -1.343   5.402  -2.138  0.00  0.00    +0.007 A 
ENDROOT
BRANCH   1  16
ATOM     15  C   UNL     1      -1.941   8.429  -4.546  0.00  0.00    +0.074 C 
ATOM     16  S   UNL     1      -2.690   6.896  -4.051  0.00  0.00    -0.113 S 
ENDBRANCH   1  16
BRANCH   4  17
ATOM     17  C   UNL     1       2.068   4.559  -5.640  0.00  0.00    +0.097 C 
BRANCH  17  18
ATOM     18  C   UNL     1       1.683   5.563  -6.707  0.00  0.00    +0.038 C 
BRANCH  18  19
ATOM     19  C   UNL     1       2.771   5.236  -7.937  0.00  0.00    +0.059 C 
ATOM     20  N   UNL     1       2.590   6.666  -8.606  0.00  0.00    -0.273 NA
ATOM     21  C   UNL     1       2.289   7.621  -7.685  0.00  0.00    +0.090 C 
ATOM     22  C   UNL     1       2.174   6.582  -9.899  0.00  0.00    +0.072 C 
ATOM     23  C   UNL     1       0.651   6.459  -9.928  0.00  0.00    +0.017 C 
ATOM     24  C   UNL     1       0.410   5.453  -8.804  0.00  0.00    +0.003 C 
ATOM     25  C   UNL     1       1.578   4.517  -8.864  0.00  0.00    +0.016 C 
ENDBRANCH  18  19
ENDBRANCH  17  18
ENDBRANCH   4  17
TORSDOF 4
ENDMDL
MODEL 2
REMARK VINA RESULT:      -7.7      3.557      6.000
REMARK  Name = 
REMARK  4 active torsions:
REMARK  status: ('A' for Active; 'I' for Inactive)
REMARK    1  A    between atoms: S_2  and  C_3
REMARK    2  A    between atoms: N_9  and  C_10
REMARK    3  A    between atoms: C_10  and  C_11
REMARK    4  A    between atoms: C_11  and  C_12
REMARK                            x       y       z     vdW  Elec       q    Type
REMARK                         _______ _______ _______ _____ _____    ______ ____
ROOT
ATOM      1  C   UNL     1       0.936   5.986 -11.449  0.00  0.00    +0.027 A 
ATOM      2  C   UNL     1       2.058   5.577 -10.761  0.00  0.00    +0.021 A 
ATOM      3  C   UNL     1       1.912   5.321  -9.402  0.00  0.00    +0.058 A 
ATOM      4  N   UNL     1       3.096   5.242  -8.621  0.00  0.00    -0.286 N 
ATOM      5  C   UNL     1       3.152   5.520  -7.237  0.00  0.00    +0.058 A 
ATOM      6  C   UNL     1       2.083   5.931  -6.475  0.00  0.00    +0.043 A 
ATOM      7  S   UNL     1       0.472   5.387  -7.053  0.00  0.00    -0.084 S 
ATOM      8  C   UNL     1       2.249   6.872  -5.495  0.00  0.00    +0.008 A 
ATOM      9  C   UNL     1       3.526   7.148  -5.023  0.00  0.00    +0.001 A 
ATOM     10  C   UNL     1       4.607   6.469  -5.554  0.00  0.00    +0.001 A 
ATOM     11  C   UNL     1       4.394   5.600  -6.618  0.00  0.00    +0.015 A 
ATOM     12  C   UNL     1       0.673   5.143  -8.822  0.00  0.00    +0.043 A 
ATOM     13  C   UNL     1      -0.427   5.219  -9.616  0.00  0.00    +0.008 A 
ATOM     14  C   UNL     1      -0.272   5.496 -10.970  0.00  0.00    +0.007 A 
ENDROOT
BRANCH   1  16
ATOM     15  C   UNL     1       1.760   6.352 -14.170  0.00  0.00    +0.074 C 
ATOM     16  S   UNL     1       0.994   7.167 -12.790  0.00  0.00    -0.113 S 
ENDBRANCH   1  16
BRANCH   4  17
ATOM     17  C   UNL     1       4.249   4.529  -9.173  0.00  0.00    +0.097 C 
BRANCH  17  18
ATOM     18  C   UNL     1       5.245   5.614  -9.527  0.00  0.00    +0.038 C 
BRANCH  18  19
ATOM     19  C   UNL     1       5.756   5.166 -11.057  0.00  0.00    +0.059 C 
ATOM     20  N   UNL     1       7.170   5.876 -10.896  0.00  0.00    -0.273 NA
ATOM     21  C   UNL     1       7.586   5.886  -9.602  0.00  0.00    +0.090 C 
ATOM     22  C   UNL     1       7.388   6.812 -11.860  0.00  0.00    +0.072 C 
ATOM     23  C   UNL     1       6.759   8.135 -11.424  0.00  0.00    +0.017 C 
ATOM     24  C   UNL     1       5.415   7.661 -10.874  0.00  0.00    +0.003 C 
ATOM     25  C   UNL     1       5.026   6.505 -11.744  0.00  0.00    +0.016 C 
ENDBRANCH  18  19
ENDBRANCH  17  18
ENDBRANCH   4  17
TORSDOF 4
ENDMDL
MODEL 3
REMARK VINA RESULT:      -7.4      2.092      5.921
REMARK  Name = 
REMARK  4 active torsions:
REMARK  status: ('A' for Active; 'I' for Inactive)
REMARK    1  A    between atoms: S_2  and  C_3
REMARK    2  A    between atoms: N_9  and  C_10
REMARK    3  A    between atoms: C_10  and  C_11
REMARK    4  A    between atoms: C_11  and  C_12
REMARK                            x       y       z     vdW  Elec       q    Type
REMARK                         _______ _______ _______ _____ _____    ______ ____
ROOT
ATOM      1  C   UNL     1       1.468   6.238  -7.859  0.00  0.00    +0.027 A 
ATOM      2  C   UNL     1       1.527   5.888  -6.527  0.00  0.00    +0.021 A 
ATOM      3  C   UNL     1       0.333   5.534  -5.909  0.00  0.00    +0.058 A 
ATOM      4  N   UNL     1       0.314   5.512  -4.488  0.00  0.00    -0.286 N 
ATOM      5  C   UNL     1      -0.848   5.705  -3.708  0.00  0.00    +0.058 A 
ATOM      6  C   UNL     1      -2.099   5.970  -4.216  0.00  0.00    +0.043 A 
ATOM      7  S   UNL     1      -2.415   5.322  -5.861  0.00  0.00    -0.084 S 
ATOM      8  C   UNL     1      -2.930   6.858  -3.588  0.00  0.00    +0.008 A 
ATOM      9  C   UNL     1      -2.676   7.216  -2.270  0.00  0.00    +0.001 A 
ATOM     10  C   UNL     1      -1.585   6.671  -1.617  0.00  0.00    +0.001 A 
ATOM     11  C   UNL     1      -0.716   5.855  -2.333  0.00  0.00    +0.015 A 
ATOM     12  C   UNL     1      -0.796   5.210  -6.633  0.00  0.00    +0.043 A 
ATOM     13  C   UNL     1      -0.720   5.237  -7.990  0.00  0.00    +0.008 A 
ATOM     14  C   UNL     1       0.472   5.613  -8.599  0.00  0.00    +0.007 A 
ENDROOT
BRANCH   1  16
ATOM     15  C   UNL     1       3.684   6.678  -9.623  0.00  0.00    +0.074 C 
ATOM     16  S   UNL     1       2.506   7.502  -8.580  0.00  0.00    -0.113 S 
ENDBRANCH   1  16
BRANCH   4  17
ATOM     17  C   UNL     1       1.464   4.941  -3.785  0.00  0.00    +0.097 C 
BRANCH  17  18
ATOM     18  C   UNL     1       2.349   6.126  -3.460  0.00  0.00    +0.038 C 
BRANCH  18  19
ATOM     19  C   UNL     1       3.783   5.402  -2.985  0.00  0.00    +0.059 C 
ATOM     20  N   UNL     1       4.352   6.737  -2.336  0.00  0.00    -0.273 NA
ATOM     21  C   UNL     1       3.357   7.530  -1.855  0.00  0.00    +0.090 C 
ATOM     22  C   UNL     1       5.538   7.113  -2.887  0.00  0.00    +0.072 C 
ATOM     23  C   UNL     1       5.266   7.933  -4.148  0.00  0.00    +0.017 C 
ATOM     24  C   UNL     1       4.152   7.117  -4.801  0.00  0.00    +0.003 C 
ATOM     25  C   UNL     1       4.476   5.690  -4.480  0.00  0.00    +0.016 C 
ENDBRANCH  18  19
ENDBRANCH  17  18
ENDBRANCH   4  17
TORSDOF 4
ENDMDL
MODEL 4
REMARK VINA RESULT:      -7.2      2.026      5.933
REMARK  Name = 
REMARK  4 active torsions:
REMARK  status: ('A' for Active; 'I' for Inactive)
REMARK    1  A    between atoms: S_2  and  C_3
REMARK    2  A    between atoms: N_9  and  C_10
REMARK    3  A    between atoms: C_10  and  C_11
REMARK    4  A    between atoms: C_11  and  C_12
REMARK                            x       y       z     vdW  Elec       q    Type
REMARK                         _______ _______ _______ _____ _____    ______ ____
ROOT
ATOM      1  C   UNL     1       3.731   6.941  -3.187  0.00  0.00    +0.027 A 
ATOM      2  C   UNL     1       2.607   6.402  -3.772  0.00  0.00    +0.021 A 
ATOM      3  C   UNL     1       2.752   5.854  -5.042  0.00  0.00    +0.058 A 
ATOM      4  N   UNL     1       1.567   5.616  -5.790  0.00  0.00    -0.286 N 
ATOM      5  C   UNL     1       1.515   5.585  -7.202  0.00  0.00    +0.058 A 
ATOM      6  C   UNL     1       2.589   5.810  -8.032  0.00  0.00    +0.043 A 
ATOM      7  S   UNL     1       4.195   5.392  -7.345  0.00  0.00    -0.084 S 
ATOM      8  C   UNL     1       2.432   6.516  -9.194  0.00  0.00    +0.008 A 
ATOM      9  C   UNL     1       1.158   6.693  -9.719  0.00  0.00    +0.001 A 
ATOM     10  C   UNL     1       0.070   6.155  -9.055  0.00  0.00    +0.001 A 
ATOM     11  C   UNL     1       0.275   5.538  -7.827  0.00  0.00    +0.015 A 
ATOM     12  C   UNL     1       3.989   5.542  -5.566  0.00  0.00    +0.043 A 
ATOM     13  C   UNL     1       5.089   5.780  -4.804  0.00  0.00    +0.008 A 
ATOM     14  C   UNL     1       4.936   6.348  -3.544  0.00  0.00    +0.007 A 
ENDROOT
BRANCH   1  16
ATOM     15  C   UNL     1       4.064   7.847  -0.488  0.00  0.00    +0.074 C 
ATOM     16  S   UNL     1       3.683   8.387  -2.137  0.00  0.00    -0.113 S 
ENDBRANCH   1  16
BRANCH   4  17
ATOM     17  C   UNL     1       0.408   5.050  -5.098  0.00  0.00    +0.097 C 
BRANCH  17  18
ATOM     18  C   UNL     1      -0.357   6.250  -4.577  0.00  0.00    +0.038 C 
BRANCH  18  19
ATOM     19  C   UNL     1      -1.889   5.628  -4.310  0.00  0.00    +0.059 C 
ATOM     20  N   UNL     1      -2.496   7.042  -3.910  0.00  0.00    -0.273 NA
ATOM     21  C   UNL     1      -1.864   8.062  -4.549  0.00  0.00    +0.090 C 
ATOM     22  C   UNL     1      -3.037   7.035  -2.661  0.00  0.00    +0.072 C 
ATOM     23  C   UNL     1      -1.935   7.304  -1.637  0.00  0.00    +0.017 C 
ATOM     24  C   UNL     1      -0.810   6.419  -2.169  0.00  0.00    +0.003 C 
ATOM     25  C   UNL     1      -1.497   5.215  -2.737  0.00  0.00    +0.016 C 
ENDBRANCH  18  19
ENDBRANCH  17  18
ENDBRANCH   4  17
TORSDOF 4
ENDMDL
MODEL 5
REMARK VINA RESULT:      -7.2      2.203      3.424
REMARK  Name = 
REMARK  4 active torsions:
REMARK  status: ('A' for Active; 'I' for Inactive)
REMARK    1  A    between atoms: S_2  and  C_3
REMARK    2  A    between atoms: N_9  and  C_10
REMARK    3  A    between atoms: C_10  and  C_11
REMARK    4  A    between atoms: C_11  and  C_12
REMARK                            x       y       z     vdW  Elec       q    Type
REMARK                         _______ _______ _______ _____ _____    ______ ____
ROOT
ATOM      1  C   UNL     1      -1.622   5.874  -3.576  0.00  0.00    +0.027 A 
ATOM      2  C   UNL     1      -0.282   5.736  -3.285  0.00  0.00    +0.021 A 
ATOM      3  C   UNL     1       0.114   5.999  -1.979  0.00  0.00    +0.058 A 
ATOM      4  N   UNL     1       1.502   6.201  -1.745  0.00  0.00    -0.286 N 
ATOM      5  C   UNL     1       2.022   6.968  -0.679  0.00  0.00    +0.058 A 
ATOM      6  C   UNL     1       1.261   7.641   0.249  0.00  0.00    +0.043 A 
ATOM      7  S   UNL     1      -0.361   6.939   0.569  0.00  0.00    -0.084 S 
ATOM      8  C   UNL     1       1.645   8.875   0.699  0.00  0.00    +0.008 A 
ATOM      9  C   UNL     1       2.957   9.292   0.511  0.00  0.00    +0.001 A 
ATOM     10  C   UNL     1       3.849   8.455  -0.132  0.00  0.00    +0.001 A 
ATOM     11  C   UNL     1       3.381   7.257  -0.661  0.00  0.00    +0.015 A 
ATOM     12  C   UNL     1      -0.790   6.059  -0.938  0.00  0.00    +0.043 A 
ATOM     13  C   UNL     1      -2.104   5.848  -1.215  0.00  0.00    +0.008 A 
ATOM     14  C   UNL     1      -2.494   5.607  -2.528  0.00  0.00    +0.007 A 
ENDROOT
BRANCH   1  16
ATOM     15  C   UNL     1      -1.553   5.411  -6.404  0.00  0.00    +0.074 C 
ATOM     16  S   UNL     1      -2.219   6.478  -5.149  0.00  0.00    -0.113 S 
ENDBRANCH   1  16
BRANCH   4  17
ATOM     17  C   UNL     1       2.458   5.323  -2.422  0.00  0.00    +0.097 C 
BRANCH  17  18
ATOM     18  C   UNL     1       2.864   6.080  -3.670  0.00  0.00    +0.038 C 
BRANCH  18  19
ATOM     19  C   UNL     1       3.588   4.894  -4.605  0.00  0.00    +0.059 C 
ATOM     20  N   UNL     1       4.492   5.937  -5.396  0.00  0.00    -0.273 NA
ATOM     21  C   UNL     1       4.801   7.019  -4.632  0.00  0.00    +0.090 C 
ATOM     22  C   UNL     1       4.281   5.886  -6.740  0.00  0.00    +0.072 C 
ATOM     23  C   UNL     1       3.086   6.769  -7.093  0.00  0.00    +0.017 C 
ATOM     24  C   UNL     1       2.103   6.402  -5.982  0.00  0.00    +0.003 C 
ATOM     25  C   UNL     1       2.341   4.946  -5.719  0.00  0.00    +0.016 C 
ENDBRANCH  18  19
ENDBRANCH  17  18
ENDBRANCH   4  17
TORSDOF 4
ENDMDL
MODEL 6
REMARK VINA RESULT:      -7.1      2.497      6.336
REMARK  Name = 
REMARK  4 active torsions:
REMARK  status: ('A' for Active; 'I' for Inactive)
REMARK    1  A    between atoms: S_2  and  C_3
REMARK    2  A    between atoms: N_9  and  C_10
REMARK    3  A    between atoms: C_10  and  C_11
REMARK    4  A    between atoms: C_11  and  C_12
REMARK                            x       y       z     vdW  Elec       q    Type
REMARK                         _______ _______ _______ _____ _____    ______ ____
ROOT
ATOM      1  C   UNL     1       4.067   6.289  -5.391  0.00  0.00    +0.027 A 
ATOM      2  C   UNL     1       2.847   5.842  -5.850  0.00  0.00    +0.021 A 
ATOM      3  C   UNL     1       2.783   5.417  -7.172  0.00  0.00    +0.058 A 
ATOM      4  N   UNL     1       1.493   5.287  -7.755  0.00  0.00    -0.286 N 
ATOM      5  C   UNL     1       1.234   5.396  -9.139  0.00  0.00    +0.058 A 
ATOM      6  C   UNL     1       2.184   5.672 -10.096  0.00  0.00    +0.043 A 
ATOM      7  S   UNL     1       3.854   5.143  -9.697  0.00  0.00    -0.084 S 
ATOM      8  C   UNL     1       1.890   6.492 -11.151  0.00  0.00    +0.008 A 
ATOM      9  C   UNL     1       0.562   6.755 -11.462  0.00  0.00    +0.001 A 
ATOM     10  C   UNL     1      -0.440   6.187 -10.696  0.00  0.00    +0.001 A 
ATOM     11  C   UNL     1      -0.085   5.446  -9.574  0.00  0.00    +0.015 A 
ATOM     12  C   UNL     1       3.916   5.123  -7.901  0.00  0.00    +0.043 A 
ATOM     13  C   UNL     1       5.125   5.254  -7.293  0.00  0.00    +0.008 A 
ATOM     14  C   UNL     1       5.180   5.700  -5.977  0.00  0.00    +0.007 A 
ENDROOT
BRANCH   1  16
ATOM     15  C   UNL     1       3.245   7.203  -2.802  0.00  0.00    +0.074 C 
ATOM     16  S   UNL     1       4.233   7.626  -4.216  0.00  0.00    -0.113 S 
ENDBRANCH   1  16
BRANCH   4  17
ATOM     17  C   UNL     1       0.423   4.690  -6.953  0.00  0.00    +0.097 C 
BRANCH  17  18
ATOM     18  C   UNL     1      -0.338   5.868  -6.380  0.00  0.00    +0.038 C 
BRANCH  18  19
ATOM     19  C   UNL     1      -0.856   5.289  -4.896  0.00  0.00    +0.059 C 
ATOM     20  N   UNL     1      -2.318   5.889  -5.067  0.00  0.00    -0.273 NA
ATOM     21  C   UNL     1      -2.694   5.941  -6.373  0.00  0.00    +0.090 C 
ATOM     22  C   UNL     1      -2.644   6.746  -4.061  0.00  0.00    +0.072 C 
ATOM     23  C   UNL     1      -2.116   8.140  -4.400  0.00  0.00    +0.017 C 
ATOM     24  C   UNL     1      -0.720   7.810  -4.927  0.00  0.00    +0.003 C 
ATOM     25  C   UNL     1      -0.262   6.641  -4.110  0.00  0.00    +0.016 C 
ENDBRANCH  18  19
ENDBRANCH  17  18
ENDBRANCH   4  17
TORSDOF 4
ENDMDL
MODEL 7
REMARK VINA RESULT:      -7.0      2.386      5.158
REMARK  Name = 
REMARK  4 active torsions:
REMARK  status: ('A' for Active; 'I' for Inactive)
REMARK    1  A    between atoms: S_2  and  C_3
REMARK    2  A    between atoms: N_9  and  C_10
REMARK    3  A    between atoms: C_10  and  C_11
REMARK    4  A    between atoms: C_11  and  C_12
REMARK                            x       y       z     vdW  Elec       q    Type
REMARK                         _______ _______ _______ _____ _____    ______ ____
ROOT
ATOM      1  C   UNL     1       3.192   7.295  -1.887  0.00  0.00    +0.027 A 
ATOM      2  C   UNL     1       2.426   7.410  -3.027  0.00  0.00    +0.021 A 
ATOM      3  C   UNL     1       2.607   6.449  -4.014  0.00  0.00    +0.058 A 
ATOM      4  N   UNL     1       2.100   6.739  -5.310  0.00  0.00    -0.286 N 
ATOM      5  C   UNL     1       2.617   6.191  -6.505  0.00  0.00    +0.058 A 
ATOM      6  C   UNL     1       3.693   5.335  -6.575  0.00  0.00    +0.043 A 
ATOM      7  S   UNL     1       3.962   4.318  -5.119  0.00  0.00    -0.084 S 
ATOM      8  C   UNL     1       4.602   5.444  -7.592  0.00  0.00    +0.008 A 
ATOM      9  C   UNL     1       4.264   6.156  -8.736  0.00  0.00    +0.001 A 
ATOM     10  C   UNL     1       3.017   6.746  -8.825  0.00  0.00    +0.001 A 
ATOM     11  C   UNL     1       2.172   6.693  -7.722  0.00  0.00    +0.015 A 
ATOM     12  C   UNL     1       3.247   5.254  -3.762  0.00  0.00    +0.043 A 
ATOM     13  C   UNL     1       3.705   5.022  -2.503  0.00  0.00    +0.008 A 
ATOM     14  C   UNL     1       3.538   5.998  -1.527  0.00  0.00    +0.007 A 
ENDROOT
BRANCH   1  16
ATOM     15  C   UNL     1       2.696   9.009   0.356  0.00  0.00    +0.074 C 
ATOM     16  S   UNL     1       3.818   8.707  -0.988  0.00  0.00    -0.113 S 
ENDBRANCH   1  16
BRANCH   4  17
ATOM     17  C   UNL     1       0.781   7.367  -5.418  0.00  0.00    +0.097 C 
BRANCH  17  18
ATOM     18  C   UNL     1      -0.163   6.408  -4.724  0.00  0.00    +0.038 C 
BRANCH  18  19
ATOM     19  C   UNL     1      -1.188   7.435  -3.887  0.00  0.00    +0.059 C 
ATOM     20  N   UNL     1      -1.600   6.318  -2.832  0.00  0.00    -0.273 NA
ATOM     21  C   UNL     1      -0.596   5.424  -2.625  0.00  0.00    +0.090 C 
ATOM     22  C   UNL     1      -2.942   6.098  -2.812  0.00  0.00    +0.072 C 
ATOM     23  C   UNL     1      -3.300   5.090  -3.904  0.00  0.00    +0.017 C 
ATOM     24  C   UNL     1      -2.457   5.601  -5.071  0.00  0.00    +0.003 C 
ATOM     25  C   UNL     1      -2.454   7.092  -4.925  0.00  0.00    +0.016 C 
ENDBRANCH  18  19
ENDBRANCH  17  18
ENDBRANCH   4  17
TORSDOF 4
ENDMDL
MODEL 8
REMARK VINA RESULT:      -6.9      2.350      6.680
REMARK  Name = 
REMARK  4 active torsions:
REMARK  status: ('A' for Active; 'I' for Inactive)
REMARK    1  A    between atoms: S_2  and  C_3
REMARK    2  A    between atoms: N_9  and  C_10
REMARK    3  A    between atoms: C_10  and  C_11
REMARK    4  A    between atoms: C_11  and  C_12
REMARK                            x       y       z     vdW  Elec       q    Type
REMARK                         _______ _______ _______ _____ _____    ______ ____
ROOT
ATOM      1  C   UNL     1       3.204   5.047  -6.584  0.00  0.00    +0.027 A 
ATOM      2  C   UNL     1       2.588   5.015  -5.353  0.00  0.00    +0.021 A 
ATOM      3  C   UNL     1       1.200   5.088  -5.335  0.00  0.00    +0.058 A 
ATOM      4  N   UNL     1       0.577   5.404  -4.096  0.00  0.00    -0.286 N 
ATOM      5  C   UNL     1      -0.686   6.026  -3.980  0.00  0.00    +0.058 A 
ATOM      6  C   UNL     1      -1.460   6.434  -5.042  0.00  0.00    +0.043 A 
ATOM      7  S   UNL     1      -1.234   5.505  -6.562  0.00  0.00    -0.084 S 
ATOM      8  C   UNL     1      -2.166   7.605  -4.978  0.00  0.00    +0.008 A 
ATOM      9  C   UNL     1      -2.395   8.197  -3.742  0.00  0.00    +0.001 A 
ATOM     10  C   UNL     1      -1.904   7.594  -2.599  0.00  0.00    +0.001 A 
ATOM     11  C   UNL     1      -1.107   6.462  -2.730  0.00  0.00    +0.015 A 
ATOM     12  C   UNL     1       0.441   4.860  -6.464  0.00  0.00    +0.043 A 
ATOM     13  C   UNL     1       1.086   4.552  -7.621  0.00  0.00    +0.008 A 
ATOM     14  C   UNL     1       2.475   4.501  -7.634  0.00  0.00    +0.007 A 
ENDROOT
BRANCH   1  16
ATOM     15  C   UNL     1       5.433   5.193  -8.381  0.00  0.00    +0.074 C 
ATOM     16  S   UNL     1       4.779   5.846  -6.864  0.00  0.00    -0.113 S 
ENDBRANCH   1  16
BRANCH   4  17
ATOM     17  C   UNL     1       1.091   4.775  -2.878  0.00  0.00    +0.097 C 
BRANCH  17  18
ATOM     18  C   UNL     1       1.900   5.857  -2.193  0.00  0.00    +0.038 C 
BRANCH  18  19
ATOM     19  C   UNL     1       2.734   5.007  -1.014  0.00  0.00    +0.059 C 
ATOM     20  N   UNL     1       2.944   6.293  -0.103  0.00  0.00    -0.273 NA
ATOM     21  C   UNL     1       1.928   7.186  -0.246  0.00  0.00    +0.090 C 
ATOM     22  C   UNL     1       4.260   6.545   0.137  0.00  0.00    +0.072 C 
ATOM     23  C   UNL     1       4.831   7.365  -1.019  0.00  0.00    +0.017 C 
ATOM     24  C   UNL     1       4.225   6.647  -2.224  0.00  0.00    +0.003 C 
ATOM     25  C   UNL     1       4.180   5.201  -1.832  0.00  0.00    +0.016 C 
ENDBRANCH  18  19
ENDBRANCH  17  18
ENDBRANCH   4  17
TORSDOF 4
ENDMDL
MODEL 9
REMARK VINA RESULT:      -6.7      3.012      4.795
REMARK  Name = 
REMARK  4 active torsions:
REMARK  status: ('A' for Active; 'I' for Inactive)
REMARK    1  A    between atoms: S_2  and  C_3
REMARK    2  A    between atoms: N_9  and  C_10
REMARK    3  A    between atoms: C_10  and  C_11
REMARK    4  A    between atoms: C_11  and  C_12
REMARK                            x       y       z     vdW  Elec       q    Type
REMARK                         _______ _______ _______ _____ _____    ______ ____
ROOT
ATOM      1  C   UNL     1       0.904   8.440   1.268  0.00  0.00    +0.027 A 
ATOM      2  C   UNL     1       0.833   7.570   0.202  0.00  0.00    +0.021 A 
ATOM      3  C   UNL     1       2.035   7.121  -0.333  0.00  0.00    +0.058 A 
ATOM      4  N   UNL     1       1.993   6.519  -1.620  0.00  0.00    -0.286 N 
ATOM      5  C   UNL     1       3.082   6.495  -2.519  0.00  0.00    +0.058 A 
ATOM      6  C   UNL     1       4.308   7.075  -2.284  0.00  0.00    +0.043 A 
ATOM      7  S   UNL     1       4.781   7.197  -0.555  0.00  0.00    -0.084 S 
ATOM      8  C   UNL     1       4.982   7.709  -3.292  0.00  0.00    +0.008 A 
ATOM      9  C   UNL     1       4.623   7.465  -4.612  0.00  0.00    +0.001 A 
ATOM     10  C   UNL     1       3.588   6.589  -4.883  0.00  0.00    +0.001 A 
ATOM     11  C   UNL     1       2.870   6.053  -3.820  0.00  0.00    +0.015 A 
ATOM     12  C   UNL     1       3.228   7.242   0.348  0.00  0.00    +0.043 A 
ATOM     13  C   UNL     1       3.211   7.817   1.580  0.00  0.00    +0.008 A 
ATOM     14  C   UNL     1       2.007   8.282   2.098  0.00  0.00    +0.007 A 
ENDROOT
BRANCH   1  16
ATOM     15  C   UNL     1      -1.882   9.044   1.566  0.00  0.00    +0.074 C 
ATOM     16  S   UNL     1      -0.262   9.772   1.516  0.00  0.00    -0.113 S 
ENDBRANCH   1  16
BRANCH   4  17
ATOM     17  C   UNL     1       0.900   5.592  -1.921  0.00  0.00    +0.097 C 
BRANCH  17  18
ATOM     18  C   UNL     1       0.053   6.311  -2.951  0.00  0.00    +0.038 C 
BRANCH  18  19
ATOM     19  C   UNL     1      -1.372   5.430  -2.940  0.00  0.00    +0.059 C 
ATOM     20  N   UNL     1      -1.509   5.454  -4.524  0.00  0.00    -0.273 NA
ATOM     21  C   UNL     1      -0.295   5.496  -5.136  0.00  0.00    +0.090 C 
ATOM     22  C   UNL     1      -2.678   6.018  -4.932  0.00  0.00    +0.072 C 
ATOM     23  C   UNL     1      -2.505   7.535  -5.000  0.00  0.00    +0.017 C 
ATOM     24  C   UNL     1      -1.741   7.808  -3.705  0.00  0.00    +0.003 C 
ATOM     25  C   UNL     1      -2.281   6.817  -2.719  0.00  0.00    +0.016 C 
ENDBRANCH  18  19
ENDBRANCH  17  18
ENDBRANCH   4  17
TORSDOF 4
ENDMDL
