MODEL 1
REMARK VINA RESULT:     -10.8      0.000      0.000
REMARK  Name = 
REMARK  13 active torsions:
REMARK  status: ('A' for Active; 'I' for Inactive)
REMARK    1  A    between atoms: C_2  and  N_5
REMARK    2  A    between atoms: C_6  and  C_8
REMARK    3  A    between atoms: N_17  and  C_18
REMARK    4  A    between atoms: C_18  and  C_19
REMARK    5  A    between atoms: C_19  and  C_21
REMARK    6  A    between atoms: C_21  and  C_22
REMARK    7  A    between atoms: C_21  and  N_29
REMARK    8  A    between atoms: C_22  and  C_23
REMARK    9  A    between atoms: C_30  and  C_32
REMARK   10  A    between atoms: C_32  and  C_33
REMARK   11  A    between atoms: C_32  and  N_37
REMARK   12  A    between atoms: C_33  and  C_34
REMARK   13  A    between atoms: C_38  and  C_40
REMARK                            x       y       z     vdW  Elec       q    Type
REMARK                         _______ _______ _______ _____ _____    ______ ____
ROOT
ATOM      1  C   UNL     1       2.409   6.060  -5.604  0.00  0.00    +0.131 C 
ENDROOT
BRANCH   1   2
ATOM      2  N   UNL     1       1.007   5.401  -5.834  0.00  0.00    -0.203 NA
ATOM      3  C   UNL     1      -0.141   6.024  -5.328  0.00  0.00    +0.262 C 
ATOM      4  O   UNL     1      -0.125   7.290  -5.242  0.00  0.00    -0.271 OA
BRANCH   3   5
ATOM      5  C   UNL     1      -0.782   5.448  -3.954  0.00  0.00    +0.182 C 
BRANCH   5   6
ATOM      6  N   UNL     1      -0.056   6.515  -3.039  0.00  0.00    -0.192 NA
ATOM      7  C   UNL     1       0.054   5.916  -1.738  0.00  0.00    +0.283 C 
ATOM      8  O   UNL     1       0.280   4.675  -1.595  0.00  0.00    -0.267 OA
BRANCH   7   9
ATOM      9  C   UNL     1       0.151   6.699  -0.513  0.00  0.00    +0.136 A 
ATOM     10  N   UNL     1      -0.837   6.806   0.390  0.00  0.00    -0.241 NA
ATOM     11  C   UNL     1      -0.981   7.930   1.132  0.00  0.00    +0.081 A 
ATOM     12  C   UNL     1       0.158   8.696   1.314  0.00  0.00    +0.018 A 
ATOM     13  C   UNL     1       0.083   9.915   1.946  0.00  0.00    +0.001 A 
ATOM     14  C   UNL     1      -1.121  10.286   2.476  0.00  0.00    +0.000 A 
ATOM     15  C   UNL     1      -2.293   9.757   1.956  0.00  0.00    +0.002 A 
ATOM     16  C   UNL     1       1.337   8.338   0.717  0.00  0.00    +0.003 A 
ATOM     17  C   UNL     1      -2.209   8.467   1.453  0.00  0.00    +0.019 A 
ATOM     18  C   UNL     1       1.340   7.326  -0.206  0.00  0.00    +0.024 A 
ENDBRANCH   7   9
ENDBRANCH   5   6
BRANCH   5  19
ATOM     19  C   UNL     1      -2.145   6.364  -4.066  0.00  0.00    +0.120 C 
BRANCH  19  20
ATOM     20  C   UNL     1      -3.101   5.859  -3.080  0.00  0.00    +0.263 C 
ATOM     21  O   UNL     1      -2.940   4.637  -2.769  0.00  0.00    -0.272 OA
ATOM     22  N   UNL     1      -3.532   6.655  -1.968  0.00  0.00    -0.088 NA
ENDBRANCH  19  20
ENDBRANCH   5  19
ENDBRANCH   3   5
ENDBRANCH   1   2
BRANCH   1  23
ATOM     23  C   UNL     1       3.119   5.469  -7.062  0.00  0.00    +0.188 C 
ATOM     24  O   UNL     1       4.524   5.476  -6.492  0.00  0.00    -0.220 OA
BRANCH  23  25
ATOM     25  C   UNL     1       3.314   6.929  -7.776  0.00  0.00    +0.107 C 
BRANCH  25  27
ATOM     26  C   UNL     1       3.592   5.776  -9.828  0.00  0.00    +0.137 C 
ATOM     27  N   UNL     1       2.791   6.916  -9.078  0.00  0.00    -0.264 NA
ATOM     28  C   UNL     1       1.530   6.174  -8.938  0.00  0.00    +0.072 C 
ATOM     29  C   UNL     1       1.453   5.134 -10.180  0.00  0.00    +0.016 C 
ATOM     30  C   UNL     1       1.604   6.388 -11.312  0.00  0.00    +0.003 C 
ATOM     31  C   UNL     1       1.614   5.369 -12.576  0.00  0.00    +0.000 C 
ATOM     32  C   UNL     1       0.572   4.335 -12.366  0.00  0.00    +0.000 C 
ATOM     33  C   UNL     1      -0.585   4.947 -11.633  0.00  0.00    +0.000 C 
ATOM     34  C   UNL     1      -0.167   5.192 -10.217  0.00  0.00    +0.001 C 
ATOM     35  C   UNL     1       3.224   6.441 -11.288  0.00  0.00    +0.025 C 
BRANCH  26  37
ATOM     36  N   UNL     1       5.273   7.449 -10.806  0.00  0.00    -0.208 NA
ATOM     37  C   UNL     1       5.040   6.500  -9.754  0.00  0.00    +0.256 C 
ATOM     38  O   UNL     1       5.871   5.534  -9.811  0.00  0.00    -0.272 OA
BRANCH  36  40
ATOM     39  C   UNL     1       6.510   7.905 -11.458  0.00  0.00    +0.022 C 
ATOM     40  C   UNL     1       6.528   7.572 -11.437  0.00  0.00    +0.079 C 
ATOM     41  C   UNL     1       7.737   7.615 -10.629  0.00  0.00    +0.022 C 
ATOM     42  C   UNL     1       6.616   7.096 -12.836  0.00  0.00    +0.022 C 
ENDBRANCH  36  40
ENDBRANCH  26  37
ENDBRANCH  25  27
ENDBRANCH  23  25
ENDBRANCH   1  23
BRANCH   1  43
ATOM     43  C   UNL     1       2.934   4.806  -4.714  0.00  0.00    +0.051 C 
BRANCH  43  44
ATOM     44  C   UNL     1       3.514   5.233  -3.481  0.00  0.00    -0.020 A 
ATOM     45  C   UNL     1       3.899   4.631  -2.334  0.00  0.00    -0.004 A 
ATOM     46  C   UNL     1       4.088   5.291  -1.128  0.00  0.00    -0.000 A 
ATOM     47  C   UNL     1       4.531   6.593  -1.228  0.00  0.00    -0.000 A 
ATOM     48  C   UNL     1       4.303   7.271  -2.415  0.00  0.00    -0.000 A 
ATOM     49  C   UNL     1       3.700   6.617  -3.446  0.00  0.00    -0.004 A 
ENDBRANCH  43  44
ENDBRANCH   1  43
TORSDOF 13
ENDMDL
MODEL 2
REMARK VINA RESULT:     -10.7      1.344      3.283
REMARK  Name = 
REMARK  13 active torsions:
REMARK  status: ('A' for Active; 'I' for Inactive)
REMARK    1  A    between atoms: C_2  and  N_5
REMARK    2  A    between atoms: C_6  and  C_8
REMARK    3  A    between atoms: N_17  and  C_18
REMARK    4  A    between atoms: C_18  and  C_19
REMARK    5  A    between atoms: C_19  and  C_21
REMARK    6  A    between atoms: C_21  and  C_22
REMARK    7  A    between atoms: C_21  and  N_29
REMARK    8  A    between atoms: C_22  and  C_23
REMARK    9  A    between atoms: C_30  and  C_32
REMARK   10  A    between atoms: C_32  and  C_33
REMARK   11  A    between atoms: C_32  and  N_37
REMARK   12  A    between atoms: C_33  and  C_34
REMARK   13  A    between atoms: C_38  and  C_40
REMARK                            x       y       z     vdW  Elec       q    Type
REMARK                         _______ _______ _______ _____ _____    ______ ____
ROOT
ATOM      1  C   UNL     1       2.917   5.802  -4.998  0.00  0.00    +0.131 C 
ENDROOT
BRANCH   1   2
ATOM      2  N   UNL     1       1.543   5.155  -5.379  0.00  0.00    -0.203 NA
ATOM      3  C   UNL     1       0.353   5.826  -5.070  0.00  0.00    +0.262 C 
ATOM      4  O   UNL     1       0.389   7.094  -5.055  0.00  0.00    -0.271 OA
BRANCH   3   5
ATOM      5  C   UNL     1      -0.482   5.343  -3.767  0.00  0.00    +0.182 C 
BRANCH   5   6
ATOM      6  N   UNL     1       0.133   6.455  -2.825  0.00  0.00    -0.192 NA
ATOM      7  C   UNL     1       0.164   5.889  -1.505  0.00  0.00    +0.283 C 
ATOM      8  O   UNL     1       0.422   4.660  -1.315  0.00  0.00    -0.267 OA
BRANCH   7   9
ATOM      9  C   UNL     1       0.138   6.700  -0.295  0.00  0.00    +0.136 A 
ATOM     10  N   UNL     1      -0.878   6.710   0.581  0.00  0.00    -0.241 NA
ATOM     11  C   UNL     1      -1.169   7.824   1.295  0.00  0.00    +0.081 A 
ATOM     12  C   UNL     1      -0.131   8.719   1.487  0.00  0.00    +0.018 A 
ATOM     13  C   UNL     1      -0.360   9.933   2.091  0.00  0.00    +0.001 A 
ATOM     14  C   UNL     1      -1.613  10.173   2.584  0.00  0.00    +0.000 A 
ATOM     15  C   UNL     1      -2.702   9.504   2.048  0.00  0.00    +0.002 A 
ATOM     16  C   UNL     1       1.097   8.487   0.927  0.00  0.00    +0.003 A 
ATOM     17  C   UNL     1      -2.459   8.222   1.574  0.00  0.00    +0.019 A 
ATOM     18  C   UNL     1       1.240   7.465   0.027  0.00  0.00    +0.024 A 
ENDBRANCH   7   9
ENDBRANCH   5   6
BRANCH   5  19
ATOM     19  C   UNL     1      -1.798   6.267  -4.119  0.00  0.00    +0.120 C 
BRANCH  19  20
ATOM     20  C   UNL     1      -2.884   5.849  -3.233  0.00  0.00    +0.263 C 
ATOM     21  O   UNL     1      -2.838   4.627  -2.883  0.00  0.00    -0.272 OA
ATOM     22  N   UNL     1      -3.379   6.698  -2.189  0.00  0.00    -0.088 NA
ENDBRANCH  19  20
ENDBRANCH   5  19
ENDBRANCH   3   5
ENDBRANCH   1   2
BRANCH   1  23
ATOM     23  C   UNL     1       3.871   4.809  -6.038  0.00  0.00    +0.188 C 
ATOM     24  O   UNL     1       5.115   4.946  -5.184  0.00  0.00    -0.220 OA
BRANCH  23  25
ATOM     25  C   UNL     1       4.337   6.003  -7.056  0.00  0.00    +0.107 C 
BRANCH  25  27
ATOM     26  C   UNL     1       3.748   6.637  -9.262  0.00  0.00    +0.137 C 
ATOM     27  N   UNL     1       4.434   5.523  -8.370  0.00  0.00    -0.264 NA
ATOM     28  C   UNL     1       5.820   5.831  -8.751  0.00  0.00    +0.072 C 
ATOM     29  C   UNL     1       5.773   6.446 -10.250  0.00  0.00    +0.016 C 
ATOM     30  C   UNL     1       4.989   5.068 -10.853  0.00  0.00    +0.003 C 
ATOM     31  C   UNL     1       4.851   5.689 -12.347  0.00  0.00    +0.000 C 
ATOM     32  C   UNL     1       6.127   6.350 -12.711  0.00  0.00    +0.000 C 
ATOM     33  C   UNL     1       7.264   5.601 -12.083  0.00  0.00    +0.000 C 
ATOM     34  C   UNL     1       7.242   5.863 -10.609  0.00  0.00    +0.001 C 
ATOM     35  C   UNL     1       3.489   5.548 -10.469  0.00  0.00    +0.025 C 
BRANCH  26  37
ATOM     36  N   UNL     1       1.504   5.393  -9.247  0.00  0.00    -0.208 NA
ATOM     37  C   UNL     1       2.258   6.459  -8.651  0.00  0.00    +0.256 C 
ATOM     38  O   UNL     1       1.704   7.589  -8.859  0.00  0.00    -0.272 OA
BRANCH  36  40
ATOM     39  C   UNL     1       0.087   5.189  -9.583  0.00  0.00    +0.022 C 
ATOM     40  C   UNL     1       0.127   5.515  -9.526  0.00  0.00    +0.079 C 
ATOM     41  C   UNL     1      -0.829   5.519  -8.430  0.00  0.00    +0.022 C 
ATOM     42  C   UNL     1      -0.234   6.181 -10.798  0.00  0.00    +0.022 C 
ENDBRANCH  36  40
ENDBRANCH  26  37
ENDBRANCH  25  27
ENDBRANCH  23  25
ENDBRANCH   1  23
BRANCH   1  43
ATOM     43  C   UNL     1       3.104   4.824  -3.715  0.00  0.00    +0.051 C 
BRANCH  43  44
ATOM     44  C   UNL     1       3.695   5.505  -2.606  0.00  0.00    -0.020 A 
ATOM     45  C   UNL     1       4.191   5.143  -1.403  0.00  0.00    -0.004 A 
ATOM     46  C   UNL     1       4.366   6.011  -0.334  0.00  0.00    -0.000 A 
ATOM     47  C   UNL     1       4.670   7.313  -0.674  0.00  0.00    -0.000 A 
ATOM     48  C   UNL     1       4.321   7.757  -1.940  0.00  0.00    -0.000 A 
ATOM     49  C   UNL     1       3.740   6.885  -2.810  0.00  0.00    -0.004 A 
ENDBRANCH  43  44
ENDBRANCH   1  43
TORSDOF 13
ENDMDL
MODEL 3
REMARK VINA RESULT:     -10.0      2.945     11.778
REMARK  Name = 
REMARK  13 active torsions:
REMARK  status: ('A' for Active; 'I' for Inactive)
REMARK    1  A    between atoms: C_2  and  N_5
REMARK    2  A    between atoms: C_6  and  C_8
REMARK    3  A    between atoms: N_17  and  C_18
REMARK    4  A    between atoms: C_18  and  C_19
REMARK    5  A    between atoms: C_19  and  C_21
REMARK    6  A    between atoms: C_21  and  C_22
REMARK    7  A    between atoms: C_21  and  N_29
REMARK    8  A    between atoms: C_22  and  C_23
REMARK    9  A    between atoms: C_30  and  C_32
REMARK   10  A    between atoms: C_32  and  C_33
REMARK   11  A    between atoms: C_32  and  N_37
REMARK   12  A    between atoms: C_33  and  C_34
REMARK   13  A    between atoms: C_38  and  C_40
REMARK                            x       y       z     vdW  Elec       q    Type
REMARK                         _______ _______ _______ _____ _____    ______ ____
ROOT
ATOM      1  C   UNL     1       1.967   6.164  -9.578  0.00  0.00    +0.131 C 
ENDROOT
BRANCH   1   2
ATOM      2  N   UNL     1       3.451   5.828  -9.207  0.00  0.00    -0.203 NA
ATOM      3  C   UNL     1       4.495   6.448  -9.906  0.00  0.00    +0.262 C 
ATOM      4  O   UNL     1       4.281   7.615 -10.355  0.00  0.00    -0.271 OA
BRANCH   3   5
ATOM      5  C   UNL     1       5.244   5.604 -11.070  0.00  0.00    +0.182 C 
BRANCH   5   6
ATOM      6  N   UNL     1       4.692   6.515 -12.239  0.00  0.00    -0.192 NA
ATOM      7  C   UNL     1       4.763   5.720 -13.433  0.00  0.00    +0.283 C 
ATOM      8  O   UNL     1       4.529   4.472 -13.416  0.00  0.00    -0.267 OA
BRANCH   7   9
ATOM      9  C   UNL     1       4.871   6.301 -14.765  0.00  0.00    +0.136 A 
ATOM     10  N   UNL     1       5.951   6.179 -15.553  0.00  0.00    -0.241 NA
ATOM     11  C   UNL     1       6.283   7.153 -16.433  0.00  0.00    +0.081 A 
ATOM     12  C   UNL     1       5.251   7.973 -16.859  0.00  0.00    +0.018 A 
ATOM     13  C   UNL     1       5.513   9.064 -17.654  0.00  0.00    +0.001 A 
ATOM     14  C   UNL     1       6.796   9.242 -18.091  0.00  0.00    +0.000 A 
ATOM     15  C   UNL     1       7.849   8.707 -17.364  0.00  0.00    +0.002 A 
ATOM     16  C   UNL     1       3.987   7.815 -16.357  0.00  0.00    +0.003 A 
ATOM     17  C   UNL     1       7.585   7.526 -16.686  0.00  0.00    +0.019 A 
ATOM     18  C   UNL     1       3.789   6.969 -15.299  0.00  0.00    +0.024 A 
ENDBRANCH   7   9
ENDBRANCH   5   6
BRANCH   5  19
ATOM     19  C   UNL     1       6.642   6.466 -10.962  0.00  0.00    +0.120 C 
BRANCH  19  20
ATOM     20  C   UNL     1       7.753   5.542 -11.192  0.00  0.00    +0.263 C 
ATOM     21  O   UNL     1       8.197   4.980 -10.142  0.00  0.00    -0.272 OA
ATOM     22  N   UNL     1       7.793   4.676 -12.335  0.00  0.00    -0.088 NA
ENDBRANCH  19  20
ENDBRANCH   5  19
ENDBRANCH   3   5
ENDBRANCH   1   2
BRANCH   1  23
ATOM     23  C   UNL     1       1.257   5.218  -8.322  0.00  0.00    +0.188 C 
ATOM     24  O   UNL     1      -0.152   5.401  -8.849  0.00  0.00    -0.220 OA
BRANCH  23  25
ATOM     25  C   UNL     1       1.099   6.437  -7.241  0.00  0.00    +0.107 C 
BRANCH  25  27
ATOM     26  C   UNL     1       1.121   6.887  -4.914  0.00  0.00    +0.137 C 
ATOM     27  N   UNL     1       0.512   5.973  -6.054  0.00  0.00    -0.264 NA
ATOM     28  C   UNL     1      -0.824   6.586  -6.066  0.00  0.00    +0.072 C 
ATOM     29  C   UNL     1      -1.098   7.153  -4.572  0.00  0.00    +0.016 C 
ATOM     30  C   UNL     1      -0.847   5.623  -3.884  0.00  0.00    +0.003 C 
ATOM     31  C   UNL     1      -1.032   6.174  -2.367  0.00  0.00    +0.000 C 
ATOM     32  C   UNL     1      -2.186   7.105  -2.334  0.00  0.00    +0.000 C 
ATOM     33  C   UNL     1      -3.216   6.646  -3.323  0.00  0.00    +0.000 C 
ATOM     34  C   UNL     1      -2.697   6.917  -4.701  0.00  0.00    +0.001 C 
ATOM     35  C   UNL     1       0.766   5.751  -3.777  0.00  0.00    +0.025 C 
BRANCH  26  37
ATOM     36  N   UNL     1       2.931   5.136  -4.424  0.00  0.00    -0.208 NA
ATOM     37  C   UNL     1       2.652   6.381  -5.081  0.00  0.00    +0.256 C 
ATOM     38  O   UNL     1       3.345   7.330  -4.587  0.00  0.00    -0.272 OA
BRANCH  36  40
ATOM     39  C   UNL     1       4.144   4.578  -3.808  0.00  0.00    +0.022 C 
ATOM     40  C   UNL     1       4.144   4.906  -3.743  0.00  0.00    +0.079 C 
ATOM     41  C   UNL     1       5.406   5.119  -4.434  0.00  0.00    +0.022 C 
ATOM     42  C   UNL     1       4.106   5.011  -2.267  0.00  0.00    +0.022 C 
ENDBRANCH  36  40
ENDBRANCH  26  37
ENDBRANCH  25  27
ENDBRANCH  23  25
ENDBRANCH   1  23
BRANCH   1  43
ATOM     43  C   UNL     1       1.892   4.963 -10.670  0.00  0.00    +0.051 C 
BRANCH  43  44
ATOM     44  C   UNL     1       1.332   5.402 -11.909  0.00  0.00    -0.020 A 
ATOM     45  C   UNL     1       0.969   4.812 -13.068  0.00  0.00    -0.004 A 
ATOM     46  C   UNL     1       0.800   5.485 -14.271  0.00  0.00    -0.000 A 
ATOM     47  C   UNL     1       0.352   6.784 -14.163  0.00  0.00    -0.000 A 
ATOM     48  C   UNL     1       0.556   7.450 -12.965  0.00  0.00    -0.000 A 
ATOM     49  C   UNL     1       1.144   6.785 -11.931  0.00  0.00    -0.004 A 
ENDBRANCH  43  44
ENDBRANCH   1  43
TORSDOF 13
ENDMDL
MODEL 4
REMARK VINA RESULT:     -10.0      2.911     12.221
REMARK  Name = 
REMARK  13 active torsions:
REMARK  status: ('A' for Active; 'I' for Inactive)
REMARK    1  A    between atoms: C_2  and  N_5
REMARK    2  A    between atoms: C_6  and  C_8
REMARK    3  A    between atoms: N_17  and  C_18
REMARK    4  A    between atoms: C_18  and  C_19
REMARK    5  A    between atoms: C_19  and  C_21
REMARK    6  A    between atoms: C_21  and  C_22
REMARK    7  A    between atoms: C_21  and  N_29
REMARK    8  A    between atoms: C_22  and  C_23
REMARK    9  A    between atoms: C_30  and  C_32
REMARK   10  A    between atoms: C_32  and  C_33
REMARK   11  A    between atoms: C_32  and  N_37
REMARK   12  A    between atoms: C_33  and  C_34
REMARK   13  A    between atoms: C_38  and  C_40
REMARK                            x       y       z     vdW  Elec       q    Type
REMARK                         _______ _______ _______ _____ _____    ______ ____
ROOT
ATOM      1  C   UNL     1       2.500   6.357  -9.855  0.00  0.00    +0.131 C 
ENDROOT
BRANCH   1   2
ATOM      2  N   UNL     1       3.941   5.805  -9.587  0.00  0.00    -0.203 NA
ATOM      3  C   UNL     1       5.033   6.368 -10.260  0.00  0.00    +0.262 C 
ATOM      4  O   UNL     1       4.953   7.596 -10.570  0.00  0.00    -0.271 OA
BRANCH   3   5
ATOM      5  C   UNL     1       5.635   5.576 -11.540  0.00  0.00    +0.182 C 
BRANCH   5   6
ATOM      6  N   UNL     1       5.027   6.589 -12.591  0.00  0.00    -0.192 NA
ATOM      7  C   UNL     1       4.899   5.859 -13.821  0.00  0.00    +0.283 C 
ATOM      8  O   UNL     1       4.570   4.633 -13.835  0.00  0.00    -0.267 OA
BRANCH   7   9
ATOM      9  C   UNL     1       4.900   6.504 -15.128  0.00  0.00    +0.136 A 
ATOM     10  N   UNL     1       5.959   6.530 -15.952  0.00  0.00    -0.241 NA
ATOM     11  C   UNL     1       6.158   7.571 -16.796  0.00  0.00    +0.081 A 
ATOM     12  C   UNL     1       5.032   8.294 -17.154  0.00  0.00    +0.018 A 
ATOM     13  C   UNL     1       5.151   9.439 -17.906  0.00  0.00    +0.001 A 
ATOM     14  C   UNL     1       6.393   9.771 -18.371  0.00  0.00    +0.000 A 
ATOM     15  C   UNL     1       7.520   9.321 -17.701  0.00  0.00    +0.002 A 
ATOM     16  C   UNL     1       3.809   7.982 -16.622  0.00  0.00    +0.003 A 
ATOM     17  C   UNL     1       7.404   8.090 -17.069  0.00  0.00    +0.019 A 
ATOM     18  C   UNL     1       3.736   7.075 -15.599  0.00  0.00    +0.024 A 
ENDBRANCH   7   9
ENDBRANCH   5   6
BRANCH   5  19
ATOM     19  C   UNL     1       7.077   6.368 -11.502  0.00  0.00    +0.120 C 
BRANCH  19  20
ATOM     20  C   UNL     1       8.113   5.426 -11.927  0.00  0.00    +0.263 C 
ATOM     21  O   UNL     1       7.718   4.551 -12.761  0.00  0.00    -0.272 OA
ATOM     22  N   UNL     1       9.463   5.843 -12.170  0.00  0.00    -0.088 NA
ENDBRANCH  19  20
ENDBRANCH   5  19
ENDBRANCH   3   5
ENDBRANCH   1   2
BRANCH   1  23
ATOM     23  C   UNL     1       1.811   5.761  -8.389  0.00  0.00    +0.188 C 
ATOM     24  O   UNL     1       0.414   5.674  -8.969  0.00  0.00    -0.220 OA
BRANCH  23  25
ATOM     25  C   UNL     1       1.527   7.224  -7.711  0.00  0.00    +0.107 C 
BRANCH  25  27
ATOM     26  C   UNL     1       1.144   6.031  -5.699  0.00  0.00    +0.137 C 
ATOM     27  N   UNL     1       1.928   7.233  -6.367  0.00  0.00    -0.264 NA
ATOM     28  C   UNL     1       3.246   6.582  -6.394  0.00  0.00    +0.072 C 
ATOM     29  C   UNL     1       3.283   5.537  -5.155  0.00  0.00    +0.016 C 
ATOM     30  C   UNL     1       2.940   6.764  -4.035  0.00  0.00    +0.003 C 
ATOM     31  C   UNL     1       2.886   5.731  -2.783  0.00  0.00    +0.000 C 
ATOM     32  C   UNL     1       4.014   4.776  -2.901  0.00  0.00    +0.000 C 
ATOM     33  C   UNL     1       5.187   5.476  -3.521  0.00  0.00    +0.000 C 
ATOM     34  C   UNL     1       4.884   5.708  -4.969  0.00  0.00    +0.001 C 
ATOM     35  C   UNL     1       1.330   6.703  -4.209  0.00  0.00    +0.025 C 
BRANCH  26  37
ATOM     36  N   UNL     1      -0.679   7.673  -4.954  0.00  0.00    -0.208 NA
ATOM     37  C   UNL     1      -0.338   6.652  -5.903  0.00  0.00    +0.256 C 
ATOM     38  O   UNL     1      -1.112   5.644  -5.795  0.00  0.00    -0.272 OA
BRANCH  36  40
ATOM     39  C   UNL     1      -1.958   8.105  -4.370  0.00  0.00    +0.022 C 
ATOM     40  C   UNL     1      -1.969   7.772  -4.392  0.00  0.00    +0.079 C 
ATOM     41  C   UNL     1      -3.132   7.793  -5.266  0.00  0.00    +0.022 C 
ATOM     42  C   UNL     1      -2.124   7.293  -3.000  0.00  0.00    +0.022 C 
ENDBRANCH  36  40
ENDBRANCH  26  37
ENDBRANCH  25  27
ENDBRANCH  23  25
ENDBRANCH   1  23
BRANCH   1  43
ATOM     43  C   UNL     1       2.077   5.044 -10.712  0.00  0.00    +0.051 C 
BRANCH  43  44
ATOM     44  C   UNL     1       1.508   5.392 -11.976  0.00  0.00    -0.020 A 
ATOM     45  C   UNL     1       1.071   4.713 -13.059  0.00  0.00    -0.004 A 
ATOM     46  C   UNL     1       0.909   5.271 -14.320  0.00  0.00    -0.000 A 
ATOM     47  C   UNL     1       0.549   6.602 -14.336  0.00  0.00    -0.000 A 
ATOM     48  C   UNL     1       0.835   7.370 -13.218  0.00  0.00    -0.000 A 
ATOM     49  C   UNL     1       1.410   6.776 -12.136  0.00  0.00    -0.004 A 
ENDBRANCH  43  44
ENDBRANCH   1  43
TORSDOF 13
ENDMDL
MODEL 5
REMARK VINA RESULT:      -9.9      1.372      3.567
REMARK  Name = 
REMARK  13 active torsions:
REMARK  status: ('A' for Active; 'I' for Inactive)
REMARK    1  A    between atoms: C_2  and  N_5
REMARK    2  A    between atoms: C_6  and  C_8
REMARK    3  A    between atoms: N_17  and  C_18
REMARK    4  A    between atoms: C_18  and  C_19
REMARK    5  A    between atoms: C_19  and  C_21
REMARK    6  A    between atoms: C_21  and  C_22
REMARK    7  A    between atoms: C_21  and  N_29
REMARK    8  A    between atoms: C_22  and  C_23
REMARK    9  A    between atoms: C_30  and  C_32
REMARK   10  A    between atoms: C_32  and  C_33
REMARK   11  A    between atoms: C_32  and  N_37
REMARK   12  A    between atoms: C_33  and  C_34
REMARK   13  A    between atoms: C_38  and  C_40
REMARK                            x       y       z     vdW  Elec       q    Type
REMARK                         _______ _______ _______ _____ _____    ______ ____
ROOT
ATOM      1  C   UNL     1       2.728   5.850  -5.526  0.00  0.00    +0.131 C 
ENDROOT
BRANCH   1   2
ATOM      2  N   UNL     1       1.306   5.281  -5.852  0.00  0.00    -0.203 NA
ATOM      3  C   UNL     1       0.169   5.956  -5.388  0.00  0.00    +0.262 C 
ATOM      4  O   UNL     1       0.253   7.216  -5.261  0.00  0.00    -0.271 OA
BRANCH   3   5
ATOM      5  C   UNL     1      -0.579   5.379  -4.070  0.00  0.00    +0.182 C 
BRANCH   5   6
ATOM      6  N   UNL     1      -0.007   6.506  -3.118  0.00  0.00    -0.192 NA
ATOM      7  C   UNL     1       0.023   5.938  -1.799  0.00  0.00    +0.283 C 
ATOM      8  O   UNL     1       0.313   4.717  -1.608  0.00  0.00    -0.267 OA
BRANCH   7   9
ATOM      9  C   UNL     1      -0.040   6.746  -0.588  0.00  0.00    +0.136 A 
ATOM     10  N   UNL     1       0.899   7.634  -0.228  0.00  0.00    -0.241 NA
ATOM     11  C   UNL     1       1.147   7.891   1.079  0.00  0.00    +0.081 A 
ATOM     12  C   UNL     1       0.110   7.640   1.962  0.00  0.00    +0.018 A 
ATOM     13  C   UNL     1       0.309   7.753   3.318  0.00  0.00    +0.001 A 
ATOM     14  C   UNL     1       1.519   8.221   3.749  0.00  0.00    +0.000 A 
ATOM     15  C   UNL     1       2.638   8.073   2.945  0.00  0.00    +0.002 A 
ATOM     16  C   UNL     1      -1.070   7.110   1.513  0.00  0.00    +0.003 A 
ATOM     17  C   UNL     1       2.415   8.105   1.575  0.00  0.00    +0.019 A 
ATOM     18  C   UNL     1      -1.152   6.658   0.223  0.00  0.00    +0.024 A 
ENDBRANCH   7   9
ENDBRANCH   5   6
BRANCH   5  19
ATOM     19  C   UNL     1      -1.969   6.217  -4.346  0.00  0.00    +0.120 C 
BRANCH  19  20
ATOM     20  C   UNL     1      -3.001   5.664  -3.469  0.00  0.00    +0.263 C 
ATOM     21  O   UNL     1      -2.718   4.529  -2.972  0.00  0.00    -0.272 OA
ATOM     22  N   UNL     1      -3.745   6.489  -2.561  0.00  0.00    -0.088 NA
ENDBRANCH  19  20
ENDBRANCH   5  19
ENDBRANCH   3   5
ENDBRANCH   1   2
BRANCH   1  23
ATOM     23  C   UNL     1       3.564   4.914  -6.712  0.00  0.00    +0.188 C 
ATOM     24  O   UNL     1       4.923   5.172  -6.095  0.00  0.00    -0.220 OA
BRANCH  23  25
ATOM     25  C   UNL     1       3.740   6.119  -7.806  0.00  0.00    +0.107 C 
BRANCH  25  27
ATOM     26  C   UNL     1       3.789   6.576 -10.131  0.00  0.00    +0.137 C 
ATOM     27  N   UNL     1       4.337   5.637  -8.980  0.00  0.00    -0.264 NA
ATOM     28  C   UNL     1       5.694   6.200  -8.935  0.00  0.00    +0.072 C 
ATOM     29  C   UNL     1       6.024   6.761 -10.420  0.00  0.00    +0.016 C 
ATOM     30  C   UNL     1       5.733   5.244 -11.120  0.00  0.00    +0.003 C 
ATOM     31  C   UNL     1       5.974   5.792 -12.629  0.00  0.00    +0.000 C 
ATOM     32  C   UNL     1       7.161   6.680 -12.632  0.00  0.00    +0.000 C 
ATOM     33  C   UNL     1       8.150   6.180 -11.621  0.00  0.00    +0.000 C 
ATOM     34  C   UNL     1       7.610   6.466 -10.254  0.00  0.00    +0.001 C 
ATOM     35  C   UNL     1       4.129   5.431 -11.263  0.00  0.00    +0.025 C 
BRANCH  26  37
ATOM     36  N   UNL     1       1.759   5.351 -11.110  0.00  0.00    -0.208 NA
ATOM     37  C   UNL     1       2.237   6.126 -10.001  0.00  0.00    +0.256 C 
ATOM     38  O   UNL     1       1.605   7.229  -9.901  0.00  0.00    -0.272 OA
BRANCH  36  40
ATOM     39  C   UNL     1       0.523   5.333 -11.907  0.00  0.00    +0.022 C 
ATOM     40  C   UNL     1       0.465   5.527 -11.642  0.00  0.00    +0.079 C 
ATOM     41  C   UNL     1      -0.624   4.685 -11.172  0.00  0.00    +0.022 C 
ATOM     42  C   UNL     1       0.152   6.863 -12.197  0.00  0.00    +0.022 C 
ENDBRANCH  36  40
ENDBRANCH  26  37
ENDBRANCH  25  27
ENDBRANCH  23  25
ENDBRANCH   1  23
BRANCH   1  43
ATOM     43  C   UNL     1       2.971   4.763  -4.343  0.00  0.00    +0.051 C 
BRANCH  43  44
ATOM     44  C   UNL     1       3.506   5.368  -3.165  0.00  0.00    -0.020 A 
ATOM     45  C   UNL     1       3.898   4.933  -1.947  0.00  0.00    -0.004 A 
ATOM     46  C   UNL     1       4.030   5.745  -0.830  0.00  0.00    -0.000 A 
ATOM     47  C   UNL     1       4.410   7.046  -1.085  0.00  0.00    -0.000 A 
ATOM     48  C   UNL     1       4.173   7.560  -2.350  0.00  0.00    -0.000 A 
ATOM     49  C   UNL     1       3.622   6.753  -3.300  0.00  0.00    -0.004 A 
ENDBRANCH  43  44
ENDBRANCH   1  43
TORSDOF 13
ENDMDL
MODEL 6
REMARK VINA RESULT:      -9.8      3.320     11.159
REMARK  Name = 
REMARK  13 active torsions:
REMARK  status: ('A' for Active; 'I' for Inactive)
REMARK    1  A    between atoms: C_2  and  N_5
REMARK    2  A    between atoms: C_6  and  C_8
REMARK    3  A    between atoms: N_17  and  C_18
REMARK    4  A    between atoms: C_18  and  C_19
REMARK    5  A    between atoms: C_19  and  C_21
REMARK    6  A    between atoms: C_21  and  C_22
REMARK    7  A    between atoms: C_21  and  N_29
REMARK    8  A    between atoms: C_22  and  C_23
REMARK    9  A    between atoms: C_30  and  C_32
REMARK   10  A    between atoms: C_32  and  C_33
REMARK   11  A    between atoms: C_32  and  N_37
REMARK   12  A    between atoms: C_33  and  C_34
REMARK   13  A    between atoms: C_38  and  C_40
REMARK                            x       y       z     vdW  Elec       q    Type
REMARK                         _______ _______ _______ _____ _____    ______ ____
ROOT
ATOM      1  C   UNL     1       3.793   6.163  -8.805  0.00  0.00    +0.131 C 
ENDROOT
BRANCH   1   2
ATOM      2  N   UNL     1       5.202   5.758  -9.358  0.00  0.00    -0.203 NA
ATOM      3  C   UNL     1       5.694   6.377 -10.515  0.00  0.00    +0.262 C 
ATOM      4  O   UNL     1       5.330   7.572 -10.734  0.00  0.00    -0.271 OA
BRANCH   3   5
ATOM      5  C   UNL     1       5.594   5.568 -11.917  0.00  0.00    +0.182 C 
BRANCH   5   6
ATOM      6  N   UNL     1       4.202   6.205 -12.311  0.00  0.00    -0.192 NA
ATOM      7  C   UNL     1       3.799   5.562 -13.531  0.00  0.00    +0.283 C 
ATOM      8  O   UNL     1       4.035   4.333 -13.743  0.00  0.00    -0.267 OA
BRANCH   7   9
ATOM      9  C   UNL     1       2.902   6.185 -14.496  0.00  0.00    +0.136 A 
ATOM     10  N   UNL     1       3.314   6.804 -15.613  0.00  0.00    -0.241 NA
ATOM     11  C   UNL     1       2.614   7.841 -16.132  0.00  0.00    +0.081 A 
ATOM     12  C   UNL     1       1.267   7.893 -15.814  0.00  0.00    +0.018 A 
ATOM     13  C   UNL     1       0.504   8.972 -16.191  0.00  0.00    +0.001 A 
ATOM     14  C   UNL     1       1.091   9.927 -16.974  0.00  0.00    +0.000 A 
ATOM     15  C   UNL     1       2.468  10.091 -16.939  0.00  0.00    +0.002 A 
ATOM     16  C   UNL     1       0.717   6.961 -14.974  0.00  0.00    +0.003 A 
ATOM     17  C   UNL     1       3.214   8.947 -16.694  0.00  0.00    +0.019 A 
ATOM     18  C   UNL     1       1.539   6.094 -14.306  0.00  0.00    +0.024 A 
ENDBRANCH   7   9
ENDBRANCH   5   6
BRANCH   5  19
ATOM     19  C   UNL     1       6.434   6.701 -12.767  0.00  0.00    +0.120 C 
BRANCH  19  20
ATOM     20  C   UNL     1       7.252   5.998 -13.755  0.00  0.00    +0.263 C 
ATOM     21  O   UNL     1       7.581   4.816 -13.422  0.00  0.00    -0.272 OA
ATOM     22  N   UNL     1       7.013   6.123 -15.163  0.00  0.00    -0.088 NA
ENDBRANCH  19  20
ENDBRANCH   5  19
ENDBRANCH   3   5
ENDBRANCH   1   2
BRANCH   1  23
ATOM     23  C   UNL     1       4.054   5.560  -7.210  0.00  0.00    +0.188 C 
ATOM     24  O   UNL     1       2.944   4.534  -7.313  0.00  0.00    -0.220 OA
BRANCH  23  25
ATOM     25  C   UNL     1       3.095   6.643  -6.445  0.00  0.00    +0.107 C 
BRANCH  25  27
ATOM     26  C   UNL     1       1.660   6.976  -4.588  0.00  0.00    +0.137 C 
ATOM     27  N   UNL     1       2.059   5.990  -5.761  0.00  0.00    -0.264 NA
ATOM     28  C   UNL     1       0.878   6.239  -6.601  0.00  0.00    +0.072 C 
ATOM     29  C   UNL     1      -0.334   6.648  -5.604  0.00  0.00    +0.016 C 
ATOM     30  C   UNL     1      -0.176   5.203  -4.729  0.00  0.00    +0.003 C 
ATOM     31  C   UNL     1      -1.328   5.618  -3.662  0.00  0.00    +0.000 C 
ATOM     32  C   UNL     1      -2.467   6.219  -4.396  0.00  0.00    +0.000 C 
ATOM     33  C   UNL     1      -2.591   5.558  -5.737  0.00  0.00    +0.000 C 
ATOM     34  C   UNL     1      -1.452   6.016  -6.594  0.00  0.00    +0.001 C 
ATOM     35  C   UNL     1       0.991   5.735  -3.738  0.00  0.00    +0.025 C 
BRANCH  26  37
ATOM     36  N   UNL     1       3.362   5.586  -3.264  0.00  0.00    -0.208 NA
ATOM     37  C   UNL     1       3.071   6.887  -3.796  0.00  0.00    +0.256 C 
ATOM     38  O   UNL     1       2.956   7.751  -2.865  0.00  0.00    -0.272 OA
BRANCH  36  40
ATOM     39  C   UNL     1       4.219   5.243  -2.120  0.00  0.00    +0.022 C 
ATOM     40  C   UNL     1       3.958   5.412  -1.998  0.00  0.00    +0.079 C 
ATOM     41  C   UNL     1       4.798   6.465  -1.450  0.00  0.00    +0.022 C 
ATOM     42  C   UNL     1       3.284   4.474  -1.072  0.00  0.00    +0.022 C 
ENDBRANCH  36  40
ENDBRANCH  26  37
ENDBRANCH  25  27
ENDBRANCH  23  25
ENDBRANCH   1  23
BRANCH   1  43
ATOM     43  C   UNL     1       3.111   4.785  -9.329  0.00  0.00    +0.051 C 
BRANCH  43  44
ATOM     44  C   UNL     1       1.851   5.020  -9.961  0.00  0.00    -0.020 A 
ATOM     45  C   UNL     1       0.855   4.248 -10.448  0.00  0.00    -0.004 A 
ATOM     46  C   UNL     1      -0.100   4.682 -11.356  0.00  0.00    -0.000 A 
ATOM     47  C   UNL     1      -0.449   6.013 -11.256  0.00  0.00    -0.000 A 
ATOM     48  C   UNL     1       0.447   6.881 -10.652  0.00  0.00    -0.000 A 
ATOM     49  C   UNL     1       1.608   6.383 -10.142  0.00  0.00    -0.004 A 
ENDBRANCH  43  44
ENDBRANCH   1  43
TORSDOF 13
ENDMDL
MODEL 7
REMARK VINA RESULT:      -9.6      3.604      6.987
REMARK  Name = 
REMARK  13 active torsions:
REMARK  status: ('A' for Active; 'I' for Inactive)
REMARK    1  A    between atoms: C_2  and  N_5
REMARK    2  A    between atoms: C_6  and  C_8
REMARK    3  A    between atoms: N_17  and  C_18
REMARK    4  A    between atoms: C_18  and  C_19
REMARK    5  A    between atoms: C_19  and  C_21
REMARK    6  A    between atoms: C_21  and  C_22
REMARK    7  A    between atoms: C_21  and  N_29
REMARK    8  A    between atoms: C_22  and  C_23
REMARK    9  A    between atoms: C_30  and  C_32
REMARK   10  A    between atoms: C_32  and  C_33
REMARK   11  A    between atoms: C_32  and  N_37
REMARK   12  A    between atoms: C_33  and  C_34
REMARK   13  A    between atoms: C_38  and  C_40
REMARK                            x       y       z     vdW  Elec       q    Type
REMARK                         _______ _______ _______ _____ _____    ______ ____
ROOT
ATOM      1  C   UNL     1      -0.792   6.239  -0.664  0.00  0.00    +0.131 C 
ENDROOT
BRANCH   1   2
ATOM      2  N   UNL     1       0.260   7.392  -0.795  0.00  0.00    -0.203 NA
ATOM      3  C   UNL     1       1.470   7.306  -0.093  0.00  0.00    +0.262 C 
ATOM      4  O   UNL     1       1.935   6.146   0.123  0.00  0.00    -0.271 OA
BRANCH   3   5
ATOM      5  C   UNL     1       1.621   8.159   1.278  0.00  0.00    +0.182 C 
BRANCH   5   6
ATOM      6  N   UNL     1       2.927   8.910   0.796  0.00  0.00    -0.192 NA
ATOM      7  C   UNL     1       3.431   9.610   1.944  0.00  0.00    +0.283 C 
ATOM      8  O   UNL     1       3.360   9.113   3.110  0.00  0.00    -0.267 OA
BRANCH   7   9
ATOM      9  C   UNL     1       4.258  10.806   1.842  0.00  0.00    +0.136 A 
ATOM     10  N   UNL     1       3.901  11.910   1.167  0.00  0.00    -0.241 NA
ATOM     11  C   UNL     1       4.834  12.700   0.583  0.00  0.00    +0.081 A 
ATOM     12  C   UNL     1       6.109  12.644   1.121  0.00  0.00    +0.018 A 
ATOM     13  C   UNL     1       7.148  13.314   0.519  0.00  0.00    +0.001 A 
ATOM     14  C   UNL     1       6.857  14.112  -0.552  0.00  0.00    +0.000 A 
ATOM     15  C   UNL     1       5.729  13.852  -1.316  0.00  0.00    +0.002 A 
ATOM     16  C   UNL     1       6.390  11.788   2.152  0.00  0.00    +0.003 A 
ATOM     17  C   UNL     1       4.648  13.304  -0.641  0.00  0.00    +0.019 A 
ATOM     18  C   UNL     1       5.456  10.857   2.522  0.00  0.00    +0.024 A 
ENDBRANCH   7   9
ENDBRANCH   5   6
BRANCH   5  19
ATOM     19  C   UNL     1       0.643   9.381   0.766  0.00  0.00    +0.120 C 
BRANCH  19  20
ATOM     20  C   UNL     1      -0.093   9.877   1.928  0.00  0.00    +0.263 C 
ATOM     21  O   UNL     1      -1.203  10.431   1.651  0.00  0.00    -0.272 OA
ATOM     22  N   UNL     1      -0.137   9.150   3.163  0.00  0.00    -0.088 NA
ENDBRANCH  19  20
ENDBRANCH   5  19
ENDBRANCH   3   5
ENDBRANCH   1   2
BRANCH   1  23
ATOM     23  C   UNL     1      -1.285   6.267  -2.318  0.00  0.00    +0.188 C 
ATOM     24  O   UNL     1      -2.086   4.986  -2.199  0.00  0.00    -0.220 OA
BRANCH  23  25
ATOM     25  C   UNL     1       0.026   5.490  -2.914  0.00  0.00    +0.107 C 
BRANCH  25  27
ATOM     26  C   UNL     1       1.723   5.254  -4.552  0.00  0.00    +0.137 C 
ATOM     27  N   UNL     1       0.430   6.063  -4.130  0.00  0.00    -0.264 NA
ATOM     28  C   UNL     1      -0.478   5.460  -5.116  0.00  0.00    +0.072 C 
ATOM     29  C   UNL     1       0.427   5.032  -6.392  0.00  0.00    +0.016 C 
ATOM     30  C   UNL     1       0.999   6.616  -6.589  0.00  0.00    +0.003 C 
ATOM     31  C   UNL     1       1.981   6.206  -7.816  0.00  0.00    +0.000 C 
ATOM     32  C   UNL     1       1.253   5.288  -8.725  0.00  0.00    +0.000 C 
ATOM     33  C   UNL     1      -0.200   5.661  -8.739  0.00  0.00    +0.000 C 
ATOM     34  C   UNL     1      -0.799   5.264  -7.426  0.00  0.00    +0.001 C 
ATOM     35  C   UNL     1       2.213   6.490  -5.522  0.00  0.00    +0.025 C 
BRANCH  26  37
ATOM     36  N   UNL     1       3.029   7.116  -3.366  0.00  0.00    -0.208 NA
ATOM     37  C   UNL     1       2.645   5.734  -3.309  0.00  0.00    +0.256 C 
ATOM     38  O   UNL     1       3.664   4.969  -3.368  0.00  0.00    -0.272 OA
BRANCH  36  40
ATOM     39  C   UNL     1       4.218   7.861  -2.926  0.00  0.00    +0.022 C 
ATOM     40  C   UNL     1       4.318   7.550  -2.994  0.00  0.00    +0.079 C 
ATOM     41  C   UNL     1       4.787   7.325  -1.635  0.00  0.00    +0.022 C 
ATOM     42  C   UNL     1       5.311   7.687  -4.083  0.00  0.00    +0.022 C 
ENDBRANCH  36  40
ENDBRANCH  26  37
ENDBRANCH  25  27
ENDBRANCH  23  25
ENDBRANCH   1  23
BRANCH   1  43
ATOM     43  C   UNL     1      -1.961   7.262  -0.187  0.00  0.00    +0.051 C 
BRANCH  43  44
ATOM     44  C   UNL     1      -2.325   7.055   1.179  0.00  0.00    -0.020 A 
ATOM     45  C   UNL     1      -1.939   6.217   2.166  0.00  0.00    -0.004 A 
ATOM     46  C   UNL     1      -2.691   5.942   3.299  0.00  0.00    -0.000 A 
ATOM     47  C   UNL     1      -3.482   6.978   3.750  0.00  0.00    -0.000 A 
ATOM     48  C   UNL     1      -3.836   7.970   2.849  0.00  0.00    -0.000 A 
ATOM     49  C   UNL     1      -3.354   7.911   1.576  0.00  0.00    -0.004 A 
ENDBRANCH  43  44
ENDBRANCH   1  43
TORSDOF 13
ENDMDL
MODEL 8
REMARK VINA RESULT:      -9.6      1.462      3.150
REMARK  Name = 
REMARK  13 active torsions:
REMARK  status: ('A' for Active; 'I' for Inactive)
REMARK    1  A    between atoms: C_2  and  N_5
REMARK    2  A    between atoms: C_6  and  C_8
REMARK    3  A    between atoms: N_17  and  C_18
REMARK    4  A    between atoms: C_18  and  C_19
REMARK    5  A    between atoms: C_19  and  C_21
REMARK    6  A    between atoms: C_21  and  C_22
REMARK    7  A    between atoms: C_21  and  N_29
REMARK    8  A    between atoms: C_22  and  C_23
REMARK    9  A    between atoms: C_30  and  C_32
REMARK   10  A    between atoms: C_32  and  C_33
REMARK   11  A    between atoms: C_32  and  N_37
REMARK   12  A    between atoms: C_33  and  C_34
REMARK   13  A    between atoms: C_38  and  C_40
REMARK                            x       y       z     vdW  Elec       q    Type
REMARK                         _______ _______ _______ _____ _____    ______ ____
ROOT
ATOM      1  C   UNL     1       2.074   6.461  -5.700  0.00  0.00    +0.131 C 
ENDROOT
BRANCH   1   2
ATOM      2  N   UNL     1       2.765   6.976  -4.392  0.00  0.00    -0.203 NA
ATOM      3  C   UNL     1       3.488   6.081  -3.593  0.00  0.00    +0.262 C 
ATOM      4  O   UNL     1       4.053   5.107  -4.178  0.00  0.00    -0.271 OA
BRANCH   3   5
ATOM      5  C   UNL     1       2.777   5.504  -2.255  0.00  0.00    +0.182 C 
BRANCH   5   6
ATOM      6  N   UNL     1       2.375   6.937  -1.719  0.00  0.00    -0.192 NA
ATOM      7  C   UNL     1       2.536   6.889  -0.292  0.00  0.00    +0.283 C 
ATOM      8  O   UNL     1       3.480   6.233   0.249  0.00  0.00    -0.267 OA
BRANCH   7   9
ATOM      9  C   UNL     1       1.798   7.756   0.617  0.00  0.00    +0.136 A 
ATOM     10  N   UNL     1       0.886   7.318   1.498  0.00  0.00    -0.241 NA
ATOM     11  C   UNL     1      -0.164   8.095   1.857  0.00  0.00    +0.081 A 
ATOM     12  C   UNL     1       0.009   9.462   1.719  0.00  0.00    +0.018 A 
ATOM     13  C   UNL     1      -1.040  10.323   1.940  0.00  0.00    +0.001 A 
ATOM     14  C   UNL     1      -2.214   9.793   2.398  0.00  0.00    +0.000 A 
ATOM     15  C   UNL     1      -2.514   8.463   2.142  0.00  0.00    +0.002 A 
ATOM     16  C   UNL     1       1.171   9.964   1.196  0.00  0.00    +0.003 A 
ATOM     17  C   UNL     1      -1.432   7.598   2.065  0.00  0.00    +0.019 A 
ATOM     18  C   UNL     1       2.081   9.106   0.639  0.00  0.00    +0.024 A 
ENDBRANCH   7   9
ENDBRANCH   5   6
BRANCH   5  19
ATOM     19  C   UNL     1       1.316   5.287  -2.981  0.00  0.00    +0.120 C 
BRANCH  19  20
ATOM     20  C   UNL     1       0.416   4.683  -1.998  0.00  0.00    +0.263 C 
ATOM     21  O   UNL     1       1.002   4.003  -1.097  0.00  0.00    -0.272 OA
ATOM     22  N   UNL     1      -0.735   5.376  -1.498  0.00  0.00    -0.088 NA
ENDBRANCH  19  20
ENDBRANCH   5  19
ENDBRANCH   3   5
ENDBRANCH   1   2
BRANCH   1  23
ATOM     23  C   UNL     1       3.122   7.295  -6.789  0.00  0.00    +0.188 C 
ATOM     24  O   UNL     1       1.978   7.860  -7.606  0.00  0.00    -0.220 OA
BRANCH  23  25
ATOM     25  C   UNL     1       3.350   6.045  -7.819  0.00  0.00    +0.107 C 
BRANCH  25  27
ATOM     26  C   UNL     1       3.612   5.473 -10.105  0.00  0.00    +0.137 C 
ATOM     27  N   UNL     1       2.768   6.318  -9.066  0.00  0.00    -0.264 NA
ATOM     28  C   UNL     1       1.571   5.464  -9.085  0.00  0.00    +0.072 C 
ATOM     29  C   UNL     1       1.509   4.769 -10.549  0.00  0.00    +0.016 C 
ATOM     30  C   UNL     1       1.517   6.276 -11.327  0.00  0.00    +0.003 C 
ATOM     31  C   UNL     1       1.540   5.613 -12.809  0.00  0.00    +0.000 C 
ATOM     32  C   UNL     1       0.585   4.479 -12.841  0.00  0.00    +0.000 C 
ATOM     33  C   UNL     1      -0.576   4.790 -11.945  0.00  0.00    +0.000 C 
ATOM     34  C   UNL     1      -0.110   4.703 -10.525  0.00  0.00    +0.001 C 
ATOM     35  C   UNL     1       3.128   6.453 -11.335  0.00  0.00    +0.025 C 
BRANCH  26  37
ATOM     36  N   UNL     1       5.205   7.359 -10.802  0.00  0.00    -0.208 NA
ATOM     37  C   UNL     1       5.006   6.270  -9.889  0.00  0.00    +0.256 C 
ATOM     38  O   UNL     1       5.900   5.373 -10.038  0.00  0.00    -0.272 OA
BRANCH  36  40
ATOM     39  C   UNL     1       6.417   7.971 -11.367  0.00  0.00    +0.022 C 
ATOM     40  C   UNL     1       6.465   7.640 -11.368  0.00  0.00    +0.079 C 
ATOM     41  C   UNL     1       7.634   7.733 -10.507  0.00  0.00    +0.022 C 
ATOM     42  C   UNL     1       6.648   7.277 -12.792  0.00  0.00    +0.022 C 
ENDBRANCH  36  40
ENDBRANCH  26  37
ENDBRANCH  25  27
ENDBRANCH  23  25
ENDBRANCH   1  23
BRANCH   1  43
ATOM     43  C   UNL     1       0.973   7.655  -5.675  0.00  0.00    +0.051 C 
BRANCH  43  44
ATOM     44  C   UNL     1      -0.352   7.155  -5.487  0.00  0.00    -0.020 A 
ATOM     45  C   UNL     1      -1.432   7.528  -4.767  0.00  0.00    -0.004 A 
ATOM     46  C   UNL     1      -2.487   6.686  -4.443  0.00  0.00    -0.000 A 
ATOM     47  C   UNL     1      -2.770   5.708  -5.373  0.00  0.00    -0.000 A 
ATOM     48  C   UNL     1      -1.768   5.334  -6.255  0.00  0.00    -0.000 A 
ATOM     49  C   UNL     1      -0.567   5.976  -6.202  0.00  0.00    -0.004 A 
ENDBRANCH  43  44
ENDBRANCH   1  43
TORSDOF 13
ENDMDL
MODEL 9
REMARK VINA RESULT:      -9.6      1.645      3.572
REMARK  Name = 
REMARK  13 active torsions:
REMARK  status: ('A' for Active; 'I' for Inactive)
REMARK    1  A    between atoms: C_2  and  N_5
REMARK    2  A    between atoms: C_6  and  C_8
REMARK    3  A    between atoms: N_17  and  C_18
REMARK    4  A    between atoms: C_18  and  C_19
REMARK    5  A    between atoms: C_19  and  C_21
REMARK    6  A    between atoms: C_21  and  C_22
REMARK    7  A    between atoms: C_21  and  N_29
REMARK    8  A    between atoms: C_22  and  C_23
REMARK    9  A    between atoms: C_30  and  C_32
REMARK   10  A    between atoms: C_32  and  C_33
REMARK   11  A    between atoms: C_32  and  N_37
REMARK   12  A    between atoms: C_33  and  C_34
REMARK   13  A    between atoms: C_38  and  C_40
REMARK                            x       y       z     vdW  Elec       q    Type
REMARK                         _______ _______ _______ _____ _____    ______ ____
ROOT
ATOM      1  C   UNL     1       2.394   5.967  -7.066  0.00  0.00    +0.131 C 
ENDROOT
BRANCH   1   2
ATOM      2  N   UNL     1       0.870   5.609  -7.021  0.00  0.00    -0.203 NA
ATOM      3  C   UNL     1       0.038   6.241  -6.087  0.00  0.00    +0.262 C 
ATOM      4  O   UNL     1       0.346   7.423  -5.743  0.00  0.00    -0.271 OA
BRANCH   3   5
ATOM      5  C   UNL     1      -0.362   5.427  -4.744  0.00  0.00    +0.182 C 
BRANCH   5   6
ATOM      6  N   UNL     1       0.253   6.512  -3.771  0.00  0.00    -0.192 NA
ATOM      7  C   UNL     1       0.647   5.807  -2.584  0.00  0.00    +0.283 C 
ATOM      8  O   UNL     1       1.129   4.634  -2.637  0.00  0.00    -0.267 OA
BRANCH   7   9
ATOM      9  C   UNL     1       0.748   6.448  -1.279  0.00  0.00    +0.136 A 
ATOM     10  N   UNL     1      -0.262   6.521  -0.398  0.00  0.00    -0.241 NA
ATOM     11  C   UNL     1      -0.365   7.567   0.456  0.00  0.00    +0.081 A 
ATOM     12  C   UNL     1       0.810   8.237   0.751  0.00  0.00    +0.018 A 
ATOM     13  C   UNL     1       0.786   9.384   1.508  0.00  0.00    +0.001 A 
ATOM     14  C   UNL     1      -0.412   9.772   2.041  0.00  0.00    +0.000 A 
ATOM     15  C   UNL     1      -1.594   9.376   1.435  0.00  0.00    +0.002 A 
ATOM     16  C   UNL     1       1.986   7.870   0.153  0.00  0.00    +0.003 A 
ATOM     17  C   UNL     1      -1.570   8.143   0.798  0.00  0.00    +0.019 A 
ATOM     18  C   UNL     1       1.961   6.964  -0.873  0.00  0.00    +0.024 A 
ENDBRANCH   7   9
ENDBRANCH   5   6
BRANCH   5  19
ATOM     19  C   UNL     1      -1.866   6.089  -4.648  0.00  0.00    +0.120 C 
BRANCH  19  20
ATOM     20  C   UNL     1      -2.322   5.955  -3.264  0.00  0.00    +0.263 C 
ATOM     21  O   UNL     1      -2.950   6.966  -2.816  0.00  0.00    -0.272 OA
ATOM     22  N   UNL     1      -2.840   4.719  -2.754  0.00  0.00    -0.088 NA
ENDBRANCH  19  20
ENDBRANCH   5  19
ENDBRANCH   3   5
ENDBRANCH   1   2
BRANCH   1  23
ATOM     23  C   UNL     1       2.791   4.873  -8.341  0.00  0.00    +0.188 C 
ATOM     24  O   UNL     1       4.233   4.732  -7.899  0.00  0.00    -0.220 OA
BRANCH  23  25
ATOM     25  C   UNL     1       3.158   6.015  -9.455  0.00  0.00    +0.107 C 
BRANCH  25  27
ATOM     26  C   UNL     1       3.811   6.363 -11.707  0.00  0.00    +0.137 C 
ATOM     27  N   UNL     1       4.069   5.513 -10.396  0.00  0.00    -0.264 NA
ATOM     28  C   UNL     1       5.339   6.154 -10.025  0.00  0.00    +0.072 C 
ATOM     29  C   UNL     1       6.032   6.662 -11.400  0.00  0.00    +0.016 C 
ATOM     30  C   UNL     1       6.004   5.099 -12.058  0.00  0.00    +0.003 C 
ATOM     31  C   UNL     1       6.620   5.588 -13.479  0.00  0.00    +0.000 C 
ATOM     32  C   UNL     1       7.725   6.541 -13.220  0.00  0.00    +0.000 C 
ATOM     33  C   UNL     1       8.425   6.147 -11.953  0.00  0.00    +0.000 C 
ATOM     34  C   UNL     1       7.525   6.466 -10.800  0.00  0.00    +0.001 C 
ATOM     35  C   UNL     1       4.492   5.187 -12.635  0.00  0.00    +0.025 C 
BRANCH  26  37
ATOM     36  N   UNL     1       2.146   5.092 -13.187  0.00  0.00    -0.208 NA
ATOM     37  C   UNL     1       2.303   5.832 -11.968  0.00  0.00    +0.256 C 
ATOM     38  O   UNL     1       1.600   6.896 -11.980  0.00  0.00    -0.272 OA
BRANCH  36  40
ATOM     39  C   UNL     1       0.828   5.384 -13.768  0.00  0.00    +0.022 C 
ATOM     40  C   UNL     1       1.007   5.231 -14.005  0.00  0.00    +0.079 C 
ATOM     41  C   UNL     1       0.909   6.362 -14.914  0.00  0.00    +0.022 C 
ATOM     42  C   UNL     1       0.262   3.991 -14.319  0.00  0.00    +0.022 C 
ENDBRANCH  36  40
ENDBRANCH  26  37
ENDBRANCH  25  27
ENDBRANCH  23  25
ENDBRANCH   1  23
BRANCH   1  43
ATOM     43  C   UNL     1       2.754   4.900  -5.895  0.00  0.00    +0.051 C 
BRANCH  43  44
ATOM     44  C   UNL     1       3.603   5.469  -4.897  0.00  0.00    -0.020 A 
ATOM     45  C   UNL     1       4.305   4.999  -3.843  0.00  0.00    -0.004 A 
ATOM     46  C   UNL     1       4.755   5.782  -2.789  0.00  0.00    -0.000 A 
ATOM     47  C   UNL     1       5.075   7.084  -3.113  0.00  0.00    -0.000 A 
ATOM     48  C   UNL     1       4.509   7.632  -4.254  0.00  0.00    -0.000 A 
ATOM     49  C   UNL     1       3.704   6.855  -5.032  0.00  0.00    -0.004 A 
ENDBRANCH  43  44
ENDBRANCH   1  43
TORSDOF 13
ENDMDL
