MODEL 1
REMARK VINA RESULT:      -7.9      0.000      0.000
REMARK  Name = 
REMARK  3 active torsions:
REMARK  status: ('A' for Active; 'I' for Inactive)
REMARK    1  A    between atoms: N_5  and  C_6
REMARK    2  A    between atoms: C_6  and  C_7
REMARK    3  A    between atoms: C_6  and  C_13
REMARK                            x       y       z     vdW  Elec       q    Type
REMARK                         _______ _______ _______ _____ _____    ______ ____
ROOT
ATOM      1  C   UNL     1       3.570   5.244  -9.729  0.00  0.00    +0.103 C 
ENDROOT
BRANCH   1   6
ATOM      2  C   UNL     1      -0.589   7.374 -11.671  0.00  0.00    +0.090 C 
ATOM      3  N   UNL     1       0.212   6.313 -11.875  0.00  0.00    -0.269 NA
ATOM      4  C   UNL     1       0.381   5.424 -10.746  0.00  0.00    +0.090 C 
ATOM      5  C   UNL     1       1.354   5.951  -9.720  0.00  0.00    +0.090 C 
ATOM      6  N   UNL     1       2.611   6.395 -10.325  0.00  0.00    -0.264 NA
ATOM      7  C   UNL     1       2.552   5.959 -11.702  0.00  0.00    +0.090 C 
ATOM      8  C   UNL     1       1.483   6.711 -12.424  0.00  0.00    +0.090 C 
ENDBRANCH   1   6
BRANCH   1   9
ATOM      9  C   UNL     1       3.094   5.562  -8.188  0.00  0.00    -0.004 A 
ATOM     10  C   UNL     1       3.180   6.834  -7.769  0.00  0.00    -0.002 A 
ATOM     11  C   UNL     1       2.800   7.053  -6.447  0.00  0.00    +0.011 A 
ATOM     12  C   UNL     1       2.534   5.984  -5.597  0.00  0.00    +0.058 A 
ATOM     13 CL   UNL     1       1.976   6.377  -3.983  0.00  0.00    -0.082 Cl
ATOM     14  C   UNL     1       2.438   4.702  -6.126  0.00  0.00    +0.011 A 
ATOM     15  C   UNL     1       2.799   4.453  -7.447  0.00  0.00    -0.002 A 
ENDBRANCH   1   9
BRANCH   1  16
ATOM     16  C   UNL     1       4.860   6.277  -9.656  0.00  0.00    -0.004 A 
ATOM     17  C   UNL     1       5.063   6.901 -10.887  0.00  0.00    -0.003 A 
ATOM     18  C   UNL     1       6.272   7.560 -11.051  0.00  0.00    -0.000 A 
ATOM     19  C   UNL     1       7.422   6.950 -10.562  0.00  0.00    -0.000 A 
ATOM     20  C   UNL     1       7.249   5.817  -9.777  0.00  0.00    -0.000 A 
ATOM     21  C   UNL     1       6.004   5.627  -9.194  0.00  0.00    -0.003 A 
ENDBRANCH   1  16
TORSDOF 3
ENDMDL
MODEL 2
REMARK VINA RESULT:      -7.8      3.689      7.195
REMARK  Name = 
REMARK  3 active torsions:
REMARK  status: ('A' for Active; 'I' for Inactive)
REMARK    1  A    between atoms: N_5  and  C_6
REMARK    2  A    between atoms: C_6  and  C_7
REMARK    3  A    between atoms: C_6  and  C_13
REMARK                            x       y       z     vdW  Elec       q    Type
REMARK                         _______ _______ _______ _____ _____    ______ ____
ROOT
ATOM      1  C   UNL     1       1.303   5.157  -5.495  0.00  0.00    +0.103 C 
ENDROOT
BRANCH   1   6
ATOM      2  C   UNL     1       5.164   7.366  -3.083  0.00  0.00    +0.090 C 
ATOM      3  N   UNL     1       4.255   6.394  -2.890  0.00  0.00    -0.269 NA
ATOM      4  C   UNL     1       4.237   5.342  -3.884  0.00  0.00    +0.090 C 
ATOM      5  C   UNL     1       3.528   5.743  -5.155  0.00  0.00    +0.090 C 
ATOM      6  N   UNL     1       2.218   6.341  -4.894  0.00  0.00    -0.264 NA
ATOM      7  C   UNL     1       1.973   6.132  -3.485  0.00  0.00    +0.090 C 
ATOM      8  C   UNL     1       2.938   6.938  -2.679  0.00  0.00    +0.090 C 
ENDBRANCH   1   6
BRANCH   1   9
ATOM      9  C   UNL     1       2.000   5.289  -6.977  0.00  0.00    -0.004 A 
ATOM     10  C   UNL     1       2.039   6.511  -7.531  0.00  0.00    -0.002 A 
ATOM     11  C   UNL     1       2.606   6.572  -8.801  0.00  0.00    +0.011 A 
ATOM     12  C   UNL     1       2.929   5.409  -9.493  0.00  0.00    +0.058 A 
ATOM     13 CL   UNL     1       3.722   5.605 -11.043  0.00  0.00    -0.082 Cl
ATOM     14  C   UNL     1       2.885   4.189  -8.829  0.00  0.00    +0.011 A 
ATOM     15  C   UNL     1       2.335   4.097  -7.554  0.00  0.00    -0.002 A 
ENDBRANCH   1   9
BRANCH   1  16
ATOM     16  C   UNL     1       0.081   6.210  -5.859  0.00  0.00    -0.004 A 
ATOM     17  C   UNL     1      -0.282   6.954  -4.735  0.00  0.00    -0.003 A 
ATOM     18  C   UNL     1      -1.475   7.655  -4.821  0.00  0.00    -0.000 A 
ATOM     19  C   UNL     1      -2.561   7.029  -5.424  0.00  0.00    -0.000 A 
ATOM     20  C   UNL     1      -2.315   5.822  -6.066  0.00  0.00    -0.000 A 
ATOM     21  C   UNL     1      -1.005   5.547  -6.431  0.00  0.00    -0.003 A 
ENDBRANCH   1  16
TORSDOF 3
ENDMDL
MODEL 3
REMARK VINA RESULT:      -7.4      3.575      5.568
REMARK  Name = 
REMARK  3 active torsions:
REMARK  status: ('A' for Active; 'I' for Inactive)
REMARK    1  A    between atoms: N_5  and  C_6
REMARK    2  A    between atoms: C_6  and  C_7
REMARK    3  A    between atoms: C_6  and  C_13
REMARK                            x       y       z     vdW  Elec       q    Type
REMARK                         _______ _______ _______ _____ _____    ______ ____
ROOT
ATOM      1  C   UNL     1       0.940   4.800  -5.982  0.00  0.00    +0.103 C 
ENDROOT
BRANCH   1   6
ATOM      2  C   UNL     1      -2.264   7.489  -3.135  0.00  0.00    +0.090 C 
ATOM      3  N   UNL     1      -2.191   6.294  -3.747  0.00  0.00    -0.269 NA
ATOM      4  C   UNL     1      -1.063   5.466  -3.378  0.00  0.00    +0.090 C 
ATOM      5  C   UNL     1       0.221   5.882  -4.052  0.00  0.00    +0.090 C 
ATOM      6  N   UNL     1       0.057   6.059  -5.496  0.00  0.00    -0.264 NA
ATOM      7  C   UNL     1      -1.261   5.550  -5.799  0.00  0.00    +0.090 C 
ATOM      8  C   UNL     1      -2.297   6.428  -5.177  0.00  0.00    +0.090 C 
ENDBRANCH   1   6
BRANCH   1   9
ATOM      9  C   UNL     1       2.325   5.475  -5.412  0.00  0.00    -0.004 A 
ATOM     10  C   UNL     1       2.537   6.771  -5.690  0.00  0.00    -0.002 A 
ATOM     11  C   UNL     1       3.739   7.293  -5.218  0.00  0.00    +0.011 A 
ATOM     12  C   UNL     1       4.708   6.462  -4.666  0.00  0.00    +0.058 A 
ATOM     13 CL   UNL     1       6.141   7.237  -4.021  0.00  0.00    -0.082 Cl
ATOM     14  C   UNL     1       4.389   5.138  -4.388  0.00  0.00    +0.011 A 
ATOM     15  C   UNL     1       3.191   4.589  -4.836  0.00  0.00    -0.002 A 
ENDBRANCH   1   9
BRANCH   1  16
ATOM     16  C   UNL     1       1.125   5.442  -7.495  0.00  0.00    -0.004 A 
ATOM     17  C   UNL     1      -0.095   5.469  -8.174  0.00  0.00    -0.003 A 
ATOM     18  C   UNL     1      -0.035   5.705  -9.538  0.00  0.00    -0.000 A 
ATOM     19  C   UNL     1       0.972   5.081 -10.267  0.00  0.00    -0.000 A 
ATOM     20  C   UNL     1       1.957   4.420  -9.543  0.00  0.00    -0.000 A 
ATOM     21  C   UNL     1       2.117   4.774  -8.211  0.00  0.00    -0.003 A 
ENDBRANCH   1  16
TORSDOF 3
ENDMDL
MODEL 4
REMARK VINA RESULT:      -7.4      4.371      8.069
REMARK  Name = 
REMARK  3 active torsions:
REMARK  status: ('A' for Active; 'I' for Inactive)
REMARK    1  A    between atoms: N_5  and  C_6
REMARK    2  A    between atoms: C_6  and  C_7
REMARK    3  A    between atoms: C_6  and  C_13
REMARK                            x       y       z     vdW  Elec       q    Type
REMARK                         _______ _______ _______ _____ _____    ______ ____
ROOT
ATOM      1  C   UNL     1       0.818   5.210  -4.045  0.00  0.00    +0.103 C 
ENDROOT
BRANCH   1   6
ATOM      2  C   UNL     1       3.944   6.717  -0.362  0.00  0.00    +0.090 C 
ATOM      3  N   UNL     1       2.872   5.924  -0.538  0.00  0.00    -0.269 NA
ATOM      4  C   UNL     1       3.015   4.884  -1.534  0.00  0.00    +0.090 C 
ATOM      5  C   UNL     1       2.860   5.393  -2.946  0.00  0.00    +0.090 C 
ATOM      6  N   UNL     1       1.662   6.217  -3.110  0.00  0.00    -0.264 NA
ATOM      7  C   UNL     1       0.920   6.068  -1.879  0.00  0.00    +0.090 C 
ATOM      8  C   UNL     1       1.676   6.696  -0.754  0.00  0.00    +0.090 C 
ENDBRANCH   1   6
BRANCH   1   9
ATOM      9  C   UNL     1       1.879   5.381  -5.288  0.00  0.00    -0.004 A 
ATOM     10  C   UNL     1       2.365   6.611  -5.517  0.00  0.00    -0.002 A 
ATOM     11  C   UNL     1       3.233   6.717  -6.601  0.00  0.00    +0.011 A 
ATOM     12  C   UNL     1       3.415   5.649  -7.473  0.00  0.00    +0.058 A 
ATOM     13 CL   UNL     1       4.599   5.862  -8.748  0.00  0.00    -0.082 Cl
ATOM     14  C   UNL     1       2.897   4.403  -7.141  0.00  0.00    +0.011 A 
ATOM     15  C   UNL     1       2.036   4.262  -6.056  0.00  0.00    -0.002 A 
ENDBRANCH   1   9
BRANCH   1  16
ATOM     16  C   UNL     1      -0.162   6.432  -4.574  0.00  0.00    -0.004 A 
ATOM     17  C   UNL     1      -1.013   6.861  -3.554  0.00  0.00    -0.003 A 
ATOM     18  C   UNL     1      -2.075   7.666  -3.936  0.00  0.00    -0.000 A 
ATOM     19  C   UNL     1      -2.758   7.340  -5.103  0.00  0.00    -0.000 A 
ATOM     20  C   UNL     1      -2.205   6.344  -5.899  0.00  0.00    -0.000 A 
ATOM     21  C   UNL     1      -0.857   6.062  -5.725  0.00  0.00    -0.003 A 
ENDBRANCH   1  16
TORSDOF 3
ENDMDL
MODEL 5
REMARK VINA RESULT:      -7.3      2.427      3.357
REMARK  Name = 
REMARK  3 active torsions:
REMARK  status: ('A' for Active; 'I' for Inactive)
REMARK    1  A    between atoms: N_5  and  C_6
REMARK    2  A    between atoms: C_6  and  C_7
REMARK    3  A    between atoms: C_6  and  C_13
REMARK                            x       y       z     vdW  Elec       q    Type
REMARK                         _______ _______ _______ _____ _____    ______ ____
ROOT
ATOM      1  C   UNL     1       3.319   4.881  -7.070  0.00  0.00    +0.103 C 
ENDROOT
BRANCH   1   6
ATOM      2  C   UNL     1      -1.539   6.171  -6.487  0.00  0.00    +0.090 C 
ATOM      3  N   UNL     1      -0.797   5.148  -6.946  0.00  0.00    -0.269 NA
ATOM      4  C   UNL     1       0.153   4.588  -6.009  0.00  0.00    +0.090 C 
ATOM      5  C   UNL     1       1.403   5.421  -5.867  0.00  0.00    +0.090 C 
ATOM      6  N   UNL     1       1.982   5.778  -7.163  0.00  0.00    -0.264 NA
ATOM      7  C   UNL     1       1.250   5.003  -8.139  0.00  0.00    +0.090 C 
ATOM      8  C   UNL     1      -0.166   5.476  -8.199  0.00  0.00    +0.090 C 
ENDBRANCH   1   6
BRANCH   1   9
ATOM      9  C   UNL     1       3.756   5.572  -5.644  0.00  0.00    -0.004 A 
ATOM     10  C   UNL     1       3.858   6.910  -5.615  0.00  0.00    -0.002 A 
ATOM     11  C   UNL     1       4.263   7.450  -4.397  0.00  0.00    +0.011 A 
ATOM     12  C   UNL     1       4.701   6.628  -3.365  0.00  0.00    +0.058 A 
ATOM     13 CL   UNL     1       5.100   7.408  -1.847  0.00  0.00    -0.082 Cl
ATOM     14  C   UNL     1       4.531   5.253  -3.471  0.00  0.00    +0.011 A 
ATOM     15  C   UNL     1       4.116   4.682  -4.671  0.00  0.00    -0.002 A 
ENDBRANCH   1   9
BRANCH   1  16
ATOM     16  C   UNL     1       4.177   5.965  -7.978  0.00  0.00    -0.004 A 
ATOM     17  C   UNL     1       3.463   6.328  -9.121  0.00  0.00    -0.003 A 
ATOM     18  C   UNL     1       4.175   6.993 -10.107  0.00  0.00    -0.000 A 
ATOM     19  C   UNL     1       5.461   6.552 -10.396  0.00  0.00    -0.000 A 
ATOM     20  C   UNL     1       6.008   5.600  -9.543  0.00  0.00    -0.000 A 
ATOM     21  C   UNL     1       5.449   5.480  -8.279  0.00  0.00    -0.003 A 
ENDBRANCH   1  16
TORSDOF 3
ENDMDL
MODEL 6
REMARK VINA RESULT:      -7.2      2.723      4.996
REMARK  Name = 
REMARK  3 active torsions:
REMARK  status: ('A' for Active; 'I' for Inactive)
REMARK    1  A    between atoms: N_5  and  C_6
REMARK    2  A    between atoms: C_6  and  C_7
REMARK    3  A    between atoms: C_6  and  C_13
REMARK                            x       y       z     vdW  Elec       q    Type
REMARK                         _______ _______ _______ _____ _____    ______ ____
ROOT
ATOM      1  C   UNL     1       2.574   5.242  -5.460  0.00  0.00    +0.103 C 
ENDROOT
BRANCH   1   6
ATOM      2  C   UNL     1       2.107   5.453 -10.494  0.00  0.00    +0.090 C 
ATOM      3  N   UNL     1       3.018   5.126  -9.561  0.00  0.00    -0.269 NA
ATOM      4  C   UNL     1       2.615   4.109  -8.614  0.00  0.00    +0.090 C 
ATOM      5  C   UNL     1       1.706   4.637  -7.532  0.00  0.00    +0.090 C 
ATOM      6  N   UNL     1       2.231   5.854  -6.912  0.00  0.00    -0.264 NA
ATOM      7  C   UNL     1       3.574   6.000  -7.425  0.00  0.00    +0.090 C 
ATOM      8  C   UNL     1       3.526   6.295  -8.888  0.00  0.00    +0.090 C 
ENDBRANCH   1   6
BRANCH   1   9
ATOM      9  C   UNL     1       1.150   5.773  -4.834  0.00  0.00    -0.004 A 
ATOM     10  C   UNL     1       0.637   5.085  -3.802  0.00  0.00    -0.002 A 
ATOM     11  C   UNL     1      -0.586   5.548  -3.325  0.00  0.00    +0.011 A 
ATOM     12  C   UNL     1      -1.287   6.537  -4.008  0.00  0.00    +0.058 A 
ATOM     13 CL   UNL     1      -2.770   7.108  -3.270  0.00  0.00    -0.082 Cl
ATOM     14  C   UNL     1      -0.666   7.215  -5.050  0.00  0.00    +0.011 A 
ATOM     15  C   UNL     1       0.563   6.784  -5.541  0.00  0.00    -0.002 A 
ENDBRANCH   1   9
BRANCH   1  16
ATOM     16  C   UNL     1       3.398   6.605  -5.016  0.00  0.00    -0.004 A 
ATOM     17  C   UNL     1       4.759   6.334  -4.868  0.00  0.00    -0.003 A 
ATOM     18  C   UNL     1       5.513   7.302  -4.222  0.00  0.00    -0.000 A 
ATOM     19  C   UNL     1       4.964   7.922  -3.105  0.00  0.00    -0.000 A 
ATOM     20  C   UNL     1       3.626   7.662  -2.834  0.00  0.00    -0.000 A 
ATOM     21  C   UNL     1       2.844   7.184  -3.875  0.00  0.00    -0.003 A 
ENDBRANCH   1  16
TORSDOF 3
ENDMDL
MODEL 7
REMARK VINA RESULT:      -7.1      2.421      4.826
REMARK  Name = 
REMARK  3 active torsions:
REMARK  status: ('A' for Active; 'I' for Inactive)
REMARK    1  A    between atoms: N_5  and  C_6
REMARK    2  A    between atoms: C_6  and  C_7
REMARK    3  A    between atoms: C_6  and  C_13
REMARK                            x       y       z     vdW  Elec       q    Type
REMARK                         _______ _______ _______ _____ _____    ______ ____
ROOT
ATOM      1  C   UNL     1       3.139   6.788  -9.513  0.00  0.00    +0.103 C 
ENDROOT
BRANCH   1   6
ATOM      2  C   UNL     1       0.831   4.514 -13.399  0.00  0.00    +0.090 C 
ATOM      3  N   UNL     1       0.638   5.536 -12.547  0.00  0.00    -0.269 NA
ATOM      4  C   UNL     1       1.680   6.539 -12.520  0.00  0.00    +0.090 C 
ATOM      5  C   UNL     1       2.890   6.114 -11.725  0.00  0.00    +0.090 C 
ATOM      6  N   UNL     1       2.530   5.591 -10.406  0.00  0.00    -0.264 NA
ATOM      7  C   UNL     1       1.122   5.877 -10.249  0.00  0.00    +0.090 C 
ATOM      8  C   UNL     1       0.331   5.064 -11.221  0.00  0.00    +0.090 C 
ENDBRANCH   1   6
BRANCH   1   9
ATOM      9  C   UNL     1       4.645   6.564 -10.131  0.00  0.00    -0.004 A 
ATOM     10  C   UNL     1       5.298   5.449  -9.769  0.00  0.00    -0.002 A 
ATOM     11  C   UNL     1       6.584   5.315 -10.288  0.00  0.00    +0.011 A 
ATOM     12  C   UNL     1       7.186   6.365 -10.974  0.00  0.00    +0.058 A 
ATOM     13 CL   UNL     1       8.768   6.055 -11.662  0.00  0.00    -0.082 Cl
ATOM     14  C   UNL     1       6.423   7.470 -11.331  0.00  0.00    +0.011 A 
ATOM     15  C   UNL     1       5.131   7.627 -10.838  0.00  0.00    -0.002 A 
ENDBRANCH   1   9
BRANCH   1  16
ATOM     16  C   UNL     1       3.400   5.775  -8.232  0.00  0.00    -0.004 A 
ATOM     17  C   UNL     1       2.458   4.745  -8.216  0.00  0.00    -0.003 A 
ATOM     18  C   UNL     1       2.377   4.003  -7.048  0.00  0.00    -0.000 A 
ATOM     19  C   UNL     1       2.452   4.679  -5.835  0.00  0.00    -0.000 A 
ATOM     20  C   UNL     1       2.795   6.025  -5.885  0.00  0.00    -0.000 A 
ATOM     21  C   UNL     1       3.437   6.479  -7.028  0.00  0.00    -0.003 A 
ENDBRANCH   1  16
TORSDOF 3
ENDMDL
MODEL 8
REMARK VINA RESULT:      -7.1      4.284      7.012
REMARK  Name = 
REMARK  3 active torsions:
REMARK  status: ('A' for Active; 'I' for Inactive)
REMARK    1  A    between atoms: N_5  and  C_6
REMARK    2  A    between atoms: C_6  and  C_7
REMARK    3  A    between atoms: C_6  and  C_13
REMARK                            x       y       z     vdW  Elec       q    Type
REMARK                         _______ _______ _______ _____ _____    ______ ____
ROOT
ATOM      1  C   UNL     1       1.353   6.946  -5.065  0.00  0.00    +0.103 C 
ENDROOT
BRANCH   1   6
ATOM      2  C   UNL     1       4.213   4.695  -1.549  0.00  0.00    +0.090 C 
ATOM      3  N   UNL     1       4.348   5.464  -2.643  0.00  0.00    -0.269 NA
ATOM      4  C   UNL     1       3.637   6.724  -2.621  0.00  0.00    +0.090 C 
ATOM      5  C   UNL     1       2.164   6.576  -2.916  0.00  0.00    +0.090 C 
ATOM      6  N   UNL     1       1.918   5.772  -4.114  0.00  0.00    -0.264 NA
ATOM      7  C   UNL     1       3.214   5.581  -4.724  0.00  0.00    +0.090 C 
ATOM      8  C   UNL     1       4.064   4.724  -3.846  0.00  0.00    +0.090 C 
ENDBRANCH   1   6
BRANCH   1   9
ATOM      9  C   UNL     1      -0.179   6.744  -4.506  0.00  0.00    -0.004 A 
ATOM     10  C   UNL     1      -1.052   7.738  -4.732  0.00  0.00    -0.002 A 
ATOM     11  C   UNL     1      -2.328   7.540  -4.212  0.00  0.00    +0.011 A 
ATOM     12  C   UNL     1      -2.594   6.467  -3.367  0.00  0.00    +0.058 A 
ATOM     13 CL   UNL     1      -4.254   6.263  -2.845  0.00  0.00    -0.082 Cl
ATOM     14  C   UNL     1      -1.638   5.470  -3.213  0.00  0.00    +0.011 A 
ATOM     15  C   UNL     1      -0.356   5.632  -3.731  0.00  0.00    -0.002 A 
ENDBRANCH   1   9
BRANCH   1  16
ATOM     16  C   UNL     1       1.143   5.899  -6.328  0.00  0.00    -0.004 A 
ATOM     17  C   UNL     1       1.599   6.465  -7.520  0.00  0.00    -0.003 A 
ATOM     18  C   UNL     1       1.220   5.825  -8.690  0.00  0.00    -0.000 A 
ATOM     19  C   UNL     1      -0.085   5.352  -8.784  0.00  0.00    -0.000 A 
ATOM     20  C   UNL     1      -0.853   5.386  -7.627  0.00  0.00    -0.000 A 
ATOM     21  C   UNL     1      -0.180   5.470  -6.416  0.00  0.00    -0.003 A 
ENDBRANCH   1  16
TORSDOF 3
ENDMDL
MODEL 9
REMARK VINA RESULT:      -7.0      4.008      6.522
REMARK  Name = 
REMARK  3 active torsions:
REMARK  status: ('A' for Active; 'I' for Inactive)
REMARK    1  A    between atoms: N_5  and  C_6
REMARK    2  A    between atoms: C_6  and  C_7
REMARK    3  A    between atoms: C_6  and  C_13
REMARK                            x       y       z     vdW  Elec       q    Type
REMARK                         _______ _______ _______ _____ _____    ______ ____
ROOT
ATOM      1  C   UNL     1       1.204   7.000  -4.897  0.00  0.00    +0.103 C 
ENDROOT
BRANCH   1   6
ATOM      2  C   UNL     1      -3.411   5.802  -3.202  0.00  0.00    +0.090 C 
ATOM      3  N   UNL     1      -2.266   6.352  -2.760  0.00  0.00    -0.269 NA
ATOM      4  C   UNL     1      -1.797   7.508  -3.493  0.00  0.00    +0.090 C 
ATOM      5  C   UNL     1      -1.115   7.148  -4.790  0.00  0.00    +0.090 C 
ATOM      6  N   UNL     1      -0.106   6.103  -4.614  0.00  0.00    -0.264 NA
ATOM      7  C   UNL     1       0.031   5.936  -3.184  0.00  0.00    +0.090 C 
ATOM      8  C   UNL     1      -1.227   5.364  -2.620  0.00  0.00    +0.090 C 
ENDBRANCH   1   6
BRANCH   1   9
ATOM      9  C   UNL     1       1.181   6.635  -6.499  0.00  0.00    -0.004 A 
ATOM     10  C   UNL     1       1.849   7.453  -7.326  0.00  0.00    -0.002 A 
ATOM     11  C   UNL     1       1.775   7.126  -8.678  0.00  0.00    +0.011 A 
ATOM     12  C   UNL     1       0.912   6.130  -9.122  0.00  0.00    +0.058 A 
ATOM     13 CL   UNL     1       0.967   5.739 -10.829  0.00  0.00    -0.082 Cl
ATOM     14  C   UNL     1       0.282   5.312  -8.192  0.00  0.00    +0.011 A 
ATOM     15  C   UNL     1       0.347   5.605  -6.832  0.00  0.00    -0.002 A 
ENDBRANCH   1   9
BRANCH   1  16
ATOM     16  C   UNL     1       2.214   5.747  -4.518  0.00  0.00    -0.004 A 
ATOM     17  C   UNL     1       2.863   5.984  -3.305  0.00  0.00    -0.003 A 
ATOM     18  C   UNL     1       3.944   5.166  -3.015  0.00  0.00    -0.000 A 
ATOM     19  C   UNL     1       4.827   4.857  -4.045  0.00  0.00    -0.000 A 
ATOM     20  C   UNL     1       4.454   5.235  -5.329  0.00  0.00    -0.000 A 
ATOM     21  C   UNL     1       3.108   5.484  -5.556  0.00  0.00    -0.003 A 
ENDBRANCH   1  16
TORSDOF 3
ENDMDL
