MODEL 1
REMARK VINA RESULT:      -4.6      0.000      0.000
REMARK  Name = 
REMARK  0 active torsions:
REMARK  status: ('A' for Active; 'I' for Inactive)
REMARK                            x       y       z     vdW  Elec       q    Type
REMARK                         _______ _______ _______ _____ _____    ______ ____
ROOT
ATOM      1  O   UNL     1       7.731   4.661 -13.037  0.00  0.00    -0.287 OA
ATOM      2  C   UNL     1       7.191   5.307 -11.924  0.00  0.00    +0.196 A 
ATOM      3  C   UNL     1       7.960   5.777 -10.881  0.00  0.00    +0.045 A 
ATOM      4  C   UNL     1       7.325   5.946  -9.656  0.00  0.00    +0.045 A 
ATOM      5  C   UNL     1       5.986   5.607  -9.492  0.00  0.00    +0.196 A 
ATOM      6  O   UNL     1       5.461   5.267  -8.244  0.00  0.00    -0.287 OA
ATOM      7  C   UNL     1       5.196   5.690 -10.626  0.00  0.00    +0.045 A 
ATOM      8  C   UNL     1       5.827   5.563 -11.857  0.00  0.00    +0.045 A 
ENDROOT
TORSDOF 0
ENDMDL
MODEL 2
REMARK VINA RESULT:      -4.6      0.109      3.567
REMARK  Name = 
REMARK  0 active torsions:
REMARK  status: ('A' for Active; 'I' for Inactive)
REMARK                            x       y       z     vdW  Elec       q    Type
REMARK                         _______ _______ _______ _____ _____    ______ ____
ROOT
ATOM      1  O   UNL     1       5.468   5.414  -8.298  0.00  0.00    -0.287 OA
ATOM      2  C   UNL     1       5.985   5.708  -9.560  0.00  0.00    +0.196 A 
ATOM      3  C   UNL     1       5.198   5.830 -10.686  0.00  0.00    +0.045 A 
ATOM      4  C   UNL     1       5.820   5.637 -11.914  0.00  0.00    +0.045 A 
ATOM      5  C   UNL     1       7.165   5.289 -11.987  0.00  0.00    +0.196 A 
ATOM      6  O   UNL     1       7.688   4.601 -13.084  0.00  0.00    -0.287 OA
ATOM      7  C   UNL     1       7.962   5.722 -10.941  0.00  0.00    +0.045 A 
ATOM      8  C   UNL     1       7.343   5.958  -9.720  0.00  0.00    +0.045 A 
ENDROOT
TORSDOF 0
ENDMDL
MODEL 3
REMARK VINA RESULT:      -4.3      9.095     10.351
REMARK  Name = 
REMARK  0 active torsions:
REMARK  status: ('A' for Active; 'I' for Inactive)
REMARK                            x       y       z     vdW  Elec       q    Type
REMARK                         _______ _______ _______ _____ _____    ______ ____
ROOT
ATOM      1  O   UNL     1      -1.086   5.448  -7.076  0.00  0.00    -0.287 OA
ATOM      2  C   UNL     1      -1.225   5.770  -5.726  0.00  0.00    +0.196 A 
ATOM      3  C   UNL     1      -0.246   5.519  -4.788  0.00  0.00    +0.045 A 
ATOM      4  C   UNL     1      -0.653   5.420  -3.462  0.00  0.00    +0.045 A 
ATOM      5  C   UNL     1      -1.997   5.523  -3.118  0.00  0.00    +0.196 A 
ATOM      6  O   UNL     1      -2.505   4.940  -1.956  0.00  0.00    -0.287 OA
ATOM      7  C   UNL     1      -2.782   6.292  -3.960  0.00  0.00    +0.045 A 
ATOM      8  C   UNL     1      -2.362   6.431  -5.277  0.00  0.00    +0.045 A 
ENDROOT
TORSDOF 0
ENDMDL
MODEL 4
REMARK VINA RESULT:      -4.3      9.079     10.897
REMARK  Name = 
REMARK  0 active torsions:
REMARK  status: ('A' for Active; 'I' for Inactive)
REMARK                            x       y       z     vdW  Elec       q    Type
REMARK                         _______ _______ _______ _____ _____    ______ ____
ROOT
ATOM      1  O   UNL     1      -2.445   4.955  -1.952  0.00  0.00    -0.287 OA
ATOM      2  C   UNL     1      -1.971   5.547  -3.123  0.00  0.00    +0.196 A 
ATOM      3  C   UNL     1      -2.764   6.311  -3.954  0.00  0.00    +0.045 A 
ATOM      4  C   UNL     1      -2.356   6.432  -5.278  0.00  0.00    +0.045 A 
ATOM      5  C   UNL     1      -1.224   5.770  -5.741  0.00  0.00    +0.196 A 
ATOM      6  O   UNL     1      -1.066   5.435  -7.087  0.00  0.00    -0.287 OA
ATOM      7  C   UNL     1      -0.238   5.522  -4.800  0.00  0.00    +0.045 A 
ATOM      8  C   UNL     1      -0.629   5.439  -3.470  0.00  0.00    +0.045 A 
ENDROOT
TORSDOF 0
ENDMDL
MODEL 5
REMARK VINA RESULT:      -4.1      7.918      9.266
REMARK  Name = 
REMARK  0 active torsions:
REMARK  status: ('A' for Active; 'I' for Inactive)
REMARK                            x       y       z     vdW  Elec       q    Type
REMARK                         _______ _______ _______ _____ _____    ______ ____
ROOT
ATOM      1  O   UNL     1      -0.210   5.328  -8.228  0.00  0.00    -0.287 OA
ATOM      2  C   UNL     1      -0.628   5.732  -6.960  0.00  0.00    +0.196 A 
ATOM      3  C   UNL     1      -1.926   5.595  -6.516  0.00  0.00    +0.045 A 
ATOM      4  C   UNL     1      -2.333   6.438  -5.488  0.00  0.00    +0.045 A 
ATOM      5  C   UNL     1      -1.475   7.403  -4.972  0.00  0.00    +0.196 A 
ATOM      6  O   UNL     1      -1.954   8.559  -4.354  0.00  0.00    -0.287 OA
ATOM      7  C   UNL     1      -0.122   7.117  -5.052  0.00  0.00    +0.045 A 
ATOM      8  C   UNL     1       0.290   6.244  -6.050  0.00  0.00    +0.045 A 
ENDROOT
TORSDOF 0
ENDMDL
MODEL 6
REMARK VINA RESULT:      -4.1      2.013      3.498
REMARK  Name = 
REMARK  0 active torsions:
REMARK  status: ('A' for Active; 'I' for Inactive)
REMARK                            x       y       z     vdW  Elec       q    Type
REMARK                         _______ _______ _______ _____ _____    ______ ____
ROOT
ATOM      1  O   UNL     1       8.048   6.837  -9.403  0.00  0.00    -0.287 OA
ATOM      2  C   UNL     1       7.708   6.702 -10.750  0.00  0.00    +0.196 A 
ATOM      3  C   UNL     1       6.724   7.455 -11.355  0.00  0.00    +0.045 A 
ATOM      4  C   UNL     1       6.145   6.928 -12.504  0.00  0.00    +0.045 A 
ATOM      5  C   UNL     1       6.516   5.676 -12.983  0.00  0.00    +0.196 A 
ATOM      6  O   UNL     1       5.657   4.904 -13.767  0.00  0.00    -0.287 OA
ATOM      7  C   UNL     1       7.808   5.273 -12.689  0.00  0.00    +0.045 A 
ATOM      8  C   UNL     1       8.411   5.825 -11.566  0.00  0.00    +0.045 A 
ENDROOT
TORSDOF 0
ENDMDL
MODEL 7
REMARK VINA RESULT:      -4.0      1.462      3.135
REMARK  Name = 
REMARK  0 active torsions:
REMARK  status: ('A' for Active; 'I' for Inactive)
REMARK                            x       y       z     vdW  Elec       q    Type
REMARK                         _______ _______ _______ _____ _____    ______ ____
ROOT
ATOM      1  O   UNL     1       4.483   6.814 -10.650  0.00  0.00    -0.287 OA
ATOM      2  C   UNL     1       5.666   6.109 -10.875  0.00  0.00    +0.196 A 
ATOM      3  C   UNL     1       6.629   5.926  -9.905  0.00  0.00    +0.045 A 
ATOM      4  C   UNL     1       7.921   5.660 -10.342  0.00  0.00    +0.045 A 
ATOM      5  C   UNL     1       8.225   5.629 -11.699  0.00  0.00    +0.196 A 
ATOM      6  O   UNL     1       9.515   5.882 -12.170  0.00  0.00    -0.287 OA
ATOM      7  C   UNL     1       7.189   5.269 -12.545  0.00  0.00    +0.045 A 
ATOM      8  C   UNL     1       5.893   5.494 -12.101  0.00  0.00    +0.045 A 
ENDROOT
TORSDOF 0
ENDMDL
MODEL 8
REMARK VINA RESULT:      -4.0      6.037      7.103
REMARK  Name = 
REMARK  0 active torsions:
REMARK  status: ('A' for Active; 'I' for Inactive)
REMARK                            x       y       z     vdW  Elec       q    Type
REMARK                         _______ _______ _______ _____ _____    ______ ____
ROOT
ATOM      1  O   UNL     1       3.151   7.514  -6.481  0.00  0.00    -0.287 OA
ATOM      2  C   UNL     1       3.899   6.819  -5.532  0.00  0.00    +0.196 A 
ATOM      3  C   UNL     1       4.128   5.460  -5.602  0.00  0.00    +0.045 A 
ATOM      4  C   UNL     1       4.441   4.812  -4.412  0.00  0.00    +0.045 A 
ATOM      5  C   UNL     1       4.472   5.505  -3.207  0.00  0.00    +0.196 A 
ATOM      6  O   UNL     1       4.266   4.864  -1.984  0.00  0.00    -0.287 OA
ATOM      7  C   UNL     1       4.784   6.852  -3.289  0.00  0.00    +0.045 A 
ATOM      8  C   UNL     1       4.513   7.500  -4.487  0.00  0.00    +0.045 A 
ENDROOT
TORSDOF 0
ENDMDL
MODEL 9
REMARK VINA RESULT:      -3.8      6.893      8.536
REMARK  Name = 
REMARK  0 active torsions:
REMARK  status: ('A' for Active; 'I' for Inactive)
REMARK                            x       y       z     vdW  Elec       q    Type
REMARK                         _______ _______ _______ _____ _____    ______ ____
ROOT
ATOM      1  O   UNL     1      -2.737   5.477  -6.359  0.00  0.00    -0.287 OA
ATOM      2  C   UNL     1      -1.342   5.495  -6.357  0.00  0.00    +0.196 A 
ATOM      3  C   UNL     1      -0.590   5.524  -7.513  0.00  0.00    +0.045 A 
ATOM      4  C   UNL     1       0.717   5.058  -7.425  0.00  0.00    +0.045 A 
ATOM      5  C   UNL     1       1.215   4.544  -6.232  0.00  0.00    +0.196 A 
ATOM      6  O   UNL     1       2.268   3.628  -6.209  0.00  0.00    -0.287 OA
ATOM      7  C   UNL     1       0.648   5.044  -5.073  0.00  0.00    +0.045 A 
ATOM      8  C   UNL     1      -0.643   5.550  -5.158  0.00  0.00    +0.045 A 
ENDROOT
TORSDOF 0
ENDMDL
