MODEL 1
REMARK VINA RESULT:      -7.3      0.000      0.000
REMARK  Name = 
REMARK  2 active torsions:
REMARK  status: ('A' for Active; 'I' for Inactive)
REMARK    1  A    between atoms: N_11  and  C1*_12
REMARK    2  A    between atoms: C4*_14  and  C5*_15
REMARK                            x       y       z     vdW  Elec       q    Type
REMARK                         _______ _______ _______ _____ _____    ______ ____
ROOT
ATOM      1  N   UNL     1      -2.675   5.142  -1.900  0.00  0.00    -0.105 NA
ATOM      2  C   UNL     1      -1.678   5.597  -2.680  0.00  0.00    +0.194 A 
ATOM      3  C   UNL     1      -0.350   5.321  -2.457  0.00  0.00    +0.152 A 
ATOM      4  N   UNL     1       0.229   4.507  -1.549  0.00  0.00    -0.219 NA
ATOM      5  C   UNL     1       1.456   5.011  -1.444  0.00  0.00    +0.182 A 
ATOM      6  N   UNL     1       1.879   5.565  -2.619  0.00  0.00    -0.269 N 
ATOM      7  C   UNL     1       0.686   5.788  -3.254  0.00  0.00    +0.171 A 
ATOM      8  N   UNL     1       0.239   6.832  -4.010  0.00  0.00    -0.182 NA
ATOM      9  C   UNL     1      -1.023   7.018  -4.358  0.00  0.00    +0.313 A 
ATOM     10  F   UNL     1      -1.366   8.037  -5.199  0.00  0.00    -0.161 F 
ATOM     11  N   UNL     1      -2.002   6.422  -3.681  0.00  0.00    -0.181 NA
ENDROOT
BRANCH   6  12
ATOM     12  C1* UNL     1       2.799   6.886  -2.473  0.00  0.00    +0.241 C 
ATOM     13  C2* UNL     1       4.313   6.047  -2.600  0.00  0.00    +0.234 C 
ATOM     14  O2* UNL     1       3.966   4.921  -1.663  0.00  0.00    -0.216 OA
ATOM     15  C3* UNL     1       3.759   5.250  -4.003  0.00  0.00    +0.216 C 
ATOM     16  O3* UNL     1       5.177   4.936  -4.434  0.00  0.00    -0.218 OA
ATOM     17  C4* UNL     1       3.946   6.877  -4.578  0.00  0.00    +0.183 C 
ATOM     18  O4* UNL     1       2.640   7.210  -3.944  0.00  0.00    -0.331 OA
BRANCH  17  19
ATOM     19  C5* UNL     1       3.248   6.436  -6.017  0.00  0.00    +0.214 C 
ATOM     20  O5* UNL     1       2.966   7.562  -6.708  0.00  0.00    -0.218 OA
ENDBRANCH  17  19
ENDBRANCH   6  12
TORSDOF 2
ENDMDL
MODEL 2
REMARK VINA RESULT:      -7.2      2.228      3.817
REMARK  Name = 
REMARK  2 active torsions:
REMARK  status: ('A' for Active; 'I' for Inactive)
REMARK    1  A    between atoms: N_11  and  C1*_12
REMARK    2  A    between atoms: C4*_14  and  C5*_15
REMARK                            x       y       z     vdW  Elec       q    Type
REMARK                         _______ _______ _______ _____ _____    ______ ____
ROOT
ATOM      1  N   UNL     1      -3.147   5.192  -2.622  0.00  0.00    -0.105 NA
ATOM      2  C   UNL     1      -1.840   5.338  -2.902  0.00  0.00    +0.194 A 
ATOM      3  C   UNL     1      -1.352   5.562  -4.167  0.00  0.00    +0.152 A 
ATOM      4  N   UNL     1      -2.008   5.784  -5.326  0.00  0.00    -0.219 NA
ATOM      5  C   UNL     1      -1.116   5.420  -6.243  0.00  0.00    +0.182 A 
ATOM      6  N   UNL     1       0.164   5.650  -5.825  0.00  0.00    -0.269 N 
ATOM      7  C   UNL     1      -0.005   5.709  -4.467  0.00  0.00    +0.171 A 
ATOM      8  N   UNL     1       0.743   5.225  -3.435  0.00  0.00    -0.182 NA
ATOM      9  C   UNL     1       0.330   5.149  -2.180  0.00  0.00    +0.313 A 
ATOM     10  F   UNL     1       1.181   4.741  -1.195  0.00  0.00    -0.161 F 
ATOM     11  N   UNL     1      -0.971   5.180  -1.899  0.00  0.00    -0.181 NA
ENDROOT
BRANCH   6  12
ATOM     12  C1* UNL     1       1.258   4.558  -6.300  0.00  0.00    +0.241 C 
ATOM     13  C2* UNL     1       1.751   5.426  -7.720  0.00  0.00    +0.234 C 
ATOM     14  O2* UNL     1       0.366   5.778  -8.197  0.00  0.00    -0.216 OA
ATOM     15  C3* UNL     1       1.951   6.842  -6.790  0.00  0.00    +0.216 C 
ATOM     16  O3* UNL     1       2.860   7.452  -7.838  0.00  0.00    -0.218 OA
ATOM     17  C4* UNL     1       3.266   5.863  -6.222  0.00  0.00    +0.183 C 
ATOM     18  O4* UNL     1       2.298   5.130  -5.360  0.00  0.00    -0.331 OA
BRANCH  17  19
ATOM     19  C5* UNL     1       3.595   7.000  -5.058  0.00  0.00    +0.214 C 
ATOM     20  O5* UNL     1       4.936   7.074  -4.913  0.00  0.00    -0.218 OA
ENDBRANCH  17  19
ENDBRANCH   6  12
TORSDOF 2
ENDMDL
MODEL 3
REMARK VINA RESULT:      -7.2      6.668      8.895
REMARK  Name = 
REMARK  2 active torsions:
REMARK  status: ('A' for Active; 'I' for Inactive)
REMARK    1  A    between atoms: N_11  and  C1*_12
REMARK    2  A    between atoms: C4*_14  and  C5*_15
REMARK                            x       y       z     vdW  Elec       q    Type
REMARK                         _______ _______ _______ _____ _____    ______ ____
ROOT
ATOM      1  N   UNL     1       8.155   5.238 -12.716  0.00  0.00    -0.105 NA
ATOM      2  C   UNL     1       6.849   5.328 -12.409  0.00  0.00    +0.194 A 
ATOM      3  C   UNL     1       6.379   5.545 -11.136  0.00  0.00    +0.152 A 
ATOM      4  N   UNL     1       7.049   5.812  -9.995  0.00  0.00    -0.219 NA
ATOM      5  C   UNL     1       6.194   5.420  -9.055  0.00  0.00    +0.182 A 
ATOM      6  N   UNL     1       4.896   5.586  -9.446  0.00  0.00    -0.269 N 
ATOM      7  C   UNL     1       5.033   5.636 -10.808  0.00  0.00    +0.171 A 
ATOM      8  N   UNL     1       4.285   5.104 -11.818  0.00  0.00    -0.182 NA
ATOM      9  C   UNL     1       4.675   5.032 -13.080  0.00  0.00    +0.313 A 
ATOM     10  F   UNL     1       3.823   4.572 -14.042  0.00  0.00    -0.161 F 
ATOM     11  N   UNL     1       5.967   5.118 -13.391  0.00  0.00    -0.181 NA
ENDROOT
BRANCH   6  12
ATOM     12  C1* UNL     1       3.864   4.452  -8.934  0.00  0.00    +0.241 C 
ATOM     13  C2* UNL     1       3.376   5.306  -7.505  0.00  0.00    +0.234 C 
ATOM     14  O2* UNL     1       4.758   5.718  -7.070  0.00  0.00    -0.216 OA
ATOM     15  C3* UNL     1       3.089   6.707  -8.435  0.00  0.00    +0.216 C 
ATOM     16  O3* UNL     1       2.186   7.283  -7.363  0.00  0.00    -0.218 OA
ATOM     17  C4* UNL     1       1.800   5.670  -8.959  0.00  0.00    +0.183 C 
ATOM     18  O4* UNL     1       2.773   4.974  -9.847  0.00  0.00    -0.331 OA
BRANCH  17  19
ATOM     19  C5* UNL     1       1.390   6.785 -10.118  0.00  0.00    +0.214 C 
ATOM     20  O5* UNL     1       0.096   6.586 -10.451  0.00  0.00    -0.218 OA
ENDBRANCH  17  19
ENDBRANCH   6  12
TORSDOF 2
ENDMDL
MODEL 4
REMARK VINA RESULT:      -6.8      6.755      8.418
REMARK  Name = 
REMARK  2 active torsions:
REMARK  status: ('A' for Active; 'I' for Inactive)
REMARK    1  A    between atoms: N_11  and  C1*_12
REMARK    2  A    between atoms: C4*_14  and  C5*_15
REMARK                            x       y       z     vdW  Elec       q    Type
REMARK                         _______ _______ _______ _____ _____    ______ ____
ROOT
ATOM      1  N   UNL     1       1.380   4.670  -8.460  0.00  0.00    -0.105 NA
ATOM      2  C   UNL     1       2.078   5.042  -9.548  0.00  0.00    +0.194 A 
ATOM      3  C   UNL     1       3.451   5.082  -9.596  0.00  0.00    +0.152 A 
ATOM      4  N   UNL     1       4.366   4.689  -8.684  0.00  0.00    -0.219 NA
ATOM      5  C   UNL     1       5.435   5.408  -9.012  0.00  0.00    +0.182 A 
ATOM      6  N   UNL     1       5.489   5.655 -10.354  0.00  0.00    -0.269 N 
ATOM      7  C   UNL     1       4.180   5.468 -10.712  0.00  0.00    +0.171 A 
ATOM      8  N   UNL     1       3.365   6.145 -11.572  0.00  0.00    -0.182 NA
ATOM      9  C   UNL     1       2.053   5.995 -11.635  0.00  0.00    +0.313 A 
ATOM     10  F   UNL     1       1.327   6.643 -12.592  0.00  0.00    -0.161 F 
ATOM     11  N   UNL     1       1.387   5.463 -10.612  0.00  0.00    -0.181 NA
ENDROOT
BRANCH   6  12
ATOM     12  C1* UNL     1       6.080   7.101 -10.772  0.00  0.00    +0.241 C 
ATOM     13  C2* UNL     1       7.712   6.555 -10.991  0.00  0.00    +0.234 C 
ATOM     14  O2* UNL     1       7.789   5.731  -9.733  0.00  0.00    -0.216 OA
ATOM     15  C3* UNL     1       7.156   5.275 -11.973  0.00  0.00    +0.216 C 
ATOM     16  O3* UNL     1       8.525   5.106 -12.600  0.00  0.00    -0.218 OA
ATOM     17  C4* UNL     1       6.862   6.649 -12.992  0.00  0.00    +0.183 C 
ATOM     18  O4* UNL     1       5.626   6.918 -12.206  0.00  0.00    -0.331 OA
BRANCH  17  19
ATOM     19  C5* UNL     1       6.078   5.664 -14.074  0.00  0.00    +0.214 C 
ATOM     20  O5* UNL     1       5.037   6.353 -14.589  0.00  0.00    -0.218 OA
ENDBRANCH  17  19
ENDBRANCH   6  12
TORSDOF 2
ENDMDL
MODEL 5
REMARK VINA RESULT:      -6.7      2.181      2.751
REMARK  Name = 
REMARK  2 active torsions:
REMARK  status: ('A' for Active; 'I' for Inactive)
REMARK    1  A    between atoms: N_11  and  C1*_12
REMARK    2  A    between atoms: C4*_14  and  C5*_15
REMARK                            x       y       z     vdW  Elec       q    Type
REMARK                         _______ _______ _______ _____ _____    ______ ____
ROOT
ATOM      1  N   UNL     1      -2.395   6.155  -1.403  0.00  0.00    -0.105 NA
ATOM      2  C   UNL     1      -2.010   6.235  -2.689  0.00  0.00    +0.194 A 
ATOM      3  C   UNL     1      -0.821   5.731  -3.161  0.00  0.00    +0.152 A 
ATOM      4  N   UNL     1       0.123   4.996  -2.536  0.00  0.00    -0.219 NA
ATOM      5  C   UNL     1       1.211   5.239  -3.260  0.00  0.00    +0.182 A 
ATOM      6  N   UNL     1       0.908   5.463  -4.573  0.00  0.00    -0.269 N 
ATOM      7  C   UNL     1      -0.413   5.812  -4.486  0.00  0.00    +0.171 A 
ATOM      8  N   UNL     1      -1.146   6.768  -5.126  0.00  0.00    -0.182 NA
ATOM      9  C   UNL     1      -2.360   7.150  -4.764  0.00  0.00    +0.313 A 
ATOM     10  F   UNL     1      -3.059   8.044  -5.521  0.00  0.00    -0.161 F 
ATOM     11  N   UNL     1      -2.799   6.910  -3.530  0.00  0.00    -0.181 NA
ENDROOT
BRANCH   6  12
ATOM     12  C1* UNL     1       1.827   6.564  -5.321  0.00  0.00    +0.241 C 
ATOM     13  C2* UNL     1       2.907   5.413  -6.043  0.00  0.00    +0.234 C 
ATOM     14  O2* UNL     1       3.104   4.565  -4.814  0.00  0.00    -0.216 OA
ATOM     15  C3* UNL     1       1.575   4.522  -6.626  0.00  0.00    +0.216 C 
ATOM     16  O3* UNL     1       2.434   3.844  -7.674  0.00  0.00    -0.218 OA
ATOM     17  C4* UNL     1       1.500   5.948  -7.613  0.00  0.00    +0.183 C 
ATOM     18  O4* UNL     1       0.850   6.655  -6.475  0.00  0.00    -0.331 OA
BRANCH  17  19
ATOM     19  C5* UNL     1       0.056   5.423  -8.241  0.00  0.00    +0.214 C 
ATOM     20  O5* UNL     1      -0.023   5.847  -9.521  0.00  0.00    -0.218 OA
ENDBRANCH  17  19
ENDBRANCH   6  12
TORSDOF 2
ENDMDL
MODEL 6
REMARK VINA RESULT:      -6.6      5.883      7.858
REMARK  Name = 
REMARK  2 active torsions:
REMARK  status: ('A' for Active; 'I' for Inactive)
REMARK    1  A    between atoms: N_11  and  C1*_12
REMARK    2  A    between atoms: C4*_14  and  C5*_15
REMARK                            x       y       z     vdW  Elec       q    Type
REMARK                         _______ _______ _______ _____ _____    ______ ____
ROOT
ATOM      1  N   UNL     1       2.512   5.731 -14.479  0.00  0.00    -0.105 NA
ATOM      2  C   UNL     1       2.091   5.634 -13.204  0.00  0.00    +0.194 A 
ATOM      3  C   UNL     1       2.921   5.762 -12.117  0.00  0.00    +0.152 A 
ATOM      4  N   UNL     1       4.227   6.098 -12.053  0.00  0.00    -0.219 NA
ATOM      5  C   UNL     1       4.609   5.575 -10.891  0.00  0.00    +0.182 A 
ATOM      6  N   UNL     1       3.592   5.568  -9.979  0.00  0.00    -0.269 N 
ATOM      7  C   UNL     1       2.498   5.660 -10.798  0.00  0.00    +0.171 A 
ATOM      8  N   UNL     1       1.279   5.048 -10.762  0.00  0.00    -0.182 NA
ATOM      9  C   UNL     1       0.408   5.053 -11.757  0.00  0.00    +0.313 A 
ATOM     10  F   UNL     1      -0.828   4.498 -11.598  0.00  0.00    -0.161 F 
ATOM     11  N   UNL     1       0.808   5.322 -12.999  0.00  0.00    -0.181 NA
ENDROOT
BRANCH   6  12
ATOM     12  C1* UNL     1       3.558   4.293  -8.985  0.00  0.00    +0.241 C 
ATOM     13  C2* UNL     1       4.379   5.083  -7.676  0.00  0.00    +0.234 C 
ATOM     14  O2* UNL     1       5.462   5.716  -8.509  0.00  0.00    -0.216 OA
ATOM     15  C3* UNL     1       3.307   6.405  -7.797  0.00  0.00    +0.216 C 
ATOM     16  O3* UNL     1       3.630   6.849  -6.385  0.00  0.00    -0.218 OA
ATOM     17  C4* UNL     1       2.265   5.168  -7.167  0.00  0.00    +0.183 C 
ATOM     18  O4* UNL     1       2.145   4.620  -8.546  0.00  0.00    -0.331 OA
BRANCH  17  19
ATOM     19  C5* UNL     1       0.966   6.185  -7.351  0.00  0.00    +0.214 C 
ATOM     20  O5* UNL     1      -0.107   5.436  -7.687  0.00  0.00    -0.218 OA
ENDBRANCH  17  19
ENDBRANCH   6  12
TORSDOF 2
ENDMDL
MODEL 7
REMARK VINA RESULT:      -6.5      3.290      5.518
REMARK  Name = 
REMARK  2 active torsions:
REMARK  status: ('A' for Active; 'I' for Inactive)
REMARK    1  A    between atoms: N_11  and  C1*_12
REMARK    2  A    between atoms: C4*_14  and  C5*_15
REMARK                            x       y       z     vdW  Elec       q    Type
REMARK                         _______ _______ _______ _____ _____    ______ ____
ROOT
ATOM      1  N   UNL     1       2.066   4.464  -8.569  0.00  0.00    -0.105 NA
ATOM      2  C   UNL     1       1.948   4.659  -7.244  0.00  0.00    +0.194 A 
ATOM      3  C   UNL     1       0.762   4.965  -6.621  0.00  0.00    +0.152 A 
ATOM      4  N   UNL     1      -0.491   5.032  -7.120  0.00  0.00    -0.219 NA
ATOM      5  C   UNL     1      -1.107   5.837  -6.259  0.00  0.00    +0.182 A 
ATOM      6  N   UNL     1      -0.601   5.714  -4.997  0.00  0.00    -0.269 N 
ATOM      7  C   UNL     1       0.630   5.172  -5.255  0.00  0.00    +0.171 A 
ATOM      8  N   UNL     1       1.860   5.407  -4.713  0.00  0.00    -0.182 NA
ATOM      9  C   UNL     1       3.000   4.980  -5.230  0.00  0.00    +0.313 A 
ATOM     10  F   UNL     1       4.177   5.179  -4.569  0.00  0.00    -0.161 F 
ATOM     11  N   UNL     1       3.066   4.623  -6.511  0.00  0.00    -0.181 NA
ENDROOT
BRANCH   6  12
ATOM     12  C1* UNL     1      -0.545   7.080  -4.133  0.00  0.00    +0.241 C 
ATOM     13  C2* UNL     1      -2.026   6.792  -3.275  0.00  0.00    +0.234 C 
ATOM     14  O2* UNL     1      -2.835   6.355  -4.468  0.00  0.00    -0.216 OA
ATOM     15  C3* UNL     1      -1.493   5.222  -2.874  0.00  0.00    +0.216 C 
ATOM     16  O3* UNL     1      -2.474   5.139  -1.722  0.00  0.00    -0.218 OA
ATOM     17  C4* UNL     1      -0.442   6.205  -1.904  0.00  0.00    +0.183 C 
ATOM     18  O4* UNL     1       0.386   6.449  -3.118  0.00  0.00    -0.331 OA
BRANCH  17  19
ATOM     19  C5* UNL     1       0.411   4.848  -1.474  0.00  0.00    +0.214 C 
ATOM     20  O5* UNL     1       1.703   5.203  -1.298  0.00  0.00    -0.218 OA
ENDBRANCH  17  19
ENDBRANCH   6  12
TORSDOF 2
ENDMDL
MODEL 8
REMARK VINA RESULT:      -6.5      4.629      6.453
REMARK  Name = 
REMARK  2 active torsions:
REMARK  status: ('A' for Active; 'I' for Inactive)
REMARK    1  A    between atoms: N_11  and  C1*_12
REMARK    2  A    between atoms: C4*_14  and  C5*_15
REMARK                            x       y       z     vdW  Elec       q    Type
REMARK                         _______ _______ _______ _____ _____    ______ ____
ROOT
ATOM      1  N   UNL     1       3.582   5.993 -12.105  0.00  0.00    -0.105 NA
ATOM      2  C   UNL     1       2.692   5.774 -11.121  0.00  0.00    +0.194 A 
ATOM      3  C   UNL     1       2.994   5.876  -9.784  0.00  0.00    +0.152 A 
ATOM      4  N   UNL     1       4.125   6.294  -9.176  0.00  0.00    -0.219 NA
ATOM      5  C   UNL     1       4.049   5.713  -7.983  0.00  0.00    +0.182 A 
ATOM      6  N   UNL     1       2.755   5.569  -7.569  0.00  0.00    -0.269 N 
ATOM      7  C   UNL     1       2.084   5.648  -8.761  0.00  0.00    +0.171 A 
ATOM      8  N   UNL     1       1.017   4.954  -9.252  0.00  0.00    -0.182 NA
ATOM      9  C   UNL     1       0.628   4.974 -10.516  0.00  0.00    +0.313 A 
ATOM     10  F   UNL     1      -0.510   4.326 -10.901  0.00  0.00    -0.161 F 
ATOM     11  N   UNL     1       1.470   5.361 -11.472  0.00  0.00    -0.181 NA
ENDROOT
BRANCH   6  12
ATOM     12  C1* UNL     1       2.438   4.225  -6.729  0.00  0.00    +0.241 C 
ATOM     13  C2* UNL     1       2.687   4.943  -5.169  0.00  0.00    +0.234 C 
ATOM     14  O2* UNL     1       3.960   5.671  -5.515  0.00  0.00    -0.216 OA
ATOM     15  C3* UNL     1       1.657   6.235  -5.595  0.00  0.00    +0.216 C 
ATOM     16  O3* UNL     1       1.425   6.585  -4.139  0.00  0.00    -0.218 OA
ATOM     17  C4* UNL     1       0.531   4.922  -5.457  0.00  0.00    +0.183 C 
ATOM     18  O4* UNL     1       0.946   4.473  -6.814  0.00  0.00    -0.331 OA
BRANCH  17  19
ATOM     19  C5* UNL     1      -0.671   5.907  -6.041  0.00  0.00    +0.214 C 
ATOM     20  O5* UNL     1      -1.466   5.165  -6.843  0.00  0.00    -0.218 OA
ENDBRANCH  17  19
ENDBRANCH   6  12
TORSDOF 2
ENDMDL
MODEL 9
REMARK VINA RESULT:      -6.5      3.060      4.948
REMARK  Name = 
REMARK  2 active torsions:
REMARK  status: ('A' for Active; 'I' for Inactive)
REMARK    1  A    between atoms: N_11  and  C1*_12
REMARK    2  A    between atoms: C4*_14  and  C5*_15
REMARK                            x       y       z     vdW  Elec       q    Type
REMARK                         _______ _______ _______ _____ _____    ______ ____
ROOT
ATOM      1  N   UNL     1       2.515   6.503  -7.220  0.00  0.00    -0.105 NA
ATOM      2  C   UNL     1       1.424   6.300  -6.461  0.00  0.00    +0.194 A 
ATOM      3  C   UNL     1       1.395   6.497  -5.101  0.00  0.00    +0.152 A 
ATOM      4  N   UNL     1       2.333   7.005  -4.275  0.00  0.00    -0.219 NA
ATOM      5  C   UNL     1       1.994   6.494  -3.095  0.00  0.00    +0.182 A 
ATOM      6  N   UNL     1       0.645   6.312  -2.990  0.00  0.00    -0.269 N 
ATOM      7  C   UNL     1       0.275   6.286  -4.308  0.00  0.00    +0.171 A 
ATOM      8  N   UNL     1      -0.621   5.513  -4.988  0.00  0.00    -0.182 NA
ATOM      9  C   UNL     1      -0.697   5.438  -6.306  0.00  0.00    +0.313 A 
ATOM     10  F   UNL     1      -1.688   4.713  -6.902  0.00  0.00    -0.161 F 
ATOM     11  N   UNL     1       0.336   5.807  -7.061  0.00  0.00    -0.181 NA
ENDROOT
BRANCH   6  12
ATOM     12  C1* UNL     1       0.182   5.006  -2.156  0.00  0.00    +0.241 C 
ATOM     13  C2* UNL     1      -0.044   5.842  -0.652  0.00  0.00    +0.234 C 
ATOM     14  O2* UNL     1       1.234   6.637  -0.703  0.00  0.00    -0.216 OA
ATOM     15  C3* UNL     1      -0.985   7.023  -1.446  0.00  0.00    +0.216 C 
ATOM     16  O3* UNL     1      -1.624   7.451  -0.140  0.00  0.00    -0.218 OA
ATOM     17  C4* UNL     1      -2.035   5.643  -1.506  0.00  0.00    +0.183 C 
ATOM     18  O4* UNL     1      -1.241   5.137  -2.660  0.00  0.00    -0.331 OA
BRANCH  17  19
ATOM     19  C5* UNL     1      -3.081   6.496  -2.472  0.00  0.00    +0.214 C 
ATOM     20  O5* UNL     1      -3.718   5.617  -3.277  0.00  0.00    -0.218 OA
ENDBRANCH  17  19
ENDBRANCH   6  12
TORSDOF 2
ENDMDL
