MODEL 1
REMARK VINA RESULT:      -8.7      0.000      0.000
REMARK  Name = 
REMARK  0 active torsions:
REMARK  status: ('A' for Active; 'I' for Inactive)
REMARK                            x       y       z     vdW  Elec       q    Type
REMARK                         _______ _______ _______ _____ _____    ______ ____
ROOT
ATOM      1  C   UNL     1       4.250   5.330  -3.462  0.00  0.00    +0.090 C 
ATOM      2  N   UNL     1       2.940   5.199  -4.093  0.00  0.00    -0.271 NA
ATOM      3  C   UNL     1       2.303   6.441  -4.125  0.00  0.00    +0.077 C 
ATOM      4  C   UNL     1       2.360   6.910  -5.690  0.00  0.00    +0.047 C 
ATOM      5  C   UNL     1       3.865   6.096  -5.876  0.00  0.00    +0.047 C 
ATOM      6  C   UNL     1       3.783   5.761  -7.439  0.00  0.00    +0.014 A 
ATOM      7  C   UNL     1       3.190   6.539  -8.395  0.00  0.00    +0.141 A 
ATOM      8  O   UNL     1       1.790   6.448  -8.465  0.00  0.00    -0.454 OA
ATOM      9  C   UNL     1       0.893   6.024  -7.476  0.00  0.00    +0.141 A 
ATOM     10  C   UNL     1      -0.310   5.563  -7.942  0.00  0.00    +0.038 A 
ATOM     11  C   UNL     1      -1.220   5.192  -6.957  0.00  0.00    +0.015 A 
ATOM     12  C   UNL     1      -0.989   5.623  -5.657  0.00  0.00    +0.058 A 
ATOM     13  C   UNL     1       0.339   5.624  -5.280  0.00  0.00    +0.010 A 
ATOM     14 CL   UNL     1      -2.323   6.122  -4.631  0.00  0.00    -0.082 Cl
ATOM     15  C   UNL     1       3.739   6.669  -9.664  0.00  0.00    +0.037 A 
ATOM     16  C   UNL     1       4.971   6.109  -9.921  0.00  0.00    +0.003 A 
ATOM     17  C   UNL     1       5.645   5.390  -8.956  0.00  0.00    -0.000 A 
ATOM     18  C   UNL     1       5.109   5.403  -7.675  0.00  0.00    -0.001 A 
ATOM     19  C   UNL     1       1.389   5.724  -6.198  0.00  0.00    +0.015 A 
ATOM     20  C   UNL     1       3.195   4.673  -5.399  0.00  0.00    +0.077 C 
ENDROOT
TORSDOF 0
ENDMDL
MODEL 2
REMARK VINA RESULT:      -8.6      2.357      4.890
REMARK  Name = 
REMARK  0 active torsions:
REMARK  status: ('A' for Active; 'I' for Inactive)
REMARK                            x       y       z     vdW  Elec       q    Type
REMARK                         _______ _______ _______ _____ _____    ______ ____
ROOT
ATOM      1  C   UNL     1       3.091   5.681  -2.728  0.00  0.00    +0.090 C 
ATOM      2  N   UNL     1       3.401   5.942  -4.131  0.00  0.00    -0.271 NA
ATOM      3  C   UNL     1       3.629   4.737  -4.799  0.00  0.00    +0.077 C 
ATOM      4  C   UNL     1       2.311   4.512  -5.738  0.00  0.00    +0.047 C 
ATOM      5  C   UNL     1       1.340   5.304  -4.559  0.00  0.00    +0.047 C 
ATOM      6  C   UNL     1       0.192   5.877  -5.516  0.00  0.00    +0.014 A 
ATOM      7  C   UNL     1      -0.286   5.270  -6.646  0.00  0.00    +0.141 A 
ATOM      8  O   UNL     1       0.515   5.409  -7.791  0.00  0.00    -0.454 OA
ATOM      9  C   UNL     1       1.884   5.701  -7.867  0.00  0.00    +0.141 A 
ATOM     10  C   UNL     1       2.294   6.260  -9.049  0.00  0.00    +0.038 A 
ATOM     11  C   UNL     1       3.660   6.501  -9.144  0.00  0.00    +0.015 A 
ATOM     12  C   UNL     1       4.501   5.870  -8.235  0.00  0.00    +0.058 A 
ATOM     13  C   UNL     1       3.994   5.775  -6.955  0.00  0.00    +0.010 A 
ATOM     14 CL   UNL     1       6.065   5.256  -8.743  0.00  0.00    -0.082 Cl
ATOM     15  C   UNL     1      -1.634   5.321  -6.979  0.00  0.00    +0.037 A 
ATOM     16  C   UNL     1      -2.523   5.881  -6.089  0.00  0.00    +0.003 A 
ATOM     17  C   UNL     1      -2.094   6.425  -4.896  0.00  0.00    -0.000 A 
ATOM     18  C   UNL     1      -0.760   6.231  -4.560  0.00  0.00    -0.001 A 
ATOM     19  C   UNL     1       2.624   5.788  -6.678  0.00  0.00    +0.015 A 
ATOM     20  C   UNL     1       2.271   6.655  -4.646  0.00  0.00    +0.077 C 
ENDROOT
TORSDOF 0
ENDMDL
MODEL 3
REMARK VINA RESULT:      -8.6      3.203      6.026
REMARK  Name = 
REMARK  0 active torsions:
REMARK  status: ('A' for Active; 'I' for Inactive)
REMARK                            x       y       z     vdW  Elec       q    Type
REMARK                         _______ _______ _______ _____ _____    ______ ____
ROOT
ATOM      1  C   UNL     1       0.250   5.262 -11.755  0.00  0.00    +0.090 C 
ATOM      2  N   UNL     1       1.517   5.138 -11.042  0.00  0.00    -0.271 NA
ATOM      3  C   UNL     1       2.150   6.382 -10.981  0.00  0.00    +0.077 C 
ATOM      4  C   UNL     1       1.994   6.866  -9.428  0.00  0.00    +0.047 C 
ATOM      5  C   UNL     1       0.481   6.052  -9.330  0.00  0.00    +0.047 C 
ATOM      6  C   UNL     1       0.463   5.732  -7.762  0.00  0.00    +0.014 A 
ATOM      7  C   UNL     1       0.994   6.521  -6.777  0.00  0.00    +0.141 A 
ATOM      8  O   UNL     1       2.387   6.432  -6.617  0.00  0.00    -0.454 OA
ATOM      9  C   UNL     1       3.345   5.999  -7.544  0.00  0.00    +0.141 A 
ATOM     10  C   UNL     1       4.517   5.544  -6.998  0.00  0.00    +0.038 A 
ATOM     11  C   UNL     1       5.487   5.164  -7.919  0.00  0.00    +0.015 A 
ATOM     12  C   UNL     1       5.339   5.582  -9.236  0.00  0.00    +0.058 A 
ATOM     13  C   UNL     1       4.037   5.578  -9.696  0.00  0.00    +0.010 A 
ATOM     14 CL   UNL     1       6.735   6.072 -10.180  0.00  0.00    -0.082 Cl
ATOM     15  C   UNL     1       0.366   6.663  -5.547  0.00  0.00    +0.037 A 
ATOM     16  C   UNL     1      -0.879   6.103  -5.363  0.00  0.00    +0.003 A 
ATOM     17  C   UNL     1      -1.491   5.375  -6.361  0.00  0.00    -0.000 A 
ATOM     18  C   UNL     1      -0.875   5.375  -7.607  0.00  0.00    -0.001 A 
ATOM     19  C   UNL     1       2.932   5.686  -8.848  0.00  0.00    +0.015 A 
ATOM     20  C   UNL     1       1.180   4.625  -9.749  0.00  0.00    +0.077 C 
ENDROOT
TORSDOF 0
ENDMDL
MODEL 4
REMARK VINA RESULT:      -8.3      2.703      5.049
REMARK  Name = 
REMARK  0 active torsions:
REMARK  status: ('A' for Active; 'I' for Inactive)
REMARK                            x       y       z     vdW  Elec       q    Type
REMARK                         _______ _______ _______ _____ _____    ______ ____
ROOT
ATOM      1  C   UNL     1       4.147   6.613  -5.377  0.00  0.00    +0.090 C 
ATOM      2  N   UNL     1       3.684   6.679  -6.760  0.00  0.00    -0.271 NA
ATOM      3  C   UNL     1       3.688   5.400  -7.322  0.00  0.00    +0.077 C 
ATOM      4  C   UNL     1       2.113   4.976  -7.429  0.00  0.00    +0.047 C 
ATOM      5  C   UNL     1       1.774   5.887  -6.010  0.00  0.00    +0.047 C 
ATOM      6  C   UNL     1       0.244   6.257  -6.302  0.00  0.00    +0.014 A 
ATOM      7  C   UNL     1      -0.659   5.468  -6.961  0.00  0.00    +0.141 A 
ATOM      8  O   UNL     1      -0.557   5.473  -8.362  0.00  0.00    -0.454 OA
ATOM      9  C   UNL     1       0.548   5.815  -9.154  0.00  0.00    +0.141 A 
ATOM     10  C   UNL     1       0.246   6.211 -10.431  0.00  0.00    +0.038 A 
ATOM     11  C   UNL     1       1.345   6.499 -11.233  0.00  0.00    +0.015 A 
ATOM     12  C   UNL     1       2.593   6.050 -10.820  0.00  0.00    +0.058 A 
ATOM     13  C   UNL     1       2.807   6.122  -9.457  0.00  0.00    +0.010 A 
ATOM     14 CL   UNL     1       3.755   5.442 -11.986  0.00  0.00    -0.082 Cl
ATOM     15  C   UNL     1      -1.989   5.405  -6.565  0.00  0.00    +0.037 A 
ATOM     16  C   UNL     1      -2.374   6.049  -5.410  0.00  0.00    +0.003 A 
ATOM     17  C   UNL     1      -1.474   6.783  -4.665  0.00  0.00    -0.000 A 
ATOM     18  C   UNL     1      -0.138   6.703  -5.038  0.00  0.00    -0.001 A 
ATOM     19  C   UNL     1       1.766   6.112  -8.524  0.00  0.00    +0.015 A 
ATOM     20  C   UNL     1       2.375   7.253  -6.699  0.00  0.00    +0.077 C 
ENDROOT
TORSDOF 0
ENDMDL
MODEL 5
REMARK VINA RESULT:      -8.3      2.425      4.440
REMARK  Name = 
REMARK  0 active torsions:
REMARK  status: ('A' for Active; 'I' for Inactive)
REMARK                            x       y       z     vdW  Elec       q    Type
REMARK                         _______ _______ _______ _____ _____    ______ ____
ROOT
ATOM      1  C   UNL     1       1.308   5.984 -11.620  0.00  0.00    +0.090 C 
ATOM      2  N   UNL     1       1.529   6.071 -10.180  0.00  0.00    -0.271 NA
ATOM      3  C   UNL     1       1.653   4.789  -9.641  0.00  0.00    +0.077 C 
ATOM      4  C   UNL     1       3.239   4.626  -9.284  0.00  0.00    +0.047 C 
ATOM      5  C   UNL     1       3.639   5.635 -10.620  0.00  0.00    +0.047 C 
ATOM      6  C   UNL     1       5.019   6.241 -10.079  0.00  0.00    +0.014 A 
ATOM      7  C   UNL     1       5.927   5.586  -9.291  0.00  0.00    +0.141 A 
ATOM      8  O   UNL     1       5.606   5.520  -7.926  0.00  0.00    -0.454 OA
ATOM      9  C   UNL     1       4.348   5.644  -7.319  0.00  0.00    +0.141 A 
ATOM     10  C   UNL     1       4.374   6.035  -6.006  0.00  0.00    +0.038 A 
ATOM     11  C   UNL     1       3.129   6.107  -5.389  0.00  0.00    +0.015 A 
ATOM     12  C   UNL     1       2.055   5.474  -6.004  0.00  0.00    +0.058 A 
ATOM     13  C   UNL     1       2.051   5.563  -7.382  0.00  0.00    +0.010 A 
ATOM     14 CL   UNL     1       0.844   4.639  -5.049  0.00  0.00    -0.082 Cl
ATOM     15  C   UNL     1       7.294   5.759  -9.467  0.00  0.00    +0.037 A 
ATOM     16  C   UNL     1       7.743   6.501 -10.537  0.00  0.00    +0.003 A 
ATOM     17  C   UNL     1       6.861   7.105 -11.409  0.00  0.00    -0.000 A 
ATOM     18  C   UNL     1       5.515   6.792 -11.259  0.00  0.00    -0.001 A 
ATOM     19  C   UNL     1       3.213   5.761  -8.134  0.00  0.00    +0.015 A 
ATOM     20  C   UNL     1       2.716   6.856 -10.021  0.00  0.00    +0.077 C 
ENDROOT
TORSDOF 0
ENDMDL
MODEL 6
REMARK VINA RESULT:      -8.2      2.628      5.134
REMARK  Name = 
REMARK  0 active torsions:
REMARK  status: ('A' for Active; 'I' for Inactive)
REMARK                            x       y       z     vdW  Elec       q    Type
REMARK                         _______ _______ _______ _____ _____    ______ ____
ROOT
ATOM      1  C   UNL     1       4.143   5.697  -7.097  0.00  0.00    +0.090 C 
ATOM      2  N   UNL     1       3.850   5.403  -5.697  0.00  0.00    -0.271 NA
ATOM      3  C   UNL     1       3.856   6.586  -4.953  0.00  0.00    +0.077 C 
ATOM      4  C   UNL     1       2.286   6.883  -4.611  0.00  0.00    +0.047 C 
ATOM      5  C   UNL     1       1.827   6.164  -6.106  0.00  0.00    +0.047 C 
ATOM      6  C   UNL     1       0.364   5.654  -5.707  0.00  0.00    +0.014 A 
ATOM      7  C   UNL     1      -0.494   6.278  -4.842  0.00  0.00    +0.141 A 
ATOM      8  O   UNL     1      -0.227   6.079  -3.478  0.00  0.00    -0.454 OA
ATOM      9  C   UNL     1       0.979   5.702  -2.871  0.00  0.00    +0.141 A 
ATOM     10  C   UNL     1       0.851   5.107  -1.643  0.00  0.00    +0.038 A 
ATOM     11  C   UNL     1       2.051   4.781  -1.019  0.00  0.00    +0.015 A 
ATOM     12  C   UNL     1       3.217   5.368  -1.495  0.00  0.00    +0.058 A 
ATOM     13  C   UNL     1       3.271   5.507  -2.867  0.00  0.00    +0.010 A 
ATOM     14 CL   UNL     1       4.477   5.878  -0.384  0.00  0.00    -0.082 Cl
ATOM     15  C   UNL     1      -1.863   6.308  -5.076  0.00  0.00    +0.037 A 
ATOM     16  C   UNL     1      -2.349   5.813  -6.265  0.00  0.00    +0.003 A 
ATOM     17  C   UNL     1      -1.508   5.255  -7.206  0.00  0.00    -0.000 A 
ATOM     18  C   UNL     1      -0.143   5.370  -6.974  0.00  0.00    -0.001 A 
ATOM     19  C   UNL     1       2.128   5.581  -3.668  0.00  0.00    +0.015 A 
ATOM     20  C   UNL     1       2.573   4.757  -5.700  0.00  0.00    +0.077 C 
ENDROOT
TORSDOF 0
ENDMDL
MODEL 7
REMARK VINA RESULT:      -8.2      2.408      4.150
REMARK  Name = 
REMARK  0 active torsions:
REMARK  status: ('A' for Active; 'I' for Inactive)
REMARK                            x       y       z     vdW  Elec       q    Type
REMARK                         _______ _______ _______ _____ _____    ______ ____
ROOT
ATOM      1  C   UNL     1       0.666   5.908 -12.437  0.00  0.00    +0.090 C 
ATOM      2  N   UNL     1       0.399   6.074 -11.012  0.00  0.00    -0.271 NA
ATOM      3  C   UNL     1       0.148   4.829 -10.429  0.00  0.00    +0.077 C 
ATOM      4  C   UNL     1       1.480   4.496  -9.543  0.00  0.00    +0.047 C 
ATOM      5  C   UNL     1       2.448   5.344 -10.686  0.00  0.00    +0.047 C 
ATOM      6  C   UNL     1       3.636   5.810  -9.719  0.00  0.00    +0.014 A 
ATOM      7  C   UNL     1       4.121   5.107  -8.650  0.00  0.00    +0.141 A 
ATOM      8  O   UNL     1       3.352   5.184  -7.477  0.00  0.00    -0.454 OA
ATOM      9  C   UNL     1       1.995   5.510  -7.344  0.00  0.00    +0.141 A 
ATOM     10  C   UNL     1       1.632   5.991  -6.114  0.00  0.00    +0.038 A 
ATOM     11  C   UNL     1       0.276   6.265  -5.966  0.00  0.00    +0.015 A 
ATOM     12  C   UNL     1      -0.606   5.728  -6.896  0.00  0.00    +0.058 A 
ATOM     13  C   UNL     1      -0.133   5.714  -8.193  0.00  0.00    +0.010 A 
ATOM     14 CL   UNL     1      -2.176   5.125  -6.395  0.00  0.00    -0.082 Cl
ATOM     15  C   UNL     1       5.477   5.093  -8.349  0.00  0.00    +0.037 A 
ATOM     16  C   UNL     1       6.362   5.691  -9.218  0.00  0.00    +0.003 A 
ATOM     17  C   UNL     1       5.923   6.334 -10.356  0.00  0.00    -0.000 A 
ATOM     18  C   UNL     1       4.575   6.205 -10.670  0.00  0.00    -0.001 A 
ATOM     19  C   UNL     1       1.230   5.707  -8.504  0.00  0.00    +0.015 A 
ATOM     20  C   UNL     1       1.562   6.712 -10.475  0.00  0.00    +0.077 C 
ENDROOT
TORSDOF 0
ENDMDL
MODEL 8
REMARK VINA RESULT:      -8.1      2.554      4.299
REMARK  Name = 
REMARK  0 active torsions:
REMARK  status: ('A' for Active; 'I' for Inactive)
REMARK                            x       y       z     vdW  Elec       q    Type
REMARK                         _______ _______ _______ _____ _____    ______ ____
ROOT
ATOM      1  C   UNL     1      -1.894   6.267  -4.442  0.00  0.00    +0.090 C 
ATOM      2  N   UNL     1      -0.497   6.657  -4.277  0.00  0.00    -0.271 NA
ATOM      3  C   UNL     1       0.216   5.621  -3.670  0.00  0.00    +0.077 C 
ATOM      4  C   UNL     1       1.143   4.987  -4.857  0.00  0.00    +0.047 C 
ATOM      5  C   UNL     1      -0.078   5.368  -6.009  0.00  0.00    +0.047 C 
ATOM      6  C   UNL     1       0.841   5.543  -7.308  0.00  0.00    +0.014 A 
ATOM      7  C   UNL     1       1.984   4.842  -7.581  0.00  0.00    +0.141 A 
ATOM      8  O   UNL     1       3.136   5.277  -6.904  0.00  0.00    -0.454 OA
ATOM      9  C   UNL     1       3.222   6.019  -5.719  0.00  0.00    +0.141 A 
ATOM     10  C   UNL     1       4.390   6.717  -5.554  0.00  0.00    +0.038 A 
ATOM     11  C   UNL     1       4.497   7.410  -4.353  0.00  0.00    +0.015 A 
ATOM     12  C   UNL     1       3.624   7.078  -3.325  0.00  0.00    +0.058 A 
ATOM     13  C   UNL     1       2.340   6.780  -3.735  0.00  0.00    +0.010 A 
ATOM     14 CL   UNL     1       4.177   7.047  -1.659  0.00  0.00    -0.082 Cl
ATOM     15  C   UNL     1       2.295   4.441  -8.874  0.00  0.00    +0.037 A 
ATOM     16  C   UNL     1       1.373   4.640  -9.877  0.00  0.00    +0.003 A 
ATOM     17  C   UNL     1       0.168   5.263  -9.627  0.00  0.00    -0.000 A 
ATOM     18  C   UNL     1      -0.140   5.525  -8.298  0.00  0.00    -0.001 A 
ATOM     19  C   UNL     1       2.042   6.319  -5.021  0.00  0.00    +0.015 A 
ATOM     20  C   UNL     1      -0.024   6.957  -5.594  0.00  0.00    +0.077 C 
ENDROOT
TORSDOF 0
ENDMDL
MODEL 9
REMARK VINA RESULT:      -8.1      2.793      4.115
REMARK  Name = 
REMARK  0 active torsions:
REMARK  status: ('A' for Active; 'I' for Inactive)
REMARK                            x       y       z     vdW  Elec       q    Type
REMARK                         _______ _______ _______ _____ _____    ______ ____
ROOT
ATOM      1  C   UNL     1       3.173   5.000  -6.329  0.00  0.00    +0.090 C 
ATOM      2  N   UNL     1       2.566   5.075  -7.654  0.00  0.00    -0.271 NA
ATOM      3  C   UNL     1       2.139   6.380  -7.907  0.00  0.00    +0.077 C 
ATOM      4  C   UNL     1       3.199   6.973  -9.000  0.00  0.00    +0.047 C 
ATOM      5  C   UNL     1       4.447   6.011  -8.308  0.00  0.00    +0.047 C 
ATOM      6  C   UNL     1       5.373   5.824  -9.600  0.00  0.00    +0.014 A 
ATOM      7  C   UNL     1       5.555   6.745 -10.595  0.00  0.00    +0.141 A 
ATOM      8  O   UNL     1       4.522   6.822 -11.544  0.00  0.00    -0.454 OA
ATOM      9  C   UNL     1       3.186   6.419 -11.413  0.00  0.00    +0.141 A 
ATOM     10  C   UNL     1       2.545   6.142 -12.592  0.00  0.00    +0.038 A 
ATOM     11  C   UNL     1       1.204   5.793 -12.465  0.00  0.00    +0.015 A 
ATOM     12  C   UNL     1       0.563   6.080 -11.266  0.00  0.00    +0.058 A 
ATOM     13  C   UNL     1       1.342   5.897 -10.141  0.00  0.00    +0.010 A 
ATOM     14 CL   UNL     1      -1.100   6.638 -11.254  0.00  0.00    -0.082 Cl
ATOM     15  C   UNL     1       6.793   6.921 -11.200  0.00  0.00    +0.037 A 
ATOM     16  C   UNL     1       7.884   6.247 -10.699  0.00  0.00    +0.003 A 
ATOM     17  C   UNL     1       7.761   5.375  -9.638  0.00  0.00    -0.000 A 
ATOM     18  C   UNL     1       6.530   5.338  -8.994  0.00  0.00    -0.001 A 
ATOM     19  C   UNL     1       2.739   5.955 -10.167  0.00  0.00    +0.015 A 
ATOM     20  C   UNL     1       3.581   4.638  -8.566  0.00  0.00    +0.077 C 
ENDROOT
TORSDOF 0
ENDMDL
