MODEL 1
REMARK VINA RESULT:      -7.6      0.000      0.000
REMARK  Name = 
REMARK  10 active torsions:
REMARK  status: ('A' for Active; 'I' for Inactive)
REMARK    1  A    between atoms: C_2  and  C_3
REMARK    2  A    between atoms: C_3  and  C_4
REMARK    3  A    between atoms: C_4  and  C_5
REMARK    4  A    between atoms: C_5  and  C_6
REMARK    5  A    between atoms: C_6  and  C_8
REMARK    6  A    between atoms: C_9  and  C_10
REMARK    7  A    between atoms: C_17  and  C_18
REMARK    8  A    between atoms: C_18  and  C_19
REMARK    9  A    between atoms: C_19  and  C_20
REMARK   10  A    between atoms: C_20  and  C_21
REMARK                            x       y       z     vdW  Elec       q    Type
REMARK                         _______ _______ _______ _____ _____    ______ ____
ROOT
ATOM      1  C   UNL     1       2.476   6.681  -4.518  0.00  0.00    +0.056 C 
ATOM      2  C   UNL     1       2.253   6.173  -6.099  0.00  0.00    +0.054 C 
ATOM      3  C   UNL     1       2.337   4.515  -5.700  0.00  0.00    +0.169 C 
ATOM      4  O   UNL     1       2.684   4.208  -7.183  0.00  0.00    -0.484 OA
ATOM      5  C   UNL     1       3.603   5.116  -7.573  0.00  0.00    +0.112 C 
ATOM      6  C   UNL     1       4.325   5.054  -8.692  0.00  0.00    +0.006 C 
ATOM      7  C   UNL     1       3.921   4.757  -5.334  0.00  0.00    +0.077 C 
ATOM      8  C   UNL     1       3.784   6.262  -6.626  0.00  0.00    +0.068 C 
ATOM      9  C   UNL     1       3.549   5.484  -3.917  0.00  0.00    +0.160 C 
ATOM     10  O   UNL     1       4.738   6.459  -4.084  0.00  0.00    -0.223 OA
ENDROOT
BRANCH   1  12
ATOM     11  C   UNL     1       0.154   6.540  -3.605  0.00  0.00    +0.002 C 
ATOM     12  C   UNL     1       1.170   5.857  -4.068  0.00  0.00    -0.026 C 
BRANCH  11  13
ATOM     13  C   UNL     1      -1.071   5.457  -3.392  0.00  0.00    +0.174 C 
ATOM     14  O   UNL     1      -1.168   5.817  -1.894  0.00  0.00    -0.218 OA
BRANCH  13  15
ATOM     15  C   UNL     1      -2.234   6.603  -3.779  0.00  0.00    +0.037 C 
BRANCH  15  16
ATOM     16  C   UNL     1      -1.966   6.904  -5.242  0.00  0.00    +0.003 C 
BRANCH  16  17
ATOM     17  C   UNL     1      -2.450   5.797  -6.164  0.00  0.00    +0.000 C 
BRANCH  17  19
ATOM     18  C   UNL     1      -1.191   5.138  -7.088  0.00  0.00    +0.000 C 
ATOM     19  C   UNL     1      -1.222   5.417  -6.971  0.00  0.00    +0.000 C 
ENDBRANCH  17  19
ENDBRANCH  16  17
ENDBRANCH  15  16
ENDBRANCH  13  15
ENDBRANCH  11  13
ENDBRANCH   1  12
BRANCH   6  20
ATOM     20  C   UNL     1       5.735   5.501  -8.692  0.00  0.00    +0.029 C 
BRANCH  20  21
ATOM     21  C   UNL     1       6.102   5.685 -10.160  0.00  0.00    +0.017 C 
BRANCH  21  22
ATOM     22  C   UNL     1       7.615   5.601 -10.208  0.00  0.00    +0.114 C 
BRANCH  22  23
ATOM     23  C   UNL     1       7.956   5.552 -11.661  0.00  0.00    +0.365 C 
ATOM     24  O   UNL     1       7.358   4.639 -12.517  0.00  0.00    -0.246 OA
ATOM     25  O   UNL     1       9.128   5.911 -11.909  0.00  0.00    -0.246 OA
ENDBRANCH  22  23
ENDBRANCH  21  22
ENDBRANCH  20  21
ENDBRANCH   6  20
TORSDOF 10
ENDMDL
MODEL 2
REMARK VINA RESULT:      -7.5      2.044      8.771
REMARK  Name = 
REMARK  10 active torsions:
REMARK  status: ('A' for Active; 'I' for Inactive)
REMARK    1  A    between atoms: C_2  and  C_3
REMARK    2  A    between atoms: C_3  and  C_4
REMARK    3  A    between atoms: C_4  and  C_5
REMARK    4  A    between atoms: C_5  and  C_6
REMARK    5  A    between atoms: C_6  and  C_8
REMARK    6  A    between atoms: C_9  and  C_10
REMARK    7  A    between atoms: C_17  and  C_18
REMARK    8  A    between atoms: C_18  and  C_19
REMARK    9  A    between atoms: C_19  and  C_20
REMARK   10  A    between atoms: C_20  and  C_21
REMARK                            x       y       z     vdW  Elec       q    Type
REMARK                         _______ _______ _______ _____ _____    ______ ____
ROOT
ATOM      1  C   UNL     1       3.471   5.379  -6.733  0.00  0.00    +0.056 C 
ATOM      2  C   UNL     1       2.056   4.890  -7.484  0.00  0.00    +0.054 C 
ATOM      3  C   UNL     1       1.793   6.403  -8.231  0.00  0.00    +0.169 C 
ATOM      4  O   UNL     1       0.293   6.029  -8.387  0.00  0.00    -0.484 OA
ATOM      5  C   UNL     1      -0.107   5.491  -7.216  0.00  0.00    +0.112 C 
ATOM      6  C   UNL     1      -1.372   5.257  -6.864  0.00  0.00    +0.006 C 
ATOM      7  C   UNL     1       1.529   7.017  -6.730  0.00  0.00    +0.077 C 
ATOM      8  C   UNL     1       1.008   5.153  -6.276  0.00  0.00    +0.068 C 
ATOM      9  C   UNL     1       3.127   7.023  -6.381  0.00  0.00    +0.160 C 
ATOM     10  O   UNL     1       2.826   6.651  -4.910  0.00  0.00    -0.223 OA
ENDROOT
BRANCH   1  12
ATOM     11  C   UNL     1       5.108   4.993  -8.581  0.00  0.00    +0.002 C 
ATOM     12  C   UNL     1       4.111   5.732  -8.166  0.00  0.00    -0.026 C 
BRANCH  11  13
ATOM     13  C   UNL     1       5.431   5.480 -10.123  0.00  0.00    +0.174 C 
ATOM     14  O   UNL     1       4.725   6.830  -9.876  0.00  0.00    -0.218 OA
BRANCH  13  15
ATOM     15  C   UNL     1       6.911   6.132  -9.672  0.00  0.00    +0.037 C 
BRANCH  15  16
ATOM     16  C   UNL     1       7.249   7.073 -10.814  0.00  0.00    +0.003 C 
BRANCH  16  17
ATOM     17  C   UNL     1       7.403   6.348 -12.141  0.00  0.00    +0.000 C 
BRANCH  17  19
ATOM     18  C   UNL     1       8.984   5.808 -12.427  0.00  0.00    +0.000 C 
ATOM     19  C   UNL     1       8.866   5.949 -12.184  0.00  0.00    +0.000 C 
ENDBRANCH  17  19
ENDBRANCH  16  17
ENDBRANCH  15  16
ENDBRANCH  13  15
ENDBRANCH  11  13
ENDBRANCH   1  12
BRANCH   6  20
ATOM     20  C   UNL     1      -1.802   5.462  -5.464  0.00  0.00    +0.029 C 
BRANCH  20  21
ATOM     21  C   UNL     1      -2.546   6.793  -5.460  0.00  0.00    +0.017 C 
BRANCH  21  22
ATOM     22  C   UNL     1      -1.864   7.629  -4.394  0.00  0.00    +0.114 C 
BRANCH  22  23
ATOM     23  C   UNL     1      -2.387   7.106  -3.097  0.00  0.00    +0.365 C 
ATOM     24  O   UNL     1      -3.662   6.571  -2.990  0.00  0.00    -0.246 OA
ATOM     25  O   UNL     1      -1.906   7.685  -2.098  0.00  0.00    -0.246 OA
ENDBRANCH  22  23
ENDBRANCH  21  22
ENDBRANCH  20  21
ENDBRANCH   6  20
TORSDOF 10
ENDMDL
MODEL 3
REMARK VINA RESULT:      -7.5      1.891      3.364
REMARK  Name = 
REMARK  10 active torsions:
REMARK  status: ('A' for Active; 'I' for Inactive)
REMARK    1  A    between atoms: C_2  and  C_3
REMARK    2  A    between atoms: C_3  and  C_4
REMARK    3  A    between atoms: C_4  and  C_5
REMARK    4  A    between atoms: C_5  and  C_6
REMARK    5  A    between atoms: C_6  and  C_8
REMARK    6  A    between atoms: C_9  and  C_10
REMARK    7  A    between atoms: C_17  and  C_18
REMARK    8  A    between atoms: C_18  and  C_19
REMARK    9  A    between atoms: C_19  and  C_20
REMARK   10  A    between atoms: C_20  and  C_21
REMARK                            x       y       z     vdW  Elec       q    Type
REMARK                         _______ _______ _______ _____ _____    ______ ____
ROOT
ATOM      1  C   UNL     1       1.054   5.235  -8.605  0.00  0.00    +0.056 C 
ATOM      2  C   UNL     1       2.536   4.867  -7.916  0.00  0.00    +0.054 C 
ATOM      3  C   UNL     1       2.771   6.443  -7.301  0.00  0.00    +0.169 C 
ATOM      4  O   UNL     1       4.294   6.150  -7.219  0.00  0.00    -0.484 OA
ATOM      5  C   UNL     1       4.646   5.543  -8.371  0.00  0.00    +0.112 C 
ATOM      6  C   UNL     1       5.896   5.341  -8.789  0.00  0.00    +0.006 C 
ATOM      7  C   UNL     1       2.908   6.953  -8.857  0.00  0.00    +0.077 C 
ATOM      8  C   UNL     1       3.492   5.085  -9.208  0.00  0.00    +0.068 C 
ATOM      9  C   UNL     1       1.293   6.861  -9.098  0.00  0.00    +0.160 C 
ATOM     10  O   UNL     1       1.519   6.392 -10.554  0.00  0.00    -0.223 OA
ENDROOT
BRANCH   1  12
ATOM     11  C   UNL     1      -0.663   5.168  -6.791  0.00  0.00    +0.002 C 
ATOM     12  C   UNL     1       0.489   5.665  -7.162  0.00  0.00    -0.026 C 
BRANCH  11  13
ATOM     13  C   UNL     1      -0.891   5.649  -5.230  0.00  0.00    +0.174 C 
ATOM     14  O   UNL     1      -0.091   6.945  -5.481  0.00  0.00    -0.218 OA
BRANCH  13  15
ATOM     15  C   UNL     1      -2.331   6.422  -5.614  0.00  0.00    +0.037 C 
BRANCH  15  16
ATOM     16  C   UNL     1      -2.777   7.021  -4.292  0.00  0.00    +0.003 C 
BRANCH  16  17
ATOM     17  C   UNL     1      -3.187   5.963  -3.281  0.00  0.00    +0.000 C 
BRANCH  17  19
ATOM     18  C   UNL     1      -2.830   6.784  -1.842  0.00  0.00    +0.000 C 
ATOM     19  C   UNL     1      -2.724   6.519  -1.947  0.00  0.00    +0.000 C 
ENDBRANCH  17  19
ENDBRANCH  16  17
ENDBRANCH  15  16
ENDBRANCH  13  15
ENDBRANCH  11  13
ENDBRANCH   1  12
BRANCH   6  20
ATOM     20  C   UNL     1       6.226   5.458 -10.226  0.00  0.00    +0.029 C 
BRANCH  20  21
ATOM     21  C   UNL     1       7.422   6.403 -10.290  0.00  0.00    +0.017 C 
BRANCH  21  22
ATOM     22  C   UNL     1       7.479   6.878 -11.729  0.00  0.00    +0.114 C 
BRANCH  22  23
ATOM     23  C   UNL     1       8.314   5.865 -12.440  0.00  0.00    +0.365 C 
ATOM     24  O   UNL     1       7.748   4.753 -13.046  0.00  0.00    -0.246 OA
ATOM     25  O   UNL     1       9.469   5.756 -11.971  0.00  0.00    -0.246 OA
ENDBRANCH  22  23
ENDBRANCH  21  22
ENDBRANCH  20  21
ENDBRANCH   6  20
TORSDOF 10
ENDMDL
MODEL 4
REMARK VINA RESULT:      -7.1      1.707      2.646
REMARK  Name = 
REMARK  10 active torsions:
REMARK  status: ('A' for Active; 'I' for Inactive)
REMARK    1  A    between atoms: C_2  and  C_3
REMARK    2  A    between atoms: C_3  and  C_4
REMARK    3  A    between atoms: C_4  and  C_5
REMARK    4  A    between atoms: C_5  and  C_6
REMARK    5  A    between atoms: C_6  and  C_8
REMARK    6  A    between atoms: C_9  and  C_10
REMARK    7  A    between atoms: C_17  and  C_18
REMARK    8  A    between atoms: C_18  and  C_19
REMARK    9  A    between atoms: C_19  and  C_20
REMARK   10  A    between atoms: C_20  and  C_21
REMARK                            x       y       z     vdW  Elec       q    Type
REMARK                         _______ _______ _______ _____ _____    ______ ____
ROOT
ATOM      1  C   UNL     1       1.872   6.381  -5.503  0.00  0.00    +0.056 C 
ATOM      2  C   UNL     1       2.193   6.776  -7.098  0.00  0.00    +0.054 C 
ATOM      3  C   UNL     1       1.452   5.368  -7.718  0.00  0.00    +0.169 C 
ATOM      4  O   UNL     1       2.271   5.550  -9.025  0.00  0.00    -0.484 OA
ATOM      5  C   UNL     1       3.536   5.849  -8.665  0.00  0.00    +0.112 C 
ATOM      6  C   UNL     1       4.592   5.852  -9.478  0.00  0.00    +0.006 C 
ATOM      7  C   UNL     1       2.669   4.509  -7.024  0.00  0.00    +0.077 C 
ATOM      8  C   UNL     1       3.703   6.196  -7.218  0.00  0.00    +0.068 C 
ATOM      9  C   UNL     1       2.020   4.671  -5.531  0.00  0.00    +0.160 C 
ATOM     10  O   UNL     1       3.432   4.778  -4.909  0.00  0.00    -0.223 OA
ENDROOT
BRANCH   1  12
ATOM     11  C   UNL     1      -0.528   6.688  -4.879  0.00  0.00    +0.002 C 
ATOM     12  C   UNL     1       0.298   6.335  -5.830  0.00  0.00    -0.026 C 
BRANCH  11  13
ATOM     13  C   UNL     1      -2.032   6.699  -5.556  0.00  0.00    +0.174 C 
ATOM     14  O   UNL     1      -1.650   5.538  -6.498  0.00  0.00    -0.218 OA
BRANCH  13  15
ATOM     15  C   UNL     1      -2.623   5.623  -4.411  0.00  0.00    +0.037 C 
BRANCH  15  16
ATOM     16  C   UNL     1      -3.135   6.525  -3.303  0.00  0.00    +0.003 C 
BRANCH  16  17
ATOM     17  C   UNL     1      -2.700   6.060  -1.923  0.00  0.00    +0.000 C 
BRANCH  17  19
ATOM     18  C   UNL     1      -1.931   7.273  -1.024  0.00  0.00    +0.000 C 
ATOM     19  C   UNL     1      -2.026   7.275  -1.313  0.00  0.00    +0.000 C 
ENDBRANCH  17  19
ENDBRANCH  16  17
ENDBRANCH  15  16
ENDBRANCH  13  15
ENDBRANCH  11  13
ENDBRANCH   1  12
BRANCH   6  20
ATOM     20  C   UNL     1       5.907   5.386  -8.989  0.00  0.00    +0.029 C 
BRANCH  20  21
ATOM     21  C   UNL     1       6.938   6.066  -9.884  0.00  0.00    +0.017 C 
BRANCH  21  22
ATOM     22  C   UNL     1       6.427   5.874 -11.298  0.00  0.00    +0.114 C 
BRANCH  22  23
ATOM     23  C   UNL     1       7.648   5.622 -12.120  0.00  0.00    +0.365 C 
ATOM     24  O   UNL     1       7.686   4.617 -13.076  0.00  0.00    -0.246 OA
ATOM     25  O   UNL     1       8.712   5.914 -11.532  0.00  0.00    -0.246 OA
ENDBRANCH  22  23
ENDBRANCH  21  22
ENDBRANCH  20  21
ENDBRANCH   6  20
TORSDOF 10
ENDMDL
MODEL 5
REMARK VINA RESULT:      -7.0      2.934      8.252
REMARK  Name = 
REMARK  10 active torsions:
REMARK  status: ('A' for Active; 'I' for Inactive)
REMARK    1  A    between atoms: C_2  and  C_3
REMARK    2  A    between atoms: C_3  and  C_4
REMARK    3  A    between atoms: C_4  and  C_5
REMARK    4  A    between atoms: C_5  and  C_6
REMARK    5  A    between atoms: C_6  and  C_8
REMARK    6  A    between atoms: C_9  and  C_10
REMARK    7  A    between atoms: C_17  and  C_18
REMARK    8  A    between atoms: C_18  and  C_19
REMARK    9  A    between atoms: C_19  and  C_20
REMARK   10  A    between atoms: C_20  and  C_21
REMARK                            x       y       z     vdW  Elec       q    Type
REMARK                         _______ _______ _______ _____ _____    ______ ____
ROOT
ATOM      1  C   UNL     1       2.297   6.377  -9.492  0.00  0.00    +0.056 C 
ATOM      2  C   UNL     1       3.566   6.705  -8.449  0.00  0.00    +0.054 C 
ATOM      3  C   UNL     1       3.972   5.059  -8.242  0.00  0.00    +0.169 C 
ATOM      4  O   UNL     1       4.698   5.438  -6.921  0.00  0.00    -0.484 OA
ATOM      5  C   UNL     1       3.889   6.284  -6.250  0.00  0.00    +0.112 C 
ATOM      6  C   UNL     1       4.039   6.654  -4.979  0.00  0.00    +0.006 C 
ATOM      7  C   UNL     1       2.541   4.879  -7.455  0.00  0.00    +0.077 C 
ATOM      8  C   UNL     1       2.744   6.816  -7.056  0.00  0.00    +0.068 C 
ATOM      9  C   UNL     1       1.695   4.901  -8.855  0.00  0.00    +0.160 C 
ATOM     10  O   UNL     1       0.540   5.665  -8.165  0.00  0.00    -0.223 OA
ENDROOT
BRANCH   1  12
ATOM     11  C   UNL     1       3.878   6.349 -11.426  0.00  0.00    +0.002 C 
ATOM     12  C   UNL     1       3.310   5.629 -10.492  0.00  0.00    -0.026 C 
BRANCH  11  13
ATOM     13  C   UNL     1       4.969   5.360 -12.169  0.00  0.00    +0.174 C 
ATOM     14  O   UNL     1       4.195   5.458 -13.501  0.00  0.00    -0.218 OA
BRANCH  13  15
ATOM     15  C   UNL     1       5.944   6.658 -12.601  0.00  0.00    +0.037 C 
BRANCH  15  16
ATOM     16  C   UNL     1       6.445   7.185 -11.268  0.00  0.00    +0.003 C 
BRANCH  16  17
ATOM     17  C   UNL     1       7.766   6.559 -10.853  0.00  0.00    +0.000 C 
BRANCH  17  19
ATOM     18  C   UNL     1       7.356   5.946  -9.327  0.00  0.00    +0.000 C 
ATOM     19  C   UNL     1       7.438   5.800  -9.581  0.00  0.00    +0.000 C 
ENDBRANCH  17  19
ENDBRANCH  16  17
ENDBRANCH  15  16
ENDBRANCH  13  15
ENDBRANCH  11  13
ENDBRANCH   1  12
BRANCH   6  20
ATOM     20  C   UNL     1       2.853   6.847  -4.117  0.00  0.00    +0.029 C 
BRANCH  20  21
ATOM     21  C   UNL     1       3.358   6.672  -2.688  0.00  0.00    +0.017 C 
BRANCH  21  22
ATOM     22  C   UNL     1       3.704   5.201  -2.564  0.00  0.00    +0.114 C 
BRANCH  22  23
ATOM     23  C   UNL     1       3.405   4.851  -1.144  0.00  0.00    +0.365 C 
ATOM     24  O   UNL     1       2.134   4.469  -0.741  0.00  0.00    -0.246 OA
ATOM     25  O   UNL     1       4.126   5.456  -0.320  0.00  0.00    -0.246 OA
ENDBRANCH  22  23
ENDBRANCH  21  22
ENDBRANCH  20  21
ENDBRANCH   6  20
TORSDOF 10
ENDMDL
MODEL 6
REMARK VINA RESULT:      -6.7      2.227      8.579
REMARK  Name = 
REMARK  10 active torsions:
REMARK  status: ('A' for Active; 'I' for Inactive)
REMARK    1  A    between atoms: C_2  and  C_3
REMARK    2  A    between atoms: C_3  and  C_4
REMARK    3  A    between atoms: C_4  and  C_5
REMARK    4  A    between atoms: C_5  and  C_6
REMARK    5  A    between atoms: C_6  and  C_8
REMARK    6  A    between atoms: C_9  and  C_10
REMARK    7  A    between atoms: C_17  and  C_18
REMARK    8  A    between atoms: C_18  and  C_19
REMARK    9  A    between atoms: C_19  and  C_20
REMARK   10  A    between atoms: C_20  and  C_21
REMARK                            x       y       z     vdW  Elec       q    Type
REMARK                         _______ _______ _______ _____ _____    ______ ____
ROOT
ATOM      1  C   UNL     1       3.105   4.422  -6.908  0.00  0.00    +0.056 C 
ATOM      2  C   UNL     1       1.722   5.335  -7.154  0.00  0.00    +0.054 C 
ATOM      3  C   UNL     1       2.565   6.820  -7.170  0.00  0.00    +0.169 C 
ATOM      4  O   UNL     1       1.232   7.544  -6.835  0.00  0.00    -0.484 OA
ATOM      5  C   UNL     1       0.625   6.833  -5.862  0.00  0.00    +0.112 C 
ATOM      6  C   UNL     1      -0.418   7.242  -5.140  0.00  0.00    +0.006 C 
ATOM      7  C   UNL     1       2.882   6.574  -5.577  0.00  0.00    +0.077 C 
ATOM      8  C   UNL     1       1.222   5.481  -5.618  0.00  0.00    +0.068 C 
ATOM      9  C   UNL     1       4.036   5.463  -5.911  0.00  0.00    +0.160 C 
ATOM     10  O   UNL     1       3.630   4.641  -4.665  0.00  0.00    -0.223 OA
ENDROOT
BRANCH   1  12
ATOM     11  C   UNL     1       3.803   4.217  -9.298  0.00  0.00    +0.002 C 
ATOM     12  C   UNL     1       3.738   5.015  -8.263  0.00  0.00    -0.026 C 
BRANCH  11  13
ATOM     13  C   UNL     1       4.331   5.141 -10.558  0.00  0.00    +0.174 C 
ATOM     14  O   UNL     1       3.231   6.190 -10.289  0.00  0.00    -0.218 OA
BRANCH  13  15
ATOM     15  C   UNL     1       5.412   5.971  -9.578  0.00  0.00    +0.037 C 
BRANCH  15  16
ATOM     16  C   UNL     1       6.728   5.863 -10.326  0.00  0.00    +0.003 C 
BRANCH  16  17
ATOM     17  C   UNL     1       7.422   7.206 -10.484  0.00  0.00    +0.000 C 
BRANCH  17  19
ATOM     18  C   UNL     1       6.514   8.158 -11.552  0.00  0.00    +0.000 C 
ATOM     19  C   UNL     1       6.440   8.045 -11.279  0.00  0.00    +0.000 C 
ENDBRANCH  17  19
ENDBRANCH  16  17
ENDBRANCH  15  16
ENDBRANCH  13  15
ENDBRANCH  11  13
ENDBRANCH   1  12
BRANCH   6  20
ATOM     20  C   UNL     1      -0.512   6.892  -3.707  0.00  0.00    +0.029 C 
BRANCH  20  21
ATOM     21  C   UNL     1      -1.742   7.630  -3.189  0.00  0.00    +0.017 C 
BRANCH  21  22
ATOM     22  C   UNL     1      -2.920   6.747  -3.552  0.00  0.00    +0.114 C 
BRANCH  22  23
ATOM     23  C   UNL     1      -2.991   5.727  -2.464  0.00  0.00    +0.365 C 
ATOM     24  O   UNL     1      -2.502   5.986  -1.192  0.00  0.00    -0.246 OA
ATOM     25  O   UNL     1      -2.945   4.550  -2.883  0.00  0.00    -0.246 OA
ENDBRANCH  22  23
ENDBRANCH  21  22
ENDBRANCH  20  21
ENDBRANCH   6  20
TORSDOF 10
ENDMDL
MODEL 7
REMARK VINA RESULT:      -6.7      1.786      3.835
REMARK  Name = 
REMARK  10 active torsions:
REMARK  status: ('A' for Active; 'I' for Inactive)
REMARK    1  A    between atoms: C_2  and  C_3
REMARK    2  A    between atoms: C_3  and  C_4
REMARK    3  A    between atoms: C_4  and  C_5
REMARK    4  A    between atoms: C_5  and  C_6
REMARK    5  A    between atoms: C_6  and  C_8
REMARK    6  A    between atoms: C_9  and  C_10
REMARK    7  A    between atoms: C_17  and  C_18
REMARK    8  A    between atoms: C_18  and  C_19
REMARK    9  A    between atoms: C_19  and  C_20
REMARK   10  A    between atoms: C_20  and  C_21
REMARK                            x       y       z     vdW  Elec       q    Type
REMARK                         _______ _______ _______ _____ _____    ______ ____
ROOT
ATOM      1  C   UNL     1       1.222   4.936  -8.917  0.00  0.00    +0.056 C 
ATOM      2  C   UNL     1       2.597   4.948  -7.959  0.00  0.00    +0.054 C 
ATOM      3  C   UNL     1       2.642   6.651  -7.843  0.00  0.00    +0.169 C 
ATOM      4  O   UNL     1       4.148   6.554  -7.474  0.00  0.00    -0.484 OA
ATOM      5  C   UNL     1       4.710   5.668  -8.322  0.00  0.00    +0.112 C 
ATOM      6  C   UNL     1       6.019   5.478  -8.488  0.00  0.00    +0.006 C 
ATOM      7  C   UNL     1       2.992   6.679  -9.449  0.00  0.00    +0.077 C 
ATOM      8  C   UNL     1       3.729   4.863  -9.117  0.00  0.00    +0.068 C 
ATOM      9  C   UNL     1       1.443   6.354  -9.859  0.00  0.00    +0.160 C 
ATOM     10  O   UNL     1       1.920   5.493 -11.052  0.00  0.00    -0.223 OA
ENDROOT
BRANCH   1  12
ATOM     11  C   UNL     1       0.222   5.102  -6.633  0.00  0.00    +0.002 C 
ATOM     12  C   UNL     1       0.415   5.722  -7.769  0.00  0.00    -0.026 C 
BRANCH  11  13
ATOM     13  C   UNL     1      -0.471   6.203  -5.619  0.00  0.00    +0.174 C 
ATOM     14  O   UNL     1      -0.664   5.124  -4.532  0.00  0.00    -0.218 OA
BRANCH  13  15
ATOM     15  C   UNL     1       1.017   6.637  -4.974  0.00  0.00    +0.037 C 
BRANCH  15  16
ATOM     16  C   UNL     1       1.564   5.331  -4.428  0.00  0.00    +0.003 C 
BRANCH  16  17
ATOM     17  C   UNL     1       2.863   5.517  -3.661  0.00  0.00    +0.000 C 
BRANCH  17  19
ATOM     18  C   UNL     1       4.185   4.750  -4.394  0.00  0.00    +0.000 C 
ATOM     19  C   UNL     1       3.895   4.769  -4.484  0.00  0.00    +0.000 C 
ENDBRANCH  17  19
ENDBRANCH  16  17
ENDBRANCH  15  16
ENDBRANCH  13  15
ENDBRANCH  11  13
ENDBRANCH   1  12
BRANCH   6  20
ATOM     20  C   UNL     1       6.563   5.190  -9.832  0.00  0.00    +0.029 C 
BRANCH  20  21
ATOM     21  C   UNL     1       6.944   6.547 -10.415  0.00  0.00    +0.017 C 
BRANCH  21  22
ATOM     22  C   UNL     1       6.845   6.379 -11.918  0.00  0.00    +0.114 C 
BRANCH  22  23
ATOM     23  C   UNL     1       7.936   5.425 -12.275  0.00  0.00    +0.365 C 
ATOM     24  O   UNL     1       9.270   5.721 -12.033  0.00  0.00    -0.246 OA
ATOM     25  O   UNL     1       7.663   4.705 -13.261  0.00  0.00    -0.246 OA
ENDBRANCH  22  23
ENDBRANCH  21  22
ENDBRANCH  20  21
ENDBRANCH   6  20
TORSDOF 10
ENDMDL
MODEL 8
REMARK VINA RESULT:      -6.4      1.760      2.134
REMARK  Name = 
REMARK  10 active torsions:
REMARK  status: ('A' for Active; 'I' for Inactive)
REMARK    1  A    between atoms: C_2  and  C_3
REMARK    2  A    between atoms: C_3  and  C_4
REMARK    3  A    between atoms: C_4  and  C_5
REMARK    4  A    between atoms: C_5  and  C_6
REMARK    5  A    between atoms: C_6  and  C_8
REMARK    6  A    between atoms: C_9  and  C_10
REMARK    7  A    between atoms: C_17  and  C_18
REMARK    8  A    between atoms: C_18  and  C_19
REMARK    9  A    between atoms: C_19  and  C_20
REMARK   10  A    between atoms: C_20  and  C_21
REMARK                            x       y       z     vdW  Elec       q    Type
REMARK                         _______ _______ _______ _____ _____    ______ ____
ROOT
ATOM      1  C   UNL     1       1.918   6.619  -3.295  0.00  0.00    +0.056 C 
ATOM      2  C   UNL     1       1.209   6.614  -4.813  0.00  0.00    +0.054 C 
ATOM      3  C   UNL     1       1.183   4.909  -4.921  0.00  0.00    +0.169 C 
ATOM      4  O   UNL     1       1.071   5.041  -6.466  0.00  0.00    -0.484 OA
ATOM      5  C   UNL     1       1.959   5.981  -6.851  0.00  0.00    +0.112 C 
ATOM      6  C   UNL     1       2.335   6.221  -8.107  0.00  0.00    +0.006 C 
ATOM      7  C   UNL     1       2.824   4.960  -4.992  0.00  0.00    +0.077 C 
ATOM      8  C   UNL     1       2.537   6.785  -5.728  0.00  0.00    +0.068 C 
ATOM      9  C   UNL     1       2.949   5.251  -3.388  0.00  0.00    +0.160 C 
ATOM     10  O   UNL     1       4.164   6.176  -3.631  0.00  0.00    -0.223 OA
ENDROOT
BRANCH   1  12
ATOM     11  C   UNL     1      -0.295   6.414  -2.154  0.00  0.00    +0.002 C 
ATOM     12  C   UNL     1       0.688   5.759  -2.717  0.00  0.00    -0.026 C 
BRANCH  11  13
ATOM     13  C   UNL     1      -1.461   5.296  -1.819  0.00  0.00    +0.174 C 
ATOM     14  O   UNL     1      -1.781   5.989  -0.477  0.00  0.00    -0.218 OA
BRANCH  13  15
ATOM     15  C   UNL     1      -2.638   6.198  -2.606  0.00  0.00    +0.037 C 
BRANCH  15  16
ATOM     16  C   UNL     1      -2.720   5.557  -3.979  0.00  0.00    +0.003 C 
BRANCH  16  17
ATOM     17  C   UNL     1      -2.485   6.553  -5.103  0.00  0.00    +0.000 C 
BRANCH  17  19
ATOM     18  C   UNL     1      -2.216   5.719  -6.554  0.00  0.00    +0.000 C 
ATOM     19  C   UNL     1      -2.448   5.701  -6.358  0.00  0.00    +0.000 C 
ENDBRANCH  17  19
ENDBRANCH  16  17
ENDBRANCH  15  16
ENDBRANCH  13  15
ENDBRANCH  11  13
ENDBRANCH   1  12
BRANCH   6  20
ATOM     20  C   UNL     1       3.738   6.583  -8.406  0.00  0.00    +0.029 C 
BRANCH  20  21
ATOM     21  C   UNL     1       3.827   6.638  -9.927  0.00  0.00    +0.017 C 
BRANCH  21  22
ATOM     22  C   UNL     1       4.136   5.219 -10.361  0.00  0.00    +0.114 C 
BRANCH  22  23
ATOM     23  C   UNL     1       4.537   5.331 -11.795  0.00  0.00    +0.365 C 
ATOM     24  O   UNL     1       5.870   5.343 -12.180  0.00  0.00    -0.246 OA
ATOM     25  O   UNL     1       3.718   5.971 -12.491  0.00  0.00    -0.246 OA
ENDBRANCH  22  23
ENDBRANCH  21  22
ENDBRANCH  20  21
ENDBRANCH   6  20
TORSDOF 10
ENDMDL
MODEL 9
REMARK VINA RESULT:      -6.4      1.968      3.397
REMARK  Name = 
REMARK  10 active torsions:
REMARK  status: ('A' for Active; 'I' for Inactive)
REMARK    1  A    between atoms: C_2  and  C_3
REMARK    2  A    between atoms: C_3  and  C_4
REMARK    3  A    between atoms: C_4  and  C_5
REMARK    4  A    between atoms: C_5  and  C_6
REMARK    5  A    between atoms: C_6  and  C_8
REMARK    6  A    between atoms: C_9  and  C_10
REMARK    7  A    between atoms: C_17  and  C_18
REMARK    8  A    between atoms: C_18  and  C_19
REMARK    9  A    between atoms: C_19  and  C_20
REMARK   10  A    between atoms: C_20  and  C_21
REMARK                            x       y       z     vdW  Elec       q    Type
REMARK                         _______ _______ _______ _____ _____    ______ ____
ROOT
ATOM      1  C   UNL     1       1.221   5.059  -6.632  0.00  0.00    +0.056 C 
ATOM      2  C   UNL     1       2.839   4.622  -6.610  0.00  0.00    +0.054 C 
ATOM      3  C   UNL     1       3.346   6.094  -5.908  0.00  0.00    +0.169 C 
ATOM      4  O   UNL     1       4.777   5.821  -6.448  0.00  0.00    -0.484 OA
ATOM      5  C   UNL     1       4.649   5.398  -7.722  0.00  0.00    +0.112 C 
ATOM      6  C   UNL     1       5.643   5.283  -8.603  0.00  0.00    +0.006 C 
ATOM      7  C   UNL     1       2.910   6.830  -7.311  0.00  0.00    +0.077 C 
ATOM      8  C   UNL     1       3.249   5.046  -8.121  0.00  0.00    +0.068 C 
ATOM      9  C   UNL     1       1.320   6.744  -6.939  0.00  0.00    +0.160 C 
ATOM     10  O   UNL     1       0.966   6.499  -8.424  0.00  0.00    -0.223 OA
ENDROOT
BRANCH   1  12
ATOM     11  C   UNL     1       0.150   5.027  -4.374  0.00  0.00    +0.002 C 
ATOM     12  C   UNL     1       1.254   5.261  -5.036  0.00  0.00    -0.026 C 
BRANCH  11  13
ATOM     13  C   UNL     1       0.536   5.154  -2.776  0.00  0.00    +0.174 C 
ATOM     14  O   UNL     1       1.047   6.596  -2.983  0.00  0.00    -0.218 OA
BRANCH  13  15
ATOM     15  C   UNL     1      -0.998   5.716  -2.388  0.00  0.00    +0.037 C 
BRANCH  15  16
ATOM     16  C   UNL     1      -0.784   6.462  -1.083  0.00  0.00    +0.003 C 
BRANCH  16  17
ATOM     17  C   UNL     1      -1.730   7.641  -0.923  0.00  0.00    +0.000 C 
BRANCH  17  19
ATOM     18  C   UNL     1      -2.039   7.522   0.739  0.00  0.00    +0.000 C 
ATOM     19  C   UNL     1      -2.232   7.529   0.504  0.00  0.00    +0.000 C 
ENDBRANCH  17  19
ENDBRANCH  16  17
ENDBRANCH  15  16
ENDBRANCH  13  15
ENDBRANCH  11  13
ENDBRANCH   1  12
BRANCH   6  20
ATOM     20  C   UNL     1       5.416   5.618 -10.026  0.00  0.00    +0.029 C 
BRANCH  20  21
ATOM     21  C   UNL     1       6.571   6.533 -10.416  0.00  0.00    +0.017 C 
BRANCH  21  22
ATOM     22  C   UNL     1       7.797   5.641 -10.445  0.00  0.00    +0.114 C 
BRANCH  22  23
ATOM     23  C   UNL     1       8.151   5.516 -11.891  0.00  0.00    +0.365 C 
ATOM     24  O   UNL     1       7.531   4.586 -12.713  0.00  0.00    -0.246 OA
ATOM     25  O   UNL     1       9.337   5.823 -12.140  0.00  0.00    -0.246 OA
ENDBRANCH  22  23
ENDBRANCH  21  22
ENDBRANCH  20  21
ENDBRANCH   6  20
TORSDOF 10
ENDMDL
