MODEL 1
REMARK VINA RESULT:      -7.9      0.000      0.000
REMARK  Name = 
REMARK  6 active torsions:
REMARK  status: ('A' for Active; 'I' for Inactive)
REMARK    1  A    between atoms: C_5  and  C_6
REMARK    2  A    between atoms: C_6  and  O_7
REMARK    3  A    between atoms: O_7  and  C_8
REMARK    4  A    between atoms: C_8  and  C_9
REMARK    5  A    between atoms: C_8  and  C_15
REMARK    6  A    between atoms: C_9  and  N_10
REMARK                            x       y       z     vdW  Elec       q    Type
REMARK                         _______ _______ _______ _____ _____    ______ ____
ROOT
ATOM      1  C   UNL     1       3.029   5.846  -6.949  0.00  0.00    +0.161 C 
ENDROOT
BRANCH   1   2
ATOM      2  C   UNL     1       3.851   5.732  -8.339  0.00  0.00    +0.017 A 
ATOM      3  C   UNL     1       3.378   6.639  -9.258  0.00  0.00    +0.057 A 
ATOM      4 CL   UNL     1       1.662   6.674  -9.568  0.00  0.00    -0.082 Cl
ATOM      5  C   UNL     1       4.268   7.124 -10.198  0.00  0.00    +0.023 A 
ATOM      6  C   UNL     1       5.566   6.631 -10.209  0.00  0.00    +0.058 A 
ATOM      7 CL   UNL     1       6.859   7.575 -10.951  0.00  0.00    -0.082 Cl
ATOM      8  C   UNL     1       5.926   5.539  -9.426  0.00  0.00    +0.011 A 
ATOM      9  C   UNL     1       5.139   5.346  -8.295  0.00  0.00    -0.000 A 
ENDBRANCH   1   2
BRANCH   1  10
ATOM     10  O   UNL     1       2.337   4.504  -7.170  0.00  0.00    -0.345 OA
BRANCH  10  11
ATOM     11  C   UNL     1       1.768   4.386  -5.960  0.00  0.00    +0.170 C 
BRANCH  11  17
ATOM     12 CL   UNL     1      -2.787   7.829  -5.180  0.00  0.00    -0.082 Cl
ATOM     13  C   UNL     1      -1.574   6.760  -5.363  0.00  0.00    +0.058 A 
ATOM     14  C   UNL     1      -0.659   6.505  -4.361  0.00  0.00    +0.023 A 
ATOM     15  C   UNL     1       0.207   5.431  -4.500  0.00  0.00    +0.057 A 
ATOM     16 CL   UNL     1       1.408   5.249  -3.221  0.00  0.00    -0.082 Cl
ATOM     17  C   UNL     1       0.405   4.786  -5.721  0.00  0.00    +0.018 A 
ATOM     18  C   UNL     1      -0.634   4.896  -6.608  0.00  0.00    -0.000 A 
ATOM     19  C   UNL     1      -1.602   5.881  -6.440  0.00  0.00    +0.011 A 
ENDBRANCH  11  17
ENDBRANCH  10  11
ENDBRANCH   1  10
BRANCH   1  20
ATOM     20  C   UNL     1       4.238   5.155  -6.060  0.00  0.00    +0.142 C 
BRANCH  20  21
ATOM     21  N   UNL     1       4.385   6.122  -5.010  0.00  0.00    -0.305 N 
ATOM     22  C   UNL     1       3.995   7.395  -4.933  0.00  0.00    +0.179 A 
ATOM     23  N   UNL     1       3.902   7.700  -3.617  0.00  0.00    -0.222 NA
ATOM     24  C   UNL     1       4.621   6.801  -2.938  0.00  0.00    +0.119 A 
ATOM     25  C   UNL     1       5.031   5.862  -3.863  0.00  0.00    +0.098 A 
ENDBRANCH  20  21
ENDBRANCH   1  20
TORSDOF 6
ENDMDL
MODEL 2
REMARK VINA RESULT:      -7.8      3.404      8.016
REMARK  Name = 
REMARK  6 active torsions:
REMARK  status: ('A' for Active; 'I' for Inactive)
REMARK    1  A    between atoms: C_5  and  C_6
REMARK    2  A    between atoms: C_6  and  O_7
REMARK    3  A    between atoms: O_7  and  C_8
REMARK    4  A    between atoms: C_8  and  C_9
REMARK    5  A    between atoms: C_8  and  C_15
REMARK    6  A    between atoms: C_9  and  N_10
REMARK                            x       y       z     vdW  Elec       q    Type
REMARK                         _______ _______ _______ _____ _____    ______ ____
ROOT
ATOM      1  C   UNL     1       1.650   6.446  -9.365  0.00  0.00    +0.161 C 
ENDROOT
BRANCH   1   2
ATOM      2  C   UNL     1       0.985   5.978  -7.965  0.00  0.00    +0.017 A 
ATOM      3  C   UNL     1       1.335   6.840  -6.952  0.00  0.00    +0.057 A 
ATOM      4 CL   UNL     1       3.026   7.204  -6.730  0.00  0.00    -0.082 Cl
ATOM      5  C   UNL     1       0.443   6.996  -5.907  0.00  0.00    +0.023 A 
ATOM      6  C   UNL     1      -0.720   6.238  -5.898  0.00  0.00    +0.058 A 
ATOM      7 CL   UNL     1      -2.116   6.776  -4.963  0.00  0.00    -0.082 Cl
ATOM      8  C   UNL     1      -0.909   5.204  -6.811  0.00  0.00    +0.011 A 
ATOM      9  C   UNL     1      -0.194   5.333  -7.997  0.00  0.00    -0.000 A 
ENDBRANCH   1   2
BRANCH   1  10
ATOM     10  O   UNL     1       2.826   5.485  -9.205  0.00  0.00    -0.345 OA
BRANCH  10  11
ATOM     11  C   UNL     1       3.711   6.144  -9.970  0.00  0.00    +0.170 C 
BRANCH  11  17
ATOM     12 CL   UNL     1       9.144   5.901 -11.877  0.00  0.00    -0.082 Cl
ATOM     13  C   UNL     1       7.618   5.845 -11.314  0.00  0.00    +0.058 A 
ATOM     14  C   UNL     1       6.532   5.652 -12.146  0.00  0.00    +0.023 A 
ATOM     15  C   UNL     1       5.292   5.394 -11.582  0.00  0.00    +0.057 A 
ATOM     16 CL   UNL     1       3.950   5.267 -12.717  0.00  0.00    -0.082 Cl
ATOM     17  C   UNL     1       5.027   5.618 -10.230  0.00  0.00    +0.018 A 
ATOM     18  C   UNL     1       6.125   5.590  -9.413  0.00  0.00    -0.000 A 
ATOM     19  C   UNL     1       7.404   5.718  -9.946  0.00  0.00    +0.011 A 
ENDBRANCH  11  17
ENDBRANCH  10  11
ENDBRANCH   1  10
BRANCH   1  20
ATOM     20  C   UNL     1       0.789   5.352 -10.255  0.00  0.00    +0.142 C 
BRANCH  20  21
ATOM     21  N   UNL     1       0.404   6.162 -11.376  0.00  0.00    -0.305 N 
ATOM     22  C   UNL     1      -0.279   7.306 -11.434  0.00  0.00    +0.179 A 
ATOM     23  N   UNL     1       0.058   7.907 -12.600  0.00  0.00    -0.222 NA
ATOM     24  C   UNL     1       0.575   6.975 -13.406  0.00  0.00    +0.119 A 
ATOM     25  C   UNL     1       0.674   5.827 -12.647  0.00  0.00    +0.098 A 
ENDBRANCH  20  21
ENDBRANCH   1  20
TORSDOF 6
ENDMDL
MODEL 3
REMARK VINA RESULT:      -7.7      1.048      6.146
REMARK  Name = 
REMARK  6 active torsions:
REMARK  status: ('A' for Active; 'I' for Inactive)
REMARK    1  A    between atoms: C_5  and  C_6
REMARK    2  A    between atoms: C_6  and  O_7
REMARK    3  A    between atoms: O_7  and  C_8
REMARK    4  A    between atoms: C_8  and  C_9
REMARK    5  A    between atoms: C_8  and  C_15
REMARK    6  A    between atoms: C_9  and  N_10
REMARK                            x       y       z     vdW  Elec       q    Type
REMARK                         _______ _______ _______ _____ _____    ______ ____
ROOT
ATOM      1  C   UNL     1       1.704   4.809  -6.086  0.00  0.00    +0.161 C 
ENDROOT
BRANCH   1   2
ATOM      2  C   UNL     1       0.147   5.047  -5.713  0.00  0.00    +0.017 A 
ATOM      3  C   UNL     1       0.032   5.676  -4.496  0.00  0.00    +0.057 A 
ATOM      4 CL   UNL     1       0.886   4.996  -3.136  0.00  0.00    -0.082 Cl
ATOM      5  C   UNL     1      -1.070   6.487  -4.295  0.00  0.00    +0.023 A 
ATOM      6  C   UNL     1      -2.028   6.579  -5.296  0.00  0.00    +0.058 A 
ATOM      7 CL   UNL     1      -3.105   7.974  -5.359  0.00  0.00    -0.082 Cl
ATOM      8  C   UNL     1      -1.992   5.734  -6.401  0.00  0.00    +0.011 A 
ATOM      9  C   UNL     1      -0.733   5.231  -6.713  0.00  0.00    -0.000 A 
ENDBRANCH   1   2
BRANCH   1  10
ATOM     10  O   UNL     1       1.438   4.955  -7.582  0.00  0.00    -0.345 OA
BRANCH  10  11
ATOM     11  C   UNL     1       2.404   4.136  -8.025  0.00  0.00    +0.170 C 
BRANCH  11  17
ATOM     12 CL   UNL     1       5.711   7.762 -11.047  0.00  0.00    -0.082 Cl
ATOM     13  C   UNL     1       4.827   6.644 -10.262  0.00  0.00    +0.058 A 
ATOM     14  C   UNL     1       3.547   6.307 -10.655  0.00  0.00    +0.023 A 
ATOM     15  C   UNL     1       2.939   5.199 -10.085  0.00  0.00    +0.057 A 
ATOM     16 CL   UNL     1       1.269   4.912 -10.571  0.00  0.00    -0.082 Cl
ATOM     17  C   UNL     1       3.430   4.591  -8.929  0.00  0.00    +0.018 A 
ATOM     18  C   UNL     1       4.765   4.784  -8.697  0.00  0.00    -0.000 A 
ATOM     19  C   UNL     1       5.452   5.808  -9.343  0.00  0.00    +0.011 A 
ENDBRANCH  11  17
ENDBRANCH  10  11
ENDBRANCH   1  10
BRANCH   1  20
ATOM     20  C   UNL     1       2.090   6.408  -5.929  0.00  0.00    +0.142 C 
BRANCH  20  21
ATOM     21  N   UNL     1       3.372   6.313  -5.291  0.00  0.00    -0.305 N 
ATOM     22  C   UNL     1       4.241   7.259  -4.930  0.00  0.00    +0.179 A 
ATOM     23  N   UNL     1       5.012   6.732  -3.949  0.00  0.00    -0.222 NA
ATOM     24  C   UNL     1       4.909   5.401  -4.019  0.00  0.00    +0.119 A 
ATOM     25  C   UNL     1       3.945   5.143  -4.973  0.00  0.00    +0.098 A 
ENDBRANCH  20  21
ENDBRANCH   1  20
TORSDOF 6
ENDMDL
MODEL 4
REMARK VINA RESULT:      -7.7      2.320      6.039
REMARK  Name = 
REMARK  6 active torsions:
REMARK  status: ('A' for Active; 'I' for Inactive)
REMARK    1  A    between atoms: C_5  and  C_6
REMARK    2  A    between atoms: C_6  and  O_7
REMARK    3  A    between atoms: O_7  and  C_8
REMARK    4  A    between atoms: C_8  and  C_9
REMARK    5  A    between atoms: C_8  and  C_15
REMARK    6  A    between atoms: C_9  and  N_10
REMARK                            x       y       z     vdW  Elec       q    Type
REMARK                         _______ _______ _______ _____ _____    ______ ____
ROOT
ATOM      1  C   UNL     1       1.621   5.150  -7.120  0.00  0.00    +0.161 C 
ENDROOT
BRANCH   1   2
ATOM      2  C   UNL     1       2.969   5.487  -6.290  0.00  0.00    +0.017 A 
ATOM      3  C   UNL     1       3.167   6.846  -6.220  0.00  0.00    +0.057 A 
ATOM      4 CL   UNL     1       3.122   7.761  -7.704  0.00  0.00    -0.082 Cl
ATOM      5  C   UNL     1       3.833   7.341  -5.114  0.00  0.00    +0.023 A 
ATOM      6  C   UNL     1       4.320   6.448  -4.168  0.00  0.00    +0.058 A 
ATOM      7 CL   UNL     1       4.643   6.997  -2.523  0.00  0.00    -0.082 Cl
ATOM      8  C   UNL     1       4.315   5.078  -4.408  0.00  0.00    +0.011 A 
ATOM      9  C   UNL     1       3.352   4.646  -5.314  0.00  0.00    -0.000 A 
ENDBRANCH   1   2
BRANCH   1  10
ATOM     10  O   UNL     1       2.233   3.893  -7.734  0.00  0.00    -0.345 OA
BRANCH  10  11
ATOM     11  C   UNL     1       2.221   4.287  -9.017  0.00  0.00    +0.170 C 
BRANCH  11  17
ATOM     12 CL   UNL     1       6.274   7.855 -11.032  0.00  0.00    -0.082 Cl
ATOM     13  C   UNL     1       5.183   6.756 -10.533  0.00  0.00    +0.058 A 
ATOM     14  C   UNL     1       3.966   6.586 -11.163  0.00  0.00    +0.023 A 
ATOM     15  C   UNL     1       3.183   5.491 -10.829  0.00  0.00    +0.057 A 
ATOM     16 CL   UNL     1       1.603   5.418 -11.608  0.00  0.00    -0.082 Cl
ATOM     17  C   UNL     1       3.419   4.728  -9.685  0.00  0.00    +0.018 A 
ATOM     18  C   UNL     1       4.706   4.766  -9.220  0.00  0.00    -0.000 A 
ATOM     19  C   UNL     1       5.573   5.776  -9.626  0.00  0.00    +0.011 A 
ENDBRANCH  11  17
ENDBRANCH  10  11
ENDBRANCH   1  10
BRANCH   1  20
ATOM     20  C   UNL     1       0.948   4.297  -5.875  0.00  0.00    +0.142 C 
BRANCH  20  21
ATOM     21  N   UNL     1      -0.284   5.011  -5.697  0.00  0.00    -0.305 N 
ATOM     22  C   UNL     1      -1.261   5.297  -6.559  0.00  0.00    +0.179 A 
ATOM     23  N   UNL     1      -2.381   5.512  -5.829  0.00  0.00    -0.222 NA
ATOM     24  C   UNL     1      -2.006   5.777  -4.574  0.00  0.00    +0.119 A 
ATOM     25  C   UNL     1      -0.641   5.574  -4.533  0.00  0.00    +0.098 A 
ENDBRANCH  20  21
ENDBRANCH   1  20
TORSDOF 6
ENDMDL
MODEL 5
REMARK VINA RESULT:      -7.7      3.106      5.207
REMARK  Name = 
REMARK  6 active torsions:
REMARK  status: ('A' for Active; 'I' for Inactive)
REMARK    1  A    between atoms: C_5  and  C_6
REMARK    2  A    between atoms: C_6  and  O_7
REMARK    3  A    between atoms: O_7  and  C_8
REMARK    4  A    between atoms: C_8  and  C_9
REMARK    5  A    between atoms: C_8  and  C_15
REMARK    6  A    between atoms: C_9  and  N_10
REMARK                            x       y       z     vdW  Elec       q    Type
REMARK                         _______ _______ _______ _____ _____    ______ ____
ROOT
ATOM      1  C   UNL     1       3.476   5.981  -9.818  0.00  0.00    +0.161 C 
ENDROOT
BRANCH   1   2
ATOM      2  C   UNL     1       5.002   6.507  -9.929  0.00  0.00    +0.017 A 
ATOM      3  C   UNL     1       5.875   5.568  -9.433  0.00  0.00    +0.057 A 
ATOM      4 CL   UNL     1       5.570   4.920  -7.843  0.00  0.00    -0.082 Cl
ATOM      5  C   UNL     1       7.149   5.529  -9.971  0.00  0.00    +0.023 A 
ATOM      6  C   UNL     1       7.501   6.469 -10.931  0.00  0.00    +0.058 A 
ATOM      7 CL   UNL     1       8.834   6.140 -12.038  0.00  0.00    -0.082 Cl
ATOM      8  C   UNL     1       6.670   7.548 -11.216  0.00  0.00    +0.011 A 
ATOM      9  C   UNL     1       5.324   7.341 -10.934  0.00  0.00    -0.000 A 
ENDBRANCH   1   2
BRANCH   1  10
ATOM     10  O   UNL     1       3.008   7.270  -9.147  0.00  0.00    -0.345 OA
BRANCH  10  11
ATOM     11  C   UNL     1       2.159   6.724  -8.263  0.00  0.00    +0.170 C 
BRANCH  11  17
ATOM     12 CL   UNL     1       4.063   4.781  -3.181  0.00  0.00    -0.082 Cl
ATOM     13  C   UNL     1       3.468   5.424  -4.553  0.00  0.00    +0.058 A 
ATOM     14  C   UNL     1       2.271   5.009  -5.103  0.00  0.00    +0.023 A 
ATOM     15  C   UNL     1       1.718   5.745  -6.139  0.00  0.00    +0.057 A 
ATOM     16 CL   UNL     1       0.245   5.080  -6.845  0.00  0.00    -0.082 Cl
ATOM     17  C   UNL     1       2.449   6.697  -6.851  0.00  0.00    +0.018 A 
ATOM     18  C   UNL     1       3.511   7.235  -6.175  0.00  0.00    -0.000 A 
ATOM     19  C   UNL     1       4.025   6.598  -5.049  0.00  0.00    +0.011 A 
ENDBRANCH  11  17
ENDBRANCH  10  11
ENDBRANCH   1  10
BRANCH   1  20
ATOM     20  C   UNL     1       3.069   6.534 -11.321  0.00  0.00    +0.142 C 
BRANCH  20  21
ATOM     21  N   UNL     1       1.698   6.117 -11.398  0.00  0.00    -0.305 N 
ATOM     22  C   UNL     1       1.135   4.924 -11.197  0.00  0.00    +0.179 A 
ATOM     23  N   UNL     1      -0.165   5.150 -10.890  0.00  0.00    -0.222 NA
ATOM     24  C   UNL     1      -0.478   6.377 -11.315  0.00  0.00    +0.119 A 
ATOM     25  C   UNL     1       0.702   6.942 -11.756  0.00  0.00    +0.098 A 
ENDBRANCH  20  21
ENDBRANCH   1  20
TORSDOF 6
ENDMDL
MODEL 6
REMARK VINA RESULT:      -7.6      1.525      1.996
REMARK  Name = 
REMARK  6 active torsions:
REMARK  status: ('A' for Active; 'I' for Inactive)
REMARK    1  A    between atoms: C_5  and  C_6
REMARK    2  A    between atoms: C_6  and  O_7
REMARK    3  A    between atoms: O_7  and  C_8
REMARK    4  A    between atoms: C_8  and  C_9
REMARK    5  A    between atoms: C_8  and  C_15
REMARK    6  A    between atoms: C_9  and  N_10
REMARK                            x       y       z     vdW  Elec       q    Type
REMARK                         _______ _______ _______ _____ _____    ______ ____
ROOT
ATOM      1  C   UNL     1       2.997   6.012  -6.145  0.00  0.00    +0.161 C 
ENDROOT
BRANCH   1   2
ATOM      2  C   UNL     1       3.583   5.680  -7.617  0.00  0.00    +0.017 A 
ATOM      3  C   UNL     1       3.187   6.636  -8.523  0.00  0.00    +0.057 A 
ATOM      4 CL   UNL     1       1.489   7.023  -8.618  0.00  0.00    -0.082 Cl
ATOM      5  C   UNL     1       4.023   6.890  -9.595  0.00  0.00    +0.023 A 
ATOM      6  C   UNL     1       5.179   6.134  -9.738  0.00  0.00    +0.058 A 
ATOM      7 CL   UNL     1       6.526   6.758 -10.691  0.00  0.00    -0.082 Cl
ATOM      8  C   UNL     1       5.409   5.017  -8.940  0.00  0.00    +0.011 A 
ATOM      9  C   UNL     1       4.758   5.032  -7.711  0.00  0.00    -0.000 A 
ENDBRANCH   1   2
BRANCH   1  10
ATOM     10  O   UNL     1       2.739   4.538  -5.842  0.00  0.00    -0.345 OA
BRANCH  10  11
ATOM     11  C   UNL     1       1.402   4.555  -5.956  0.00  0.00    +0.170 C 
BRANCH  11  17
ATOM     12 CL   UNL     1      -2.929   5.623  -2.306  0.00  0.00    -0.082 Cl
ATOM     13  C   UNL     1      -1.678   5.445  -3.331  0.00  0.00    +0.058 A 
ATOM     14  C   UNL     1      -1.834   5.501  -4.703  0.00  0.00    +0.023 A 
ATOM     15  C   UNL     1      -0.705   5.564  -5.505  0.00  0.00    +0.057 A 
ATOM     16 CL   UNL     1      -1.001   5.526  -7.242  0.00  0.00    -0.082 Cl
ATOM     17  C   UNL     1       0.570   5.270  -5.022  0.00  0.00    +0.018 A 
ATOM     18  C   UNL     1       0.729   5.435  -3.671  0.00  0.00    -0.000 A 
ATOM     19  C   UNL     1      -0.381   5.506  -2.835  0.00  0.00    +0.011 A 
ENDBRANCH  11  17
ENDBRANCH  10  11
ENDBRANCH   1  10
BRANCH   1  20
ATOM     20  C   UNL     1       4.487   5.969  -5.432  0.00  0.00    +0.142 C 
BRANCH  20  21
ATOM     21  N   UNL     1       4.156   6.371  -4.095  0.00  0.00    -0.305 N 
ATOM     22  C   UNL     1       4.247   5.715  -2.937  0.00  0.00    +0.179 A 
ATOM     23  N   UNL     1       4.308   6.649  -1.959  0.00  0.00    -0.222 NA
ATOM     24  C   UNL     1       3.834   7.795  -2.458  0.00  0.00    +0.119 A 
ATOM     25  C   UNL     1       3.621   7.566  -3.802  0.00  0.00    +0.098 A 
ENDBRANCH  20  21
ENDBRANCH   1  20
TORSDOF 6
ENDMDL
MODEL 7
REMARK VINA RESULT:      -7.4      2.832      5.668
REMARK  Name = 
REMARK  6 active torsions:
REMARK  status: ('A' for Active; 'I' for Inactive)
REMARK    1  A    between atoms: C_5  and  C_6
REMARK    2  A    between atoms: C_6  and  O_7
REMARK    3  A    between atoms: O_7  and  C_8
REMARK    4  A    between atoms: C_8  and  C_9
REMARK    5  A    between atoms: C_8  and  C_15
REMARK    6  A    between atoms: C_9  and  N_10
REMARK                            x       y       z     vdW  Elec       q    Type
REMARK                         _______ _______ _______ _____ _____    ______ ____
ROOT
ATOM      1  C   UNL     1       1.626   5.043  -7.282  0.00  0.00    +0.161 C 
ENDROOT
BRANCH   1   2
ATOM      2  C   UNL     1       2.964   5.500  -6.494  0.00  0.00    +0.017 A 
ATOM      3  C   UNL     1       2.957   6.858  -6.277  0.00  0.00    +0.057 A 
ATOM      4 CL   UNL     1       2.665   7.907  -7.640  0.00  0.00    -0.082 Cl
ATOM      5  C   UNL     1       3.619   7.332  -5.159  0.00  0.00    +0.023 A 
ATOM      6  C   UNL     1       4.303   6.433  -4.353  0.00  0.00    +0.058 A 
ATOM      7 CL   UNL     1       4.658   6.847  -2.675  0.00  0.00    -0.082 Cl
ATOM      8  C   UNL     1       4.489   5.112  -4.750  0.00  0.00    +0.011 A 
ATOM      9  C   UNL     1       3.540   4.631  -5.645  0.00  0.00    -0.000 A 
ENDBRANCH   1   2
BRANCH   1  10
ATOM     10  O   UNL     1       2.258   3.727  -7.730  0.00  0.00    -0.345 OA
BRANCH  10  11
ATOM     11  C   UNL     1       2.780   4.156  -8.889  0.00  0.00    +0.170 C 
BRANCH  11  17
ATOM     12 CL   UNL     1       0.759   5.759 -14.044  0.00  0.00    -0.082 Cl
ATOM     13  C   UNL     1       1.264   5.402 -12.538  0.00  0.00    +0.058 A 
ATOM     14  C   UNL     1       2.447   5.894 -12.022  0.00  0.00    +0.023 A 
ATOM     15  C   UNL     1       2.705   5.735 -10.669  0.00  0.00    +0.057 A 
ATOM     16 CL   UNL     1       4.284   6.299 -10.123  0.00  0.00    -0.082 Cl
ATOM     17  C   UNL     1       1.982   4.848  -9.870  0.00  0.00    +0.018 A 
ATOM     18  C   UNL     1       0.724   4.555 -10.324  0.00  0.00    -0.000 A 
ATOM     19  C   UNL     1       0.374   4.815 -11.646  0.00  0.00    +0.011 A 
ENDBRANCH  11  17
ENDBRANCH  10  11
ENDBRANCH   1  10
BRANCH   1  20
ATOM     20  C   UNL     1       0.956   4.344  -5.943  0.00  0.00    +0.142 C 
BRANCH  20  21
ATOM     21  N   UNL     1      -0.299   5.039  -5.878  0.00  0.00    -0.305 N 
ATOM     22  C   UNL     1      -1.222   5.265  -6.814  0.00  0.00    +0.179 A 
ATOM     23  N   UNL     1      -2.391   5.489  -6.168  0.00  0.00    -0.222 NA
ATOM     24  C   UNL     1      -2.103   5.819  -4.905  0.00  0.00    +0.119 A 
ATOM     25  C   UNL     1      -0.740   5.647  -4.767  0.00  0.00    +0.098 A 
ENDBRANCH  20  21
ENDBRANCH   1  20
TORSDOF 6
ENDMDL
MODEL 8
REMARK VINA RESULT:      -7.3      2.217      6.817
REMARK  Name = 
REMARK  6 active torsions:
REMARK  status: ('A' for Active; 'I' for Inactive)
REMARK    1  A    between atoms: C_5  and  C_6
REMARK    2  A    between atoms: C_6  and  O_7
REMARK    3  A    between atoms: O_7  and  C_8
REMARK    4  A    between atoms: C_8  and  C_9
REMARK    5  A    between atoms: C_8  and  C_15
REMARK    6  A    between atoms: C_9  and  N_10
REMARK                            x       y       z     vdW  Elec       q    Type
REMARK                         _______ _______ _______ _____ _____    ______ ____
ROOT
ATOM      1  C   UNL     1       3.026   6.180  -4.962  0.00  0.00    +0.161 C 
ENDROOT
BRANCH   1   2
ATOM      2  C   UNL     1       3.897   6.042  -3.604  0.00  0.00    +0.017 A 
ATOM      3  C   UNL     1       4.445   7.254  -3.256  0.00  0.00    +0.057 A 
ATOM      4 CL   UNL     1       5.343   8.128  -4.468  0.00  0.00    -0.082 Cl
ATOM      5  C   UNL     1       4.667   7.495  -1.912  0.00  0.00    +0.023 A 
ATOM      6  C   UNL     1       4.387   6.491  -0.995  0.00  0.00    +0.058 A 
ATOM      7 CL   UNL     1       4.096   6.899   0.696  0.00  0.00    -0.082 Cl
ATOM      8  C   UNL     1       4.072   5.202  -1.417  0.00  0.00    +0.011 A 
ATOM      9  C   UNL     1       3.531   5.121  -2.696  0.00  0.00    -0.000 A 
ENDBRANCH   1   2
BRANCH   1  10
ATOM     10  O   UNL     1       4.144   5.590  -5.819  0.00  0.00    -0.345 OA
BRANCH  10  11
ATOM     11  C   UNL     1       3.700   6.005  -7.016  0.00  0.00    +0.170 C 
BRANCH  11  17
ATOM     12 CL   UNL     1       6.937   6.940 -11.692  0.00  0.00    -0.082 Cl
ATOM     13  C   UNL     1       5.999   6.560 -10.418  0.00  0.00    +0.058 A 
ATOM     14  C   UNL     1       4.652   6.862 -10.377  0.00  0.00    +0.023 A 
ATOM     15  C   UNL     1       3.872   6.318  -9.368  0.00  0.00    +0.057 A 
ATOM     16 CL   UNL     1       2.189   6.845  -9.337  0.00  0.00    -0.082 Cl
ATOM     17  C   UNL     1       4.427   5.732  -8.230  0.00  0.00    +0.018 A 
ATOM     18  C   UNL     1       5.701   5.255  -8.387  0.00  0.00    -0.000 A 
ATOM     19  C   UNL     1       6.483   5.676  -9.459  0.00  0.00    +0.011 A 
ENDBRANCH  11  17
ENDBRANCH  10  11
ENDBRANCH   1  10
BRANCH   1  20
ATOM     20  C   UNL     1       2.304   4.706  -4.767  0.00  0.00    +0.142 C 
BRANCH  20  21
ATOM     21  N   UNL     1       0.933   5.044  -5.024  0.00  0.00    -0.305 N 
ATOM     22  C   UNL     1       0.021   5.641  -4.256  0.00  0.00    +0.179 A 
ATOM     23  N   UNL     1      -0.905   6.175  -5.086  0.00  0.00    -0.222 NA
ATOM     24  C   UNL     1      -0.799   5.559  -6.267  0.00  0.00    +0.119 A 
ATOM     25  C   UNL     1       0.309   4.741  -6.173  0.00  0.00    +0.098 A 
ENDBRANCH  20  21
ENDBRANCH   1  20
TORSDOF 6
ENDMDL
MODEL 9
REMARK VINA RESULT:      -7.2      2.550      6.253
REMARK  Name = 
REMARK  6 active torsions:
REMARK  status: ('A' for Active; 'I' for Inactive)
REMARK    1  A    between atoms: C_5  and  C_6
REMARK    2  A    between atoms: C_6  and  O_7
REMARK    3  A    between atoms: O_7  and  C_8
REMARK    4  A    between atoms: C_8  and  C_9
REMARK    5  A    between atoms: C_8  and  C_15
REMARK    6  A    between atoms: C_9  and  N_10
REMARK                            x       y       z     vdW  Elec       q    Type
REMARK                         _______ _______ _______ _____ _____    ______ ____
ROOT
ATOM      1  C   UNL     1       1.592   6.000  -4.621  0.00  0.00    +0.161 C 
ENDROOT
BRANCH   1   2
ATOM      2  C   UNL     1       2.817   5.869  -3.570  0.00  0.00    +0.017 A 
ATOM      3  C   UNL     1       3.658   6.952  -3.669  0.00  0.00    +0.057 A 
ATOM      4 CL   UNL     1       4.256   7.386  -5.249  0.00  0.00    -0.082 Cl
ATOM      5  C   UNL     1       4.343   7.338  -2.532  0.00  0.00    +0.023 A 
ATOM      6  C   UNL     1       4.200   6.585  -1.374  0.00  0.00    +0.058 A 
ATOM      7 CL   UNL     1       4.552   7.308   0.196  0.00  0.00    -0.082 Cl
ATOM      8  C   UNL     1       3.538   5.361  -1.392  0.00  0.00    +0.011 A 
ATOM      9  C   UNL     1       2.606   5.215  -2.414  0.00  0.00    -0.000 A 
ENDBRANCH   1   2
BRANCH   1  10
ATOM     10  O   UNL     1       1.890   4.638  -5.243  0.00  0.00    -0.345 OA
BRANCH  10  11
ATOM     11  C   UNL     1       1.447   4.897  -6.482  0.00  0.00    +0.170 C 
BRANCH  11  17
ATOM     12 CL   UNL     1       4.789   7.256 -10.542  0.00  0.00    -0.082 Cl
ATOM     13  C   UNL     1       3.859   6.479  -9.456  0.00  0.00    +0.058 A 
ATOM     14  C   UNL     1       2.484   6.420  -9.571  0.00  0.00    +0.023 A 
ATOM     15  C   UNL     1       1.777   5.562  -8.743  0.00  0.00    +0.057 A 
ATOM     16 CL   UNL     1       0.021   5.634  -8.891  0.00  0.00    -0.082 Cl
ATOM     17  C   UNL     1       2.345   4.988  -7.605  0.00  0.00    +0.018 A 
ATOM     18  C   UNL     1       3.710   4.877  -7.633  0.00  0.00    -0.000 A 
ATOM     19  C   UNL     1       4.459   5.626  -8.537  0.00  0.00    +0.011 A 
ENDBRANCH  11  17
ENDBRANCH  10  11
ENDBRANCH   1  10
BRANCH   1  20
ATOM     20  C   UNL     1       0.490   5.357  -3.571  0.00  0.00    +0.142 C 
BRANCH  20  21
ATOM     21  N   UNL     1      -0.694   6.071  -3.955  0.00  0.00    -0.305 N 
ATOM     22  C   UNL     1      -1.984   5.761  -3.818  0.00  0.00    +0.179 A 
ATOM     23  N   UNL     1      -2.675   6.925  -3.856  0.00  0.00    -0.222 NA
ATOM     24  C   UNL     1      -1.893   7.846  -4.427  0.00  0.00    +0.119 A 
ATOM     25  C   UNL     1      -0.662   7.246  -4.601  0.00  0.00    +0.098 A 
ENDBRANCH  20  21
ENDBRANCH   1  20
TORSDOF 6
ENDMDL
