MODEL 1
REMARK VINA RESULT:      -9.2      0.000      0.000
REMARK  Name = 
REMARK  7 active torsions:
REMARK  status: ('A' for Active; 'I' for Inactive)
REMARK    1  A    between atoms: C_2  and  C_3
REMARK    2  A    between atoms: C_3  and  C_4
REMARK    3  A    between atoms: C_4  and  C_5
REMARK    4  A    between atoms: C_5  and  C_6
REMARK    5  A    between atoms: C_6  and  O_8
REMARK    6  A    between atoms: O_8  and  C_9
REMARK    7  A    between atoms: C_9  and  C_10
REMARK                            x       y       z     vdW  Elec       q    Type
REMARK                         _______ _______ _______ _____ _____    ______ ____
ROOT
ATOM      1  C   UNL     1       2.034   5.608  -8.856  0.00  0.00    +0.186 C 
ATOM      2  C   UNL     1       1.942   5.504  -7.381  0.00  0.00    +0.040 C 
ATOM      3  C   UNL     1       3.377   6.259  -7.123  0.00  0.00    +0.004 C 
ATOM      4  C   UNL     1       2.965   6.695  -5.524  0.00  0.00    +0.001 C 
ATOM      5  C   UNL     1       3.610   5.228  -4.932  0.00  0.00    +0.003 C 
ATOM      6  C   UNL     1       2.224   4.404  -5.268  0.00  0.00    +0.000 C 
ATOM      7  C   UNL     1       3.182   5.557  -3.387  0.00  0.00    +0.016 C 
ATOM      8  C   UNL     1       3.643   6.949  -3.129  0.00  0.00    -0.042 C 
ATOM      9  C   UNL     1       3.324   7.355  -1.899  0.00  0.00    +0.029 C 
ATOM     10  C   UNL     1       3.016   6.274  -0.951  0.00  0.00    +0.173 C 
ATOM     11  C   UNL     1       3.854   5.043  -1.114  0.00  0.00    +0.069 C 
ATOM     12  O   UNL     1       2.526   6.476   0.181  0.00  0.00    -0.291 OA
ATOM     13  C   UNL     1       4.694   7.605  -3.919  0.00  0.00    +0.022 C 
ATOM     14  C   UNL     1       1.744   5.499  -3.195  0.00  0.00    +0.004 C 
ATOM     15  C   UNL     1       4.015   4.639  -2.548  0.00  0.00    +0.012 C 
ATOM     16  C   UNL     1       4.363   7.481  -5.361  0.00  0.00    +0.004 C 
ATOM     17  C   UNL     1       2.754   7.649  -7.739  0.00  0.00    +0.004 C 
ATOM     18  C   UNL     1       0.877   6.352  -6.827  0.00  0.00    +0.004 C 
ATOM     19  C   UNL     1       2.205   4.200  -6.756  0.00  0.00    +0.004 C 
ATOM     20  C   UNL     1       2.256   7.102  -9.073  0.00  0.00    +0.047 C 
ENDROOT
BRANCH   1  21
ATOM     21  C   UNL     1       0.845   5.125  -9.598  0.00  0.00    +0.187 C 
ATOM     22  O   UNL     1       0.915   3.994 -10.077  0.00  0.00    -0.292 OA
ATOM     23  C   UNL     1       0.122   6.148 -10.425  0.00  0.00    +0.076 C 
ENDBRANCH   1  21
BRANCH   1  24
ATOM     24  O   UNL     1       3.147   4.849  -9.296  0.00  0.00    -0.449 OA
BRANCH  24  25
ATOM     25  C   UNL     1       3.915   5.344 -10.335  0.00  0.00    +0.317 C 
ATOM     26  O   UNL     1       3.422   5.575 -11.462  0.00  0.00    -0.250 OA
BRANCH  25  27
ATOM     27  C   UNL     1       5.279   5.852  -9.993  0.00  0.00    +0.110 C 
BRANCH  27  28
ATOM     28  C   UNL     1       5.590   7.111 -10.779  0.00  0.00    +0.012 C 
BRANCH  28  29
ATOM     29  C   UNL     1       7.091   7.244 -10.853  0.00  0.00    +0.001 C 
BRANCH  29  31
ATOM     30  C   UNL     1       8.649   5.782 -12.080  0.00  0.00    +0.000 C 
ATOM     31  C   UNL     1       7.665   5.845 -10.953  0.00  0.00    +0.000 C 
ENDBRANCH  29  31
ENDBRANCH  28  29
ENDBRANCH  27  28
ENDBRANCH  25  27
ENDBRANCH  24  25
ENDBRANCH   1  24
TORSDOF 7
ENDMDL
MODEL 2
REMARK VINA RESULT:      -8.5      2.471      4.140
REMARK  Name = 
REMARK  7 active torsions:
REMARK  status: ('A' for Active; 'I' for Inactive)
REMARK    1  A    between atoms: C_2  and  C_3
REMARK    2  A    between atoms: C_3  and  C_4
REMARK    3  A    between atoms: C_4  and  C_5
REMARK    4  A    between atoms: C_5  and  C_6
REMARK    5  A    between atoms: C_6  and  O_8
REMARK    6  A    between atoms: O_8  and  C_9
REMARK    7  A    between atoms: C_9  and  C_10
REMARK                            x       y       z     vdW  Elec       q    Type
REMARK                         _______ _______ _______ _____ _____    ______ ____
ROOT
ATOM      1  C   UNL     1       3.405   5.578  -8.306  0.00  0.00    +0.186 C 
ATOM      2  C   UNL     1       2.584   5.703  -7.080  0.00  0.00    +0.040 C 
ATOM      3  C   UNL     1       1.167   5.815  -7.901  0.00  0.00    +0.004 C 
ATOM      4  C   UNL     1       0.241   5.319  -6.554  0.00  0.00    +0.001 C 
ATOM      5  C   UNL     1       0.088   6.939  -6.032  0.00  0.00    +0.003 C 
ATOM      6  C   UNL     1       1.552   6.907  -5.279  0.00  0.00    +0.000 C 
ATOM      7  C   UNL     1      -0.747   6.523  -4.688  0.00  0.00    +0.016 C 
ATOM      8  C   UNL     1      -1.811   5.588  -5.147  0.00  0.00    -0.042 C 
ATOM      9  C   UNL     1      -2.552   5.144  -4.130  0.00  0.00    +0.029 C 
ATOM     10  C   UNL     1      -2.479   5.961  -2.910  0.00  0.00    +0.173 C 
ATOM     11  C   UNL     1      -2.385   7.437  -3.151  0.00  0.00    +0.069 C 
ATOM     12  O   UNL     1      -2.961   5.599  -1.815  0.00  0.00    -0.291 OA
ATOM     13  C   UNL     1      -2.279   5.526  -6.538  0.00  0.00    +0.022 C 
ATOM     14  C   UNL     1       0.088   5.839  -3.716  0.00  0.00    +0.004 C 
ATOM     15  C   UNL     1      -1.415   7.785  -4.237  0.00  0.00    +0.012 C 
ATOM     16  C   UNL     1      -1.105   5.381  -7.437  0.00  0.00    +0.004 C 
ATOM     17  C   UNL     1       1.354   4.272  -8.431  0.00  0.00    +0.004 C 
ATOM     18  C   UNL     1       2.558   4.458  -6.298  0.00  0.00    +0.004 C 
ATOM     19  C   UNL     1       2.587   6.987  -6.365  0.00  0.00    +0.004 C 
ATOM     20  C   UNL     1       2.751   4.406  -9.030  0.00  0.00    +0.047 C 
ENDROOT
BRANCH   1  21
ATOM     21  C   UNL     1       4.850   5.334  -8.077  0.00  0.00    +0.187 C 
ATOM     22  O   UNL     1       5.346   4.370  -8.658  0.00  0.00    -0.292 OA
ATOM     23  C   UNL     1       5.351   5.597  -6.688  0.00  0.00    +0.076 C 
ENDBRANCH   1  21
BRANCH   1  24
ATOM     24  O   UNL     1       3.290   6.779  -9.052  0.00  0.00    -0.449 OA
BRANCH  24  25
ATOM     25  C   UNL     1       3.760   6.794 -10.354  0.00  0.00    +0.317 C 
ATOM     26  O   UNL     1       3.065   6.373 -11.306  0.00  0.00    -0.250 OA
BRANCH  25  27
ATOM     27  C   UNL     1       5.004   7.579 -10.621  0.00  0.00    +0.110 C 
BRANCH  27  28
ATOM     28  C   UNL     1       6.017   6.731 -11.366  0.00  0.00    +0.012 C 
BRANCH  28  29
ATOM     29  C   UNL     1       7.294   6.734 -10.563  0.00  0.00    +0.001 C 
BRANCH  29  31
ATOM     30  C   UNL     1       8.805   5.776 -12.258  0.00  0.00    +0.000 C 
ATOM     31  C   UNL     1       8.088   5.508 -10.970  0.00  0.00    +0.000 C 
ENDBRANCH  29  31
ENDBRANCH  28  29
ENDBRANCH  27  28
ENDBRANCH  25  27
ENDBRANCH  24  25
ENDBRANCH   1  24
TORSDOF 7
ENDMDL
MODEL 3
REMARK VINA RESULT:      -8.3      2.891      8.356
REMARK  Name = 
REMARK  7 active torsions:
REMARK  status: ('A' for Active; 'I' for Inactive)
REMARK    1  A    between atoms: C_2  and  C_3
REMARK    2  A    between atoms: C_3  and  C_4
REMARK    3  A    between atoms: C_4  and  C_5
REMARK    4  A    between atoms: C_5  and  C_6
REMARK    5  A    between atoms: C_6  and  O_8
REMARK    6  A    between atoms: O_8  and  C_9
REMARK    7  A    between atoms: C_9  and  C_10
REMARK                            x       y       z     vdW  Elec       q    Type
REMARK                         _______ _______ _______ _____ _____    ______ ____
ROOT
ATOM      1  C   UNL     1       2.903   5.820  -6.618  0.00  0.00    +0.186 C 
ATOM      2  C   UNL     1       2.936   5.800  -8.099  0.00  0.00    +0.040 C 
ATOM      3  C   UNL     1       1.320   6.045  -8.254  0.00  0.00    +0.004 C 
ATOM      4  C   UNL     1       1.470   6.645  -9.846  0.00  0.00    +0.001 C 
ATOM      5  C   UNL     1       1.309   5.068 -10.481  0.00  0.00    +0.003 C 
ATOM      6  C   UNL     1       2.906   4.738 -10.251  0.00  0.00    +0.000 C 
ATOM      7  C   UNL     1       1.512   5.570 -12.026  0.00  0.00    +0.016 C 
ATOM      8  C   UNL     1       0.605   6.738 -12.192  0.00  0.00    -0.042 C 
ATOM      9  C   UNL     1       0.698   7.267 -13.413  0.00  0.00    +0.029 C 
ATOM     10  C   UNL     1       1.288   6.381 -14.427  0.00  0.00    +0.173 C 
ATOM     11  C   UNL     1       0.913   4.937 -14.288  0.00  0.00    +0.069 C 
ATOM     12  O   UNL     1       1.615   6.771 -15.569  0.00  0.00    -0.291 OA
ATOM     13  C   UNL     1      -0.554   6.983 -11.322  0.00  0.00    +0.022 C 
ATOM     14  C   UNL     1       2.876   5.998 -12.285  0.00  0.00    +0.004 C 
ATOM     15  C   UNL     1       0.980   4.456 -12.871  0.00  0.00    +0.012 C 
ATOM     16  C   UNL     1      -0.116   6.928  -9.905  0.00  0.00    +0.004 C 
ATOM     17  C   UNL     1       1.486   7.541  -7.597  0.00  0.00    +0.004 C 
ATOM     18  C   UNL     1       3.628   6.971  -8.657  0.00  0.00    +0.004 C 
ATOM     19  C   UNL     1       3.081   4.504  -8.777  0.00  0.00    +0.004 C 
ATOM     20  C   UNL     1       2.216   7.147  -6.317  0.00  0.00    +0.047 C 
ENDROOT
BRANCH   1  21
ATOM     21  C   UNL     1       4.227   5.733  -5.956  0.00  0.00    +0.187 C 
ATOM     22  O   UNL     1       4.566   4.626  -5.540  0.00  0.00    -0.292 OA
ATOM     23  C   UNL     1       4.616   6.906  -5.104  0.00  0.00    +0.076 C 
ENDBRANCH   1  21
BRANCH   1  24
ATOM     24  O   UNL     1       2.130   4.720  -6.168  0.00  0.00    -0.449 OA
BRANCH  24  25
ATOM     25  C   UNL     1       1.219   4.928  -5.148  0.00  0.00    +0.317 C 
ATOM     26  O   UNL     1       1.584   5.290  -4.006  0.00  0.00    -0.250 OA
BRANCH  25  27
ATOM     27  C   UNL     1      -0.228   4.976  -5.524  0.00  0.00    +0.110 C 
BRANCH  27  28
ATOM     28  C   UNL     1      -1.002   5.839  -4.547  0.00  0.00    +0.012 C 
BRANCH  28  29
ATOM     29  C   UNL     1      -1.663   6.941  -5.338  0.00  0.00    +0.001 C 
BRANCH  29  31
ATOM     30  C   UNL     1      -2.120   7.593  -3.006  0.00  0.00    +0.000 C 
ATOM     31  C   UNL     1      -1.884   8.106  -4.392  0.00  0.00    +0.000 C 
ENDBRANCH  29  31
ENDBRANCH  28  29
ENDBRANCH  27  28
ENDBRANCH  25  27
ENDBRANCH  24  25
ENDBRANCH   1  24
TORSDOF 7
ENDMDL
MODEL 4
REMARK VINA RESULT:      -8.2      2.075      7.934
REMARK  Name = 
REMARK  7 active torsions:
REMARK  status: ('A' for Active; 'I' for Inactive)
REMARK    1  A    between atoms: C_2  and  C_3
REMARK    2  A    between atoms: C_3  and  C_4
REMARK    3  A    between atoms: C_4  and  C_5
REMARK    4  A    between atoms: C_5  and  C_6
REMARK    5  A    between atoms: C_6  and  O_8
REMARK    6  A    between atoms: O_8  and  C_9
REMARK    7  A    between atoms: C_9  and  C_10
REMARK                            x       y       z     vdW  Elec       q    Type
REMARK                         _______ _______ _______ _____ _____    ______ ____
ROOT
ATOM      1  C   UNL     1       3.488   5.808  -2.094  0.00  0.00    +0.186 C 
ATOM      2  C   UNL     1       3.951   5.682  -3.496  0.00  0.00    +0.040 C 
ATOM      3  C   UNL     1       2.516   6.156  -4.135  0.00  0.00    +0.004 C 
ATOM      4  C   UNL     1       3.224   6.615  -5.620  0.00  0.00    +0.001 C 
ATOM      5  C   UNL     1       3.000   5.040  -6.242  0.00  0.00    +0.003 C 
ATOM      6  C   UNL     1       4.382   4.490  -5.534  0.00  0.00    +0.000 C 
ATOM      7  C   UNL     1       3.728   5.398  -7.663  0.00  0.00    +0.016 C 
ATOM      8  C   UNL     1       3.114   6.675  -8.120  0.00  0.00    -0.042 C 
ATOM      9  C   UNL     1       3.649   7.099  -9.266  0.00  0.00    +0.029 C 
ATOM     10  C   UNL     1       4.356   6.066 -10.037  0.00  0.00    +0.173 C 
ATOM     11  C   UNL     1       3.726   4.708  -9.988  0.00  0.00    +0.069 C 
ATOM     12  O   UNL     1       5.065   6.322 -11.035  0.00  0.00    -0.291 OA
ATOM     13  C   UNL     1       1.808   7.152  -7.645  0.00  0.00    +0.022 C 
ATOM     14  C   UNL     1       5.158   5.597  -7.509  0.00  0.00    +0.004 C 
ATOM     15  C   UNL     1       3.293   4.321  -8.607  0.00  0.00    +0.012 C 
ATOM     16  C   UNL     1       1.795   7.129  -6.160  0.00  0.00    +0.004 C 
ATOM     17  C   UNL     1       2.725   7.652  -3.491  0.00  0.00    +0.004 C 
ATOM     18  C   UNL     1       4.959   6.693  -3.844  0.00  0.00    +0.004 C 
ATOM     19  C   UNL     1       4.074   4.335  -4.072  0.00  0.00    +0.004 C 
ATOM     20  C   UNL     1       2.970   7.242  -2.042  0.00  0.00    +0.047 C 
ENDROOT
BRANCH   1  21
ATOM     21  C   UNL     1       4.526   5.570  -1.062  0.00  0.00    +0.187 C 
ATOM     22  O   UNL     1       4.611   4.425  -0.620  0.00  0.00    -0.292 OA
ATOM     23  C   UNL     1       4.740   6.678  -0.074  0.00  0.00    +0.076 C 
ENDBRANCH   1  21
BRANCH   1  24
ATOM     24  O   UNL     1       2.447   4.871  -1.875  0.00  0.00    -0.449 OA
BRANCH  24  25
ATOM     25  C   UNL     1       1.357   5.262  -1.118  0.00  0.00    +0.317 C 
ATOM     26  O   UNL     1       1.496   5.770   0.018  0.00  0.00    -0.250 OA
BRANCH  25  27
ATOM     27  C   UNL     1       0.031   5.313  -1.807  0.00  0.00    +0.110 C 
BRANCH  27  28
ATOM     28  C   UNL     1      -0.764   6.517  -1.340  0.00  0.00    +0.012 C 
BRANCH  28  29
ATOM     29  C   UNL     1      -1.788   6.827  -2.404  0.00  0.00    +0.001 C 
BRANCH  29  31
ATOM     30  C   UNL     1      -1.681   7.861  -4.638  0.00  0.00    +0.000 C 
ATOM     31  C   UNL     1      -1.068   6.834  -3.738  0.00  0.00    +0.000 C 
ENDBRANCH  29  31
ENDBRANCH  28  29
ENDBRANCH  27  28
ENDBRANCH  25  27
ENDBRANCH  24  25
ENDBRANCH   1  24
TORSDOF 7
ENDMDL
MODEL 5
REMARK VINA RESULT:      -7.9      2.927      7.897
REMARK  Name = 
REMARK  7 active torsions:
REMARK  status: ('A' for Active; 'I' for Inactive)
REMARK    1  A    between atoms: C_2  and  C_3
REMARK    2  A    between atoms: C_3  and  C_4
REMARK    3  A    between atoms: C_4  and  C_5
REMARK    4  A    between atoms: C_5  and  C_6
REMARK    5  A    between atoms: C_6  and  O_8
REMARK    6  A    between atoms: O_8  and  C_9
REMARK    7  A    between atoms: C_9  and  C_10
REMARK                            x       y       z     vdW  Elec       q    Type
REMARK                         _______ _______ _______ _____ _____    ______ ____
ROOT
ATOM      1  C   UNL     1       0.970   5.566  -7.442  0.00  0.00    +0.186 C 
ATOM      2  C   UNL     1       1.848   5.581  -8.635  0.00  0.00    +0.040 C 
ATOM      3  C   UNL     1       3.214   5.867  -7.769  0.00  0.00    +0.004 C 
ATOM      4  C   UNL     1       4.231   5.259  -8.999  0.00  0.00    +0.001 C 
ATOM      5  C   UNL     1       4.337   6.808  -9.711  0.00  0.00    +0.003 C 
ATOM      6  C   UNL     1       2.917   6.607 -10.522  0.00  0.00    +0.000 C 
ATOM      7  C   UNL     1       5.260   6.275 -10.954  0.00  0.00    +0.016 C 
ATOM      8  C   UNL     1       6.340   5.460 -10.332  0.00  0.00    -0.042 C 
ATOM      9  C   UNL     1       7.153   4.934 -11.249  0.00  0.00    +0.029 C 
ATOM     10  C   UNL     1       7.107   5.590 -12.564  0.00  0.00    +0.173 C 
ATOM     11  C   UNL     1       6.933   7.077 -12.515  0.00  0.00    +0.069 C 
ATOM     12  O   UNL     1       7.662   5.122 -13.582  0.00  0.00    -0.291 OA
ATOM     13  C   UNL     1       6.736   5.594  -8.923  0.00  0.00    +0.022 C 
ATOM     14  C   UNL     1       4.509   5.434 -11.869  0.00  0.00    +0.004 C 
ATOM     15  C   UNL     1       5.891   7.505 -11.527  0.00  0.00    +0.012 C 
ATOM     16  C   UNL     1       5.525   5.499  -8.069  0.00  0.00    +0.004 C 
ATOM     17  C   UNL     1       3.071   4.393  -7.060  0.00  0.00    +0.004 C 
ATOM     18  C   UNL     1       1.973   4.254  -9.253  0.00  0.00    +0.004 C 
ATOM     19  C   UNL     1       1.824   6.766  -9.504  0.00  0.00    +0.004 C 
ATOM     20  C   UNL     1       1.640   4.527  -6.548  0.00  0.00    +0.047 C 
ENDROOT
BRANCH   1  21
ATOM     21  C   UNL     1      -0.447   5.220  -7.706  0.00  0.00    +0.187 C 
ATOM     22  O   UNL     1      -1.073   5.980  -8.443  0.00  0.00    -0.292 OA
ATOM     23  C   UNL     1      -1.211   4.644  -6.550  0.00  0.00    +0.076 C 
ENDBRANCH   1  21
BRANCH   1  24
ATOM     24  O   UNL     1       0.991   6.853  -6.847  0.00  0.00    -0.449 OA
BRANCH  24  25
ATOM     25  C   UNL     1       0.778   6.953  -5.484  0.00  0.00    +0.317 C 
ATOM     26  O   UNL     1       1.723   6.877  -4.666  0.00  0.00    -0.250 OA
BRANCH  25  27
ATOM     27  C   UNL     1      -0.567   7.429  -5.036  0.00  0.00    +0.110 C 
BRANCH  27  28
ATOM     28  C   UNL     1      -0.903   6.863  -3.671  0.00  0.00    +0.012 C 
BRANCH  28  29
ATOM     29  C   UNL     1      -2.170   7.533  -3.199  0.00  0.00    +0.001 C 
BRANCH  29  31
ATOM     30  C   UNL     1      -3.229   5.317  -3.397  0.00  0.00    +0.000 C 
ATOM     31  C   UNL     1      -2.999   6.483  -2.486  0.00  0.00    +0.000 C 
ENDBRANCH  29  31
ENDBRANCH  28  29
ENDBRANCH  27  28
ENDBRANCH  25  27
ENDBRANCH  24  25
ENDBRANCH   1  24
TORSDOF 7
ENDMDL
MODEL 6
REMARK VINA RESULT:      -7.9      1.447      2.425
REMARK  Name = 
REMARK  7 active torsions:
REMARK  status: ('A' for Active; 'I' for Inactive)
REMARK    1  A    between atoms: C_2  and  C_3
REMARK    2  A    between atoms: C_3  and  C_4
REMARK    3  A    between atoms: C_4  and  C_5
REMARK    4  A    between atoms: C_5  and  C_6
REMARK    5  A    between atoms: C_6  and  O_8
REMARK    6  A    between atoms: O_8  and  C_9
REMARK    7  A    between atoms: C_9  and  C_10
REMARK                            x       y       z     vdW  Elec       q    Type
REMARK                         _______ _______ _______ _____ _____    ______ ____
ROOT
ATOM      1  C   UNL     1       1.987   5.694  -8.888  0.00  0.00    +0.186 C 
ATOM      2  C   UNL     1       1.929   5.536  -7.416  0.00  0.00    +0.040 C 
ATOM      3  C   UNL     1       3.329   6.354  -7.157  0.00  0.00    +0.004 C 
ATOM      4  C   UNL     1       2.926   6.713  -5.536  0.00  0.00    +0.001 C 
ATOM      5  C   UNL     1       3.656   5.262  -5.008  0.00  0.00    +0.003 C 
ATOM      6  C   UNL     1       2.307   4.380  -5.347  0.00  0.00    +0.000 C 
ATOM      7  C   UNL     1       3.242   5.516  -3.445  0.00  0.00    +0.016 C 
ATOM      8  C   UNL     1       3.637   6.920  -3.146  0.00  0.00    -0.042 C 
ATOM      9  C   UNL     1       3.322   7.268  -1.897  0.00  0.00    +0.029 C 
ATOM     10  C   UNL     1       3.088   6.141  -0.983  0.00  0.00    +0.173 C 
ATOM     11  C   UNL     1       3.982   4.960  -1.203  0.00  0.00    +0.069 C 
ATOM     12  O   UNL     1       2.610   6.279   0.165  0.00  0.00    -0.291 OA
ATOM     13  C   UNL     1       4.638   7.656  -3.932  0.00  0.00    +0.022 C 
ATOM     14  C   UNL     1       1.812   5.378  -3.230  0.00  0.00    +0.004 C 
ATOM     15  C   UNL     1       4.135   4.613  -2.653  0.00  0.00    +0.012 C 
ATOM     16  C   UNL     1       4.286   7.563  -5.371  0.00  0.00    +0.004 C 
ATOM     17  C   UNL     1       2.626   7.730  -7.713  0.00  0.00    +0.004 C 
ATOM     18  C   UNL     1       0.834   6.309  -6.814  0.00  0.00    +0.004 C 
ATOM     19  C   UNL     1       2.269   4.226  -6.841  0.00  0.00    +0.004 C 
ATOM     20  C   UNL     1       2.129   7.204  -9.056  0.00  0.00    +0.047 C 
ENDROOT
BRANCH   1  21
ATOM     21  C   UNL     1       0.809   5.176  -9.625  0.00  0.00    +0.187 C 
ATOM     22  O   UNL     1       0.923   4.063 -10.136  0.00  0.00    -0.292 OA
ATOM     23  C   UNL     1       0.027   6.186 -10.412  0.00  0.00    +0.076 C 
ENDBRANCH   1  21
BRANCH   1  24
ATOM     24  O   UNL     1       3.128   5.008  -9.373  0.00  0.00    -0.449 OA
BRANCH  24  25
ATOM     25  C   UNL     1       3.893   5.611 -10.356  0.00  0.00    +0.317 C 
ATOM     26  O   UNL     1       4.834   6.387 -10.072  0.00  0.00    -0.250 OA
BRANCH  25  27
ATOM     27  C   UNL     1       3.739   5.096 -11.752  0.00  0.00    +0.110 C 
BRANCH  27  28
ATOM     28  C   UNL     1       2.805   5.988 -12.547  0.00  0.00    +0.012 C 
BRANCH  28  29
ATOM     29  C   UNL     1       2.401   5.233 -13.789  0.00  0.00    +0.001 C 
BRANCH  29  31
ATOM     30  C   UNL     1       0.918   6.746 -15.047  0.00  0.00    +0.000 C 
ATOM     31  C   UNL     1       0.960   5.595 -14.090  0.00  0.00    +0.000 C 
ENDBRANCH  29  31
ENDBRANCH  28  29
ENDBRANCH  27  28
ENDBRANCH  25  27
ENDBRANCH  24  25
ENDBRANCH   1  24
TORSDOF 7
ENDMDL
MODEL 7
REMARK VINA RESULT:      -7.9      2.904      4.834
REMARK  Name = 
REMARK  7 active torsions:
REMARK  status: ('A' for Active; 'I' for Inactive)
REMARK    1  A    between atoms: C_2  and  C_3
REMARK    2  A    between atoms: C_3  and  C_4
REMARK    3  A    between atoms: C_4  and  C_5
REMARK    4  A    between atoms: C_5  and  C_6
REMARK    5  A    between atoms: C_6  and  O_8
REMARK    6  A    between atoms: O_8  and  C_9
REMARK    7  A    between atoms: C_9  and  C_10
REMARK                            x       y       z     vdW  Elec       q    Type
REMARK                         _______ _______ _______ _____ _____    ______ ____
ROOT
ATOM      1  C   UNL     1       2.965   5.513  -8.407  0.00  0.00    +0.186 C 
ATOM      2  C   UNL     1       2.235   5.607  -7.122  0.00  0.00    +0.040 C 
ATOM      3  C   UNL     1       0.769   5.801  -7.836  0.00  0.00    +0.004 C 
ATOM      4  C   UNL     1      -0.079   5.274  -6.450  0.00  0.00    +0.001 C 
ATOM      5  C   UNL     1      -0.139   6.872  -5.849  0.00  0.00    +0.003 C 
ATOM      6  C   UNL     1       1.371   6.760  -5.203  0.00  0.00    +0.000 C 
ATOM      7  C   UNL     1      -0.894   6.423  -4.469  0.00  0.00    +0.016 C 
ATOM      8  C   UNL     1      -2.019   5.543  -4.892  0.00  0.00    -0.042 C 
ATOM      9  C   UNL     1      -2.704   5.078  -3.846  0.00  0.00    +0.029 C 
ATOM     10  C   UNL     1      -2.519   5.836  -2.600  0.00  0.00    +0.173 C 
ATOM     11  C   UNL     1      -2.390   7.317  -2.782  0.00  0.00    +0.069 C 
ATOM     12  O   UNL     1      -2.936   5.439  -1.490  0.00  0.00    -0.291 OA
ATOM     13  C   UNL     1      -2.583   5.560  -6.249  0.00  0.00    +0.022 C 
ATOM     14  C   UNL     1      -0.019   5.669  -3.589  0.00  0.00    +0.004 C 
ATOM     15  C   UNL     1      -1.485   7.683  -3.918  0.00  0.00    +0.012 C 
ATOM     16  C   UNL     1      -1.480   5.419  -7.233  0.00  0.00    +0.004 C 
ATOM     17  C   UNL     1       0.865   4.279  -8.444  0.00  0.00    +0.004 C 
ATOM     18  C   UNL     1       2.219   4.330  -6.395  0.00  0.00    +0.004 C 
ATOM     19  C   UNL     1       2.331   6.857  -6.354  0.00  0.00    +0.004 C 
ATOM     20  C   UNL     1       2.222   4.396  -9.133  0.00  0.00    +0.047 C 
ENDROOT
BRANCH   1  21
ATOM     21  C   UNL     1       4.412   5.213  -8.291  0.00  0.00    +0.187 C 
ATOM     22  O   UNL     1       4.809   4.186  -8.839  0.00  0.00    -0.292 OA
ATOM     23  C   UNL     1       5.051   5.547  -6.975  0.00  0.00    +0.076 C 
ENDBRANCH   1  21
BRANCH   1  24
ATOM     24  O   UNL     1       2.840   6.749  -9.091  0.00  0.00    -0.449 OA
BRANCH  24  25
ATOM     25  C   UNL     1       3.388   6.861 -10.356  0.00  0.00    +0.317 C 
ATOM     26  O   UNL     1       4.592   7.160 -10.525  0.00  0.00    -0.250 OA
BRANCH  25  27
ATOM     27  C   UNL     1       2.573   6.349 -11.500  0.00  0.00    +0.110 C 
BRANCH  27  28
ATOM     28  C   UNL     1       1.139   6.828 -11.388  0.00  0.00    +0.012 C 
BRANCH  28  29
ATOM     29  C   UNL     1       0.374   6.254 -12.555  0.00  0.00    +0.001 C 
BRANCH  29  31
ATOM     30  C   UNL     1       0.758   4.287 -13.989  0.00  0.00    +0.000 C 
ATOM     31  C   UNL     1       0.630   4.760 -12.574  0.00  0.00    +0.000 C 
ENDBRANCH  29  31
ENDBRANCH  28  29
ENDBRANCH  27  28
ENDBRANCH  25  27
ENDBRANCH  24  25
ENDBRANCH   1  24
TORSDOF 7
ENDMDL
MODEL 8
REMARK VINA RESULT:      -7.8      2.230      7.893
REMARK  Name = 
REMARK  7 active torsions:
REMARK  status: ('A' for Active; 'I' for Inactive)
REMARK    1  A    between atoms: C_2  and  C_3
REMARK    2  A    between atoms: C_3  and  C_4
REMARK    3  A    between atoms: C_4  and  C_5
REMARK    4  A    between atoms: C_5  and  C_6
REMARK    5  A    between atoms: C_6  and  O_8
REMARK    6  A    between atoms: O_8  and  C_9
REMARK    7  A    between atoms: C_9  and  C_10
REMARK                            x       y       z     vdW  Elec       q    Type
REMARK                         _______ _______ _______ _____ _____    ______ ____
ROOT
ATOM      1  C   UNL     1       3.099   5.845  -5.001  0.00  0.00    +0.186 C 
ATOM      2  C   UNL     1       2.381   5.607  -6.275  0.00  0.00    +0.040 C 
ATOM      3  C   UNL     1       3.412   6.527  -7.162  0.00  0.00    +0.004 C 
ATOM      4  C   UNL     1       2.988   5.753  -8.625  0.00  0.00    +0.001 C 
ATOM      5  C   UNL     1       1.731   6.880  -8.885  0.00  0.00    +0.003 C 
ATOM      6  C   UNL     1       0.690   6.045  -7.920  0.00  0.00    +0.000 C 
ATOM      7  C   UNL     1       1.233   6.147 -10.261  0.00  0.00    +0.016 C 
ATOM      8  C   UNL     1       2.465   5.923 -11.066  0.00  0.00    -0.042 C 
ATOM      9  C   UNL     1       2.199   5.296 -12.213  0.00  0.00    +0.029 C 
ATOM     10  C   UNL     1       0.794   5.358 -12.639  0.00  0.00    +0.173 C 
ATOM     11  C   UNL     1       0.109   6.658 -12.347  0.00  0.00    +0.069 C 
ATOM     12  O   UNL     1       0.335   4.680 -13.585  0.00  0.00    -0.291 OA
ATOM     13  C   UNL     1       3.706   6.685 -10.863  0.00  0.00    +0.022 C 
ATOM     14  C   UNL     1       0.608   4.862  -9.998  0.00  0.00    +0.004 C 
ATOM     15  C   UNL     1       0.405   7.170 -10.971  0.00  0.00    +0.012 C 
ATOM     16  C   UNL     1       4.071   6.640  -9.425  0.00  0.00    +0.004 C 
ATOM     17  C   UNL     1       4.621   5.456  -6.863  0.00  0.00    +0.004 C 
ATOM     18  C   UNL     1       2.504   4.216  -6.733  0.00  0.00    +0.004 C 
ATOM     19  C   UNL     1       1.115   6.318  -6.505  0.00  0.00    +0.004 C 
ATOM     20  C   UNL     1       4.527   5.429  -5.340  0.00  0.00    +0.047 C 
ENDROOT
BRANCH   1  21
ATOM     21  C   UNL     1       2.580   5.093  -3.833  0.00  0.00    +0.187 C 
ATOM     22  O   UNL     1       1.592   5.562  -3.270  0.00  0.00    -0.292 OA
ATOM     23  C   UNL     1       3.610   4.463  -2.943  0.00  0.00    +0.076 C 
ENDBRANCH   1  21
BRANCH   1  24
ATOM     24  O   UNL     1       3.021   7.225  -4.688  0.00  0.00    -0.449 OA
BRANCH  24  25
ATOM     25  C   UNL     1       4.040   7.791  -3.942  0.00  0.00    +0.317 C 
ATOM     26  O   UNL     1       5.071   8.253  -4.485  0.00  0.00    -0.250 OA
BRANCH  25  27
ATOM     27  C   UNL     1       3.754   8.082  -2.504  0.00  0.00    +0.110 C 
BRANCH  27  28
ATOM     28  C   UNL     1       4.804   7.447  -1.614  0.00  0.00    +0.012 C 
BRANCH  28  29
ATOM     29  C   UNL     1       4.102   6.911  -0.391  0.00  0.00    +0.001 C 
BRANCH  29  31
ATOM     30  C   UNL     1       4.454   8.699   1.268  0.00  0.00    +0.000 C 
ATOM     31  C   UNL     1       4.906   7.343   0.819  0.00  0.00    +0.000 C 
ENDBRANCH  29  31
ENDBRANCH  28  29
ENDBRANCH  27  28
ENDBRANCH  25  27
ENDBRANCH  24  25
ENDBRANCH   1  24
TORSDOF 7
ENDMDL
MODEL 9
REMARK VINA RESULT:      -7.8      2.046      5.035
REMARK  Name = 
REMARK  7 active torsions:
REMARK  status: ('A' for Active; 'I' for Inactive)
REMARK    1  A    between atoms: C_2  and  C_3
REMARK    2  A    between atoms: C_3  and  C_4
REMARK    3  A    between atoms: C_4  and  C_5
REMARK    4  A    between atoms: C_5  and  C_6
REMARK    5  A    between atoms: C_6  and  O_8
REMARK    6  A    between atoms: O_8  and  C_9
REMARK    7  A    between atoms: C_9  and  C_10
REMARK                            x       y       z     vdW  Elec       q    Type
REMARK                         _______ _______ _______ _____ _____    ______ ____
ROOT
ATOM      1  C   UNL     1       2.478   5.350  -7.600  0.00  0.00    +0.186 C 
ATOM      2  C   UNL     1       3.189   5.853  -6.401  0.00  0.00    +0.040 C 
ATOM      3  C   UNL     1       1.965   5.477  -5.374  0.00  0.00    +0.004 C 
ATOM      4  C   UNL     1       2.994   5.449  -4.011  0.00  0.00    +0.001 C 
ATOM      5  C   UNL     1       2.728   7.116  -3.747  0.00  0.00    +0.003 C 
ATOM      6  C   UNL     1       3.879   7.543  -4.845  0.00  0.00    +0.000 C 
ATOM      7  C   UNL     1       3.754   7.170  -2.472  0.00  0.00    +0.016 C 
ATOM      8  C   UNL     1       3.381   6.018  -1.605  0.00  0.00    -0.042 C 
ATOM      9  C   UNL     1       4.171   5.929  -0.534  0.00  0.00    +0.029 C 
ATOM     10  C   UNL     1       4.900   7.161  -0.200  0.00  0.00    +0.173 C 
ATOM     11  C   UNL     1       4.131   8.425  -0.432  0.00  0.00    +0.069 C 
ATOM     12  O   UNL     1       5.813   7.205   0.653  0.00  0.00    -0.291 OA
ATOM     13  C   UNL     1       2.065   5.366  -1.661  0.00  0.00    +0.022 C 
ATOM     14  C   UNL     1       5.139   7.018  -2.879  0.00  0.00    +0.004 C 
ATOM     15  C   UNL     1       3.398   8.425  -1.738  0.00  0.00    +0.012 C 
ATOM     16  C   UNL     1       1.761   5.011  -3.070  0.00  0.00    +0.004 C 
ATOM     17  C   UNL     1       2.203   3.881  -5.677  0.00  0.00    +0.004 C 
ATOM     18  C   UNL     1       4.348   5.019  -6.050  0.00  0.00    +0.004 C 
ATOM     19  C   UNL     1       3.277   7.306  -6.201  0.00  0.00    +0.004 C 
ATOM     20  C   UNL     1       2.116   3.923  -7.199  0.00  0.00    +0.047 C 
ENDROOT
BRANCH   1  21
ATOM     21  C   UNL     1       3.263   5.376  -8.857  0.00  0.00    +0.187 C 
ATOM     22  O   UNL     1       4.044   4.444  -9.040  0.00  0.00    -0.292 OA
ATOM     23  C   UNL     1       3.728   6.727  -9.316  0.00  0.00    +0.076 C 
ENDBRANCH   1  21
BRANCH   1  24
ATOM     24  O   UNL     1       1.320   6.142  -7.804  0.00  0.00    -0.449 OA
BRANCH  24  25
ATOM     25  C   UNL     1       0.201   5.544  -8.358  0.00  0.00    +0.317 C 
ATOM     26  O   UNL     1       0.172   5.198  -9.561  0.00  0.00    -0.250 OA
BRANCH  25  27
ATOM     27  C   UNL     1      -0.861   5.078  -7.415  0.00  0.00    +0.110 C 
BRANCH  27  28
ATOM     28  C   UNL     1      -1.410   6.243  -6.615  0.00  0.00    +0.012 C 
BRANCH  28  29
ATOM     29  C   UNL     1      -1.646   5.758  -5.206  0.00  0.00    +0.001 C 
BRANCH  29  31
ATOM     30  C   UNL     1      -1.906   8.127  -4.582  0.00  0.00    +0.000 C 
ATOM     31  C   UNL     1      -1.184   6.854  -4.267  0.00  0.00    +0.000 C 
ENDBRANCH  29  31
ENDBRANCH  28  29
ENDBRANCH  27  28
ENDBRANCH  25  27
ENDBRANCH  24  25
ENDBRANCH   1  24
TORSDOF 7
ENDMDL
