MODEL 1
REMARK VINA RESULT:      -6.0      0.000      0.000
REMARK  Name = 
REMARK  7 active torsions:
REMARK  status: ('A' for Active; 'I' for Inactive)
REMARK    1  A    between atoms: C_2  and  C_3
REMARK    2  A    between atoms: C_3  and  N_4
REMARK    3  A    between atoms: N_4  and  C_5
REMARK    4  A    between atoms: C_5  and  C_7
REMARK    5  A    between atoms: N_9  and  C_10
REMARK    6  A    between atoms: C_15  and  C_16
REMARK    7  A    between atoms: C_16  and  O_18
REMARK                            x       y       z     vdW  Elec       q    Type
REMARK                         _______ _______ _______ _____ _____    ______ ____
ROOT
ATOM      1  C   UNL     1       3.183   6.041  -9.449  0.00  0.00    +0.082 A 
ATOM      2  C   UNL     1       2.300   5.844 -10.491  0.00  0.00    +0.120 A 
ATOM      3  S   UNL     1       3.305   6.068 -11.862  0.00  0.00    -0.079 S 
ATOM      4  C   UNL     1       4.813   6.164 -11.051  0.00  0.00    +0.033 A 
ATOM      5  C   UNL     1       4.471   5.719  -9.781  0.00  0.00    +0.001 A 
ATOM      6  C   UNL     1       5.573   5.397  -8.814  0.00  0.00    +0.033 C 
ENDROOT
BRANCH   1   8
ATOM      7  C   UNL     1       2.760   7.173  -7.348  0.00  0.00    +0.261 C 
ATOM      8  N   UNL     1       2.721   5.944  -8.091  0.00  0.00    -0.178 NA
ATOM      9  O   UNL     1       2.089   8.110  -7.881  0.00  0.00    -0.271 OA
BRANCH   7  10
ATOM     10  C   UNL     1       2.318   6.943  -5.782  0.00  0.00    +0.151 C 
ATOM     11  C   UNL     1       3.679   6.015  -5.480  0.00  0.00    +0.029 C 
BRANCH  10  12
ATOM     12  N   UNL     1       1.470   5.639  -6.171  0.00  0.00    -0.210 NA
BRANCH  12  13
ATOM     13  C   UNL     1       0.136   6.004  -5.760  0.00  0.00    +0.089 C 
BRANCH  13  15
ATOM     14  C   UNL     1      -2.242   5.771  -6.343  0.00  0.00    +0.002 C 
ATOM     15  C   UNL     1      -0.839   5.373  -6.743  0.00  0.00    +0.019 C 
ENDBRANCH  13  15
ENDBRANCH  12  13
ENDBRANCH  10  12
ENDBRANCH   7  10
ENDBRANCH   1   8
BRANCH   2  16
ATOM     16  C   UNL     1       0.862   5.551 -10.449  0.00  0.00    +0.349 C 
ATOM     17  O   UNL     1       0.520   4.430 -10.883  0.00  0.00    -0.244 OA
BRANCH  16  18
ATOM     18  O   UNL     1      -0.102   6.559 -10.425  0.00  0.00    -0.441 OA
ATOM     19  C   UNL     1      -0.368   7.395 -11.533  0.00  0.00    +0.256 C 
ENDBRANCH  16  18
ENDBRANCH   2  16
TORSDOF 7
ENDMDL
MODEL 2
REMARK VINA RESULT:      -5.8      2.644      6.096
REMARK  Name = 
REMARK  7 active torsions:
REMARK  status: ('A' for Active; 'I' for Inactive)
REMARK    1  A    between atoms: C_2  and  C_3
REMARK    2  A    between atoms: C_3  and  N_4
REMARK    3  A    between atoms: N_4  and  C_5
REMARK    4  A    between atoms: C_5  and  C_7
REMARK    5  A    between atoms: N_9  and  C_10
REMARK    6  A    between atoms: C_15  and  C_16
REMARK    7  A    between atoms: C_16  and  O_18
REMARK                            x       y       z     vdW  Elec       q    Type
REMARK                         _______ _______ _______ _____ _____    ______ ____
ROOT
ATOM      1  C   UNL     1       1.185   6.042  -6.167  0.00  0.00    +0.082 A 
ATOM      2  C   UNL     1       1.995   5.924  -5.057  0.00  0.00    +0.120 A 
ATOM      3  S   UNL     1       0.904   6.257  -3.777  0.00  0.00    -0.079 S 
ATOM      4  C   UNL     1      -0.546   6.296  -4.691  0.00  0.00    +0.033 A 
ATOM      5  C   UNL     1      -0.126   5.752  -5.898  0.00  0.00    +0.001 A 
ATOM      6  C   UNL     1      -1.165   5.360  -6.907  0.00  0.00    +0.033 C 
ENDROOT
BRANCH   1   8
ATOM      7  C   UNL     1       1.711   6.993  -8.334  0.00  0.00    +0.261 C 
ATOM      8  N   UNL     1       1.734   5.837  -7.480  0.00  0.00    -0.178 NA
ATOM      9  O   UNL     1       2.323   7.994  -7.850  0.00  0.00    -0.271 OA
BRANCH   7  10
ATOM     10  C   UNL     1       2.257   6.636  -9.843  0.00  0.00    +0.151 C 
ATOM     11  C   UNL     1       0.769   6.013 -10.290  0.00  0.00    +0.029 C 
BRANCH  10  12
ATOM     12  N   UNL     1       2.759   5.191  -9.362  0.00  0.00    -0.210 NA
BRANCH  12  13
ATOM     13  C   UNL     1       4.090   5.126  -9.917  0.00  0.00    +0.089 C 
BRANCH  13  15
ATOM     14  C   UNL     1       6.421   5.666  -9.349  0.00  0.00    +0.002 C 
ATOM     15  C   UNL     1       5.076   5.285  -8.770  0.00  0.00    +0.019 C 
ENDBRANCH  13  15
ENDBRANCH  12  13
ENDBRANCH  10  12
ENDBRANCH   7  10
ENDBRANCH   1   8
BRANCH   2  16
ATOM     16  C   UNL     1       3.431   5.622  -4.981  0.00  0.00    +0.349 C 
ATOM     17  O   UNL     1       3.749   4.664  -4.245  0.00  0.00    -0.244 OA
BRANCH  16  18
ATOM     18  O   UNL     1       4.406   6.579  -5.259  0.00  0.00    -0.441 OA
ATOM     19  C   UNL     1       4.736   7.623  -4.366  0.00  0.00    +0.256 C 
ENDBRANCH  16  18
ENDBRANCH   2  16
TORSDOF 7
ENDMDL
MODEL 3
REMARK VINA RESULT:      -5.7      3.374      6.159
REMARK  Name = 
REMARK  7 active torsions:
REMARK  status: ('A' for Active; 'I' for Inactive)
REMARK    1  A    between atoms: C_2  and  C_3
REMARK    2  A    between atoms: C_3  and  N_4
REMARK    3  A    between atoms: N_4  and  C_5
REMARK    4  A    between atoms: C_5  and  C_7
REMARK    5  A    between atoms: N_9  and  C_10
REMARK    6  A    between atoms: C_15  and  C_16
REMARK    7  A    between atoms: C_16  and  O_18
REMARK                            x       y       z     vdW  Elec       q    Type
REMARK                         _______ _______ _______ _____ _____    ______ ____
ROOT
ATOM      1  C   UNL     1       2.670   6.574  -4.826  0.00  0.00    +0.082 A 
ATOM      2  C   UNL     1       1.390   6.529  -4.312  0.00  0.00    +0.120 A 
ATOM      3  S   UNL     1       1.684   6.382  -2.629  0.00  0.00    -0.079 S 
ATOM      4  C   UNL     1       3.382   6.618  -2.652  0.00  0.00    +0.033 A 
ATOM      5  C   UNL     1       3.577   7.094  -3.942  0.00  0.00    +0.001 A 
ATOM      6  C   UNL     1       4.912   7.681  -4.296  0.00  0.00    +0.033 C 
ENDROOT
BRANCH   1   8
ATOM      7  C   UNL     1       3.415   5.527  -6.881  0.00  0.00    +0.261 C 
ATOM      8  N   UNL     1       2.867   6.694  -6.246  0.00  0.00    -0.178 NA
ATOM      9  O   UNL     1       2.716   4.481  -6.711  0.00  0.00    -0.271 OA
BRANCH   7  10
ATOM     10  C   UNL     1       3.705   5.793  -8.477  0.00  0.00    +0.151 C 
ATOM     11  C   UNL     1       3.301   4.216  -8.867  0.00  0.00    +0.029 C 
BRANCH  10  12
ATOM     12  N   UNL     1       5.249   5.396  -8.304  0.00  0.00    -0.210 NA
BRANCH  12  13
ATOM     13  C   UNL     1       5.783   5.652  -9.620  0.00  0.00    +0.089 C 
BRANCH  13  15
ATOM     14  C   UNL     1       7.708   6.865 -10.554  0.00  0.00    +0.002 C 
ATOM     15  C   UNL     1       7.276   5.902  -9.470  0.00  0.00    +0.019 C 
ENDBRANCH  13  15
ENDBRANCH  12  13
ENDBRANCH  10  12
ENDBRANCH   7  10
ENDBRANCH   1   8
BRANCH   2  16
ATOM     16  C   UNL     1       0.103   6.564  -5.017  0.00  0.00    +0.349 C 
ATOM     17  O   UNL     1      -0.652   7.518  -4.728  0.00  0.00    -0.244 OA
BRANCH  16  18
ATOM     18  O   UNL     1      -0.478   5.420  -5.561  0.00  0.00    -0.441 OA
ATOM     19  C   UNL     1      -0.760   5.280  -6.939  0.00  0.00    +0.256 C 
ENDBRANCH  16  18
ENDBRANCH   2  16
TORSDOF 7
ENDMDL
MODEL 4
REMARK VINA RESULT:      -5.7      2.220      3.550
REMARK  Name = 
REMARK  7 active torsions:
REMARK  status: ('A' for Active; 'I' for Inactive)
REMARK    1  A    between atoms: C_2  and  C_3
REMARK    2  A    between atoms: C_3  and  N_4
REMARK    3  A    between atoms: N_4  and  C_5
REMARK    4  A    between atoms: C_5  and  C_7
REMARK    5  A    between atoms: N_9  and  C_10
REMARK    6  A    between atoms: C_15  and  C_16
REMARK    7  A    between atoms: C_16  and  O_18
REMARK                            x       y       z     vdW  Elec       q    Type
REMARK                         _______ _______ _______ _____ _____    ______ ____
ROOT
ATOM      1  C   UNL     1       2.257   5.976 -10.823  0.00  0.00    +0.082 A 
ATOM      2  C   UNL     1       3.389   6.053 -11.607  0.00  0.00    +0.120 A 
ATOM      3  S   UNL     1       2.777   5.671 -13.162  0.00  0.00    -0.079 S 
ATOM      4  C   UNL     1       1.106   5.666 -12.776  0.00  0.00    +0.033 A 
ATOM      5  C   UNL     1       1.112   6.256 -11.519  0.00  0.00    +0.001 A 
ATOM      6  C   UNL     1      -0.197   6.685 -10.923  0.00  0.00    +0.033 C 
ENDROOT
BRANCH   1   8
ATOM      7  C   UNL     1       2.112   5.086  -8.573  0.00  0.00    +0.261 C 
ATOM      8  N   UNL     1       2.345   6.231  -9.410  0.00  0.00    -0.178 NA
ATOM      9  O   UNL     1       2.899   4.118  -8.804  0.00  0.00    -0.271 OA
BRANCH   7  10
ATOM     10  C   UNL     1       2.126   5.495  -6.981  0.00  0.00    +0.151 C 
ATOM     11  C   UNL     1       1.819   3.915  -6.519  0.00  0.00    +0.029 C 
BRANCH  10  12
ATOM     12  N   UNL     1       0.559   5.830  -7.011  0.00  0.00    -0.210 NA
BRANCH  12  13
ATOM     13  C   UNL     1       0.263   6.055  -5.616  0.00  0.00    +0.089 C 
BRANCH  13  15
ATOM     14  C   UNL     1      -1.940   5.463  -6.536  0.00  0.00    +0.002 C 
ATOM     15  C   UNL     1      -1.233   6.303  -5.496  0.00  0.00    +0.019 C 
ENDBRANCH  13  15
ENDBRANCH  12  13
ENDBRANCH  10  12
ENDBRANCH   7  10
ENDBRANCH   1   8
BRANCH   2  16
ATOM     16  C   UNL     1       4.773   6.351 -11.216  0.00  0.00    +0.349 C 
ATOM     17  O   UNL     1       5.407   5.410 -10.693  0.00  0.00    -0.244 OA
BRANCH  16  18
ATOM     18  O   UNL     1       5.208   7.650 -10.955  0.00  0.00    -0.441 OA
ATOM     19  C   UNL     1       6.481   8.127 -11.341  0.00  0.00    +0.256 C 
ENDBRANCH  16  18
ENDBRANCH   2  16
TORSDOF 7
ENDMDL
MODEL 5
REMARK VINA RESULT:      -5.7      2.306      4.330
REMARK  Name = 
REMARK  7 active torsions:
REMARK  status: ('A' for Active; 'I' for Inactive)
REMARK    1  A    between atoms: C_2  and  C_3
REMARK    2  A    between atoms: C_3  and  N_4
REMARK    3  A    between atoms: N_4  and  C_5
REMARK    4  A    between atoms: C_5  and  C_7
REMARK    5  A    between atoms: N_9  and  C_10
REMARK    6  A    between atoms: C_15  and  C_16
REMARK    7  A    between atoms: C_16  and  O_18
REMARK                            x       y       z     vdW  Elec       q    Type
REMARK                         _______ _______ _______ _____ _____    ______ ____
ROOT
ATOM      1  C   UNL     1       2.317   5.907 -10.711  0.00  0.00    +0.082 A 
ATOM      2  C   UNL     1       3.421   6.056 -11.525  0.00  0.00    +0.120 A 
ATOM      3  S   UNL     1       2.767   5.745 -13.079  0.00  0.00    -0.079 S 
ATOM      4  C   UNL     1       1.111   5.675 -12.642  0.00  0.00    +0.033 A 
ATOM      5  C   UNL     1       1.144   6.195 -11.355  0.00  0.00    +0.001 A 
ATOM      6  C   UNL     1      -0.155   6.556 -10.695  0.00  0.00    +0.033 C 
ENDROOT
BRANCH   1   8
ATOM      7  C   UNL     1       2.302   4.884  -8.514  0.00  0.00    +0.261 C 
ATOM      8  N   UNL     1       2.446   6.085  -9.290  0.00  0.00    -0.178 NA
ATOM      9  O   UNL     1       3.128   3.973  -8.829  0.00  0.00    -0.271 OA
BRANCH   7  10
ATOM     10  C   UNL     1       2.356   5.202  -6.902  0.00  0.00    +0.151 C 
ATOM     11  C   UNL     1       1.145   6.351  -7.035  0.00  0.00    +0.029 C 
BRANCH  10  12
ATOM     12  N   UNL     1       3.489   6.316  -7.119  0.00  0.00    -0.210 NA
BRANCH  12  13
ATOM     13  C   UNL     1       4.375   6.076  -6.006  0.00  0.00    +0.089 C 
BRANCH  13  15
ATOM     14  C   UNL     1       5.412   7.307  -4.146  0.00  0.00    +0.002 C 
ATOM     15  C   UNL     1       4.169   7.200  -5.001  0.00  0.00    +0.019 C 
ENDBRANCH  13  15
ENDBRANCH  12  13
ENDBRANCH  10  12
ENDBRANCH   7  10
ENDBRANCH   1   8
BRANCH   2  16
ATOM     16  C   UNL     1       4.809   6.368 -11.162  0.00  0.00    +0.349 C 
ATOM     17  O   UNL     1       5.454   5.442 -10.624  0.00  0.00    -0.244 OA
BRANCH  16  18
ATOM     18  O   UNL     1       5.245   7.674 -10.941  0.00  0.00    -0.441 OA
ATOM     19  C   UNL     1       6.514   8.142 -11.348  0.00  0.00    +0.256 C 
ENDBRANCH  16  18
ENDBRANCH   2  16
TORSDOF 7
ENDMDL
MODEL 6
REMARK VINA RESULT:      -5.7      3.614      6.507
REMARK  Name = 
REMARK  7 active torsions:
REMARK  status: ('A' for Active; 'I' for Inactive)
REMARK    1  A    between atoms: C_2  and  C_3
REMARK    2  A    between atoms: C_3  and  N_4
REMARK    3  A    between atoms: N_4  and  C_5
REMARK    4  A    between atoms: C_5  and  C_7
REMARK    5  A    between atoms: N_9  and  C_10
REMARK    6  A    between atoms: C_15  and  C_16
REMARK    7  A    between atoms: C_16  and  O_18
REMARK                            x       y       z     vdW  Elec       q    Type
REMARK                         _______ _______ _______ _____ _____    ______ ____
ROOT
ATOM      1  C   UNL     1      -0.243   5.852  -4.800  0.00  0.00    +0.082 A 
ATOM      2  C   UNL     1      -0.237   5.856  -3.420  0.00  0.00    +0.120 A 
ATOM      3  S   UNL     1      -1.667   6.729  -3.057  0.00  0.00    -0.079 S 
ATOM      4  C   UNL     1      -2.305   6.832  -4.645  0.00  0.00    +0.033 A 
ATOM      5  C   UNL     1      -1.506   5.920  -5.322  0.00  0.00    +0.001 A 
ATOM      6  C   UNL     1      -1.908   5.507  -6.708  0.00  0.00    +0.033 C 
ENDROOT
BRANCH   1   8
ATOM      7  C   UNL     1       1.670   6.090  -6.269  0.00  0.00    +0.261 C 
ATOM      8  N   UNL     1       0.822   5.205  -5.518  0.00  0.00    -0.178 NA
ATOM      9  O   UNL     1       2.220   6.989  -5.560  0.00  0.00    -0.271 OA
BRANCH   7  10
ATOM     10  C   UNL     1       2.787   5.255  -7.140  0.00  0.00    +0.151 C 
ATOM     11  C   UNL     1       3.130   6.596  -8.082  0.00  0.00    +0.029 C 
BRANCH  10  12
ATOM     12  N   UNL     1       1.669   4.765  -8.179  0.00  0.00    -0.210 NA
BRANCH  12  13
ATOM     13  C   UNL     1       1.425   5.955  -8.957  0.00  0.00    +0.089 C 
BRANCH  13  15
ATOM     14  C   UNL     1       0.087   6.831 -10.825  0.00  0.00    +0.002 C 
ATOM     15  C   UNL     1       0.216   5.690  -9.841  0.00  0.00    +0.019 C 
ENDBRANCH  13  15
ENDBRANCH  12  13
ENDBRANCH  10  12
ENDBRANCH   7  10
ENDBRANCH   1   8
BRANCH   2  16
ATOM     16  C   UNL     1       0.752   5.293  -2.493  0.00  0.00    +0.349 C 
ATOM     17  O   UNL     1       0.302   4.522  -1.617  0.00  0.00    -0.244 OA
BRANCH  16  18
ATOM     18  O   UNL     1       1.976   5.912  -2.244  0.00  0.00    -0.441 OA
ATOM     19  C   UNL     1       3.211   5.378  -2.677  0.00  0.00    +0.256 C 
ENDBRANCH  16  18
ENDBRANCH   2  16
TORSDOF 7
ENDMDL
MODEL 7
REMARK VINA RESULT:      -5.6      2.661      5.269
REMARK  Name = 
REMARK  7 active torsions:
REMARK  status: ('A' for Active; 'I' for Inactive)
REMARK    1  A    between atoms: C_2  and  C_3
REMARK    2  A    between atoms: C_3  and  N_4
REMARK    3  A    between atoms: N_4  and  C_5
REMARK    4  A    between atoms: C_5  and  C_7
REMARK    5  A    between atoms: N_9  and  C_10
REMARK    6  A    between atoms: C_15  and  C_16
REMARK    7  A    between atoms: C_16  and  O_18
REMARK                            x       y       z     vdW  Elec       q    Type
REMARK                         _______ _______ _______ _____ _____    ______ ____
ROOT
ATOM      1  C   UNL     1       0.647   5.976  -6.095  0.00  0.00    +0.082 A 
ATOM      2  C   UNL     1       1.204   6.394  -7.287  0.00  0.00    +0.120 A 
ATOM      3  S   UNL     1       0.132   5.718  -8.441  0.00  0.00    -0.079 S 
ATOM      4  C   UNL     1      -1.072   5.151  -7.360  0.00  0.00    +0.033 A 
ATOM      5  C   UNL     1      -0.706   5.788  -6.182  0.00  0.00    +0.001 A 
ATOM      6  C   UNL     1      -1.665   5.767  -5.028  0.00  0.00    +0.033 C 
ENDROOT
BRANCH   1   8
ATOM      7  C   UNL     1       1.954   5.269  -4.181  0.00  0.00    +0.261 C 
ATOM      8  N   UNL     1       1.267   6.339  -4.850  0.00  0.00    -0.178 NA
ATOM      9  O   UNL     1       2.866   4.733  -4.883  0.00  0.00    -0.271 OA
BRANCH   7  10
ATOM     10  C   UNL     1       2.536   5.749  -2.720  0.00  0.00    +0.151 C 
ATOM     11  C   UNL     1       1.002   6.157  -2.186  0.00  0.00    +0.029 C 
BRANCH  10  12
ATOM     12  N   UNL     1       2.784   7.237  -3.263  0.00  0.00    -0.210 NA
BRANCH  12  13
ATOM     13  C   UNL     1       3.828   7.715  -2.390  0.00  0.00    +0.089 C 
BRANCH  13  15
ATOM     14  C   UNL     1       5.024   7.684  -4.538  0.00  0.00    +0.002 C 
ATOM     15  C   UNL     1       5.162   7.414  -3.057  0.00  0.00    +0.019 C 
ENDBRANCH  13  15
ENDBRANCH  12  13
ENDBRANCH  10  12
ENDBRANCH   7  10
ENDBRANCH   1   8
BRANCH   2  16
ATOM     16  C   UNL     1       2.418   7.186  -7.519  0.00  0.00    +0.349 C 
ATOM     17  O   UNL     1       2.239   8.356  -7.921  0.00  0.00    -0.244 OA
BRANCH  16  18
ATOM     18  O   UNL     1       3.654   6.594  -7.778  0.00  0.00    -0.441 OA
ATOM     19  C   UNL     1       3.949   5.928  -8.989  0.00  0.00    +0.256 C 
ENDBRANCH  16  18
ENDBRANCH   2  16
TORSDOF 7
ENDMDL
MODEL 8
REMARK VINA RESULT:      -5.6      3.977      6.697
REMARK  Name = 
REMARK  7 active torsions:
REMARK  status: ('A' for Active; 'I' for Inactive)
REMARK    1  A    between atoms: C_2  and  C_3
REMARK    2  A    between atoms: C_3  and  N_4
REMARK    3  A    between atoms: N_4  and  C_5
REMARK    4  A    between atoms: C_5  and  C_7
REMARK    5  A    between atoms: N_9  and  C_10
REMARK    6  A    between atoms: C_15  and  C_16
REMARK    7  A    between atoms: C_16  and  O_18
REMARK                            x       y       z     vdW  Elec       q    Type
REMARK                         _______ _______ _______ _____ _____    ______ ____
ROOT
ATOM      1  C   UNL     1      -0.597   5.802  -4.664  0.00  0.00    +0.082 A 
ATOM      2  C   UNL     1      -1.310   5.920  -3.489  0.00  0.00    +0.120 A 
ATOM      3  S   UNL     1      -2.671   6.837  -3.985  0.00  0.00    -0.079 S 
ATOM      4  C   UNL     1      -2.382   6.818  -5.675  0.00  0.00    +0.033 A 
ATOM      5  C   UNL     1      -1.397   5.843  -5.774  0.00  0.00    +0.001 A 
ATOM      6  C   UNL     1      -1.039   5.323  -7.135  0.00  0.00    +0.033 C 
ENDROOT
BRANCH   1   8
ATOM      7  C   UNL     1       1.810   5.895  -4.931  0.00  0.00    +0.261 C 
ATOM      8  N   UNL     1       0.650   5.086  -4.676  0.00  0.00    -0.178 NA
ATOM      9  O   UNL     1       1.960   6.845  -4.103  0.00  0.00    -0.271 OA
BRANCH   7  10
ATOM     10  C   UNL     1       3.171   4.978  -5.033  0.00  0.00    +0.151 C 
ATOM     11  C   UNL     1       3.993   5.987  -3.979  0.00  0.00    +0.029 C 
BRANCH  10  12
ATOM     12  N   UNL     1       3.689   5.815  -6.299  0.00  0.00    -0.210 NA
BRANCH  12  13
ATOM     13  C   UNL     1       3.054   5.135  -7.401  0.00  0.00    +0.089 C 
BRANCH  13  15
ATOM     14  C   UNL     1       2.527   7.476  -7.940  0.00  0.00    +0.002 C 
ATOM     15  C   UNL     1       2.901   6.137  -8.536  0.00  0.00    +0.019 C 
ENDBRANCH  13  15
ENDBRANCH  12  13
ENDBRANCH  10  12
ENDBRANCH   7  10
ENDBRANCH   1   8
BRANCH   2  16
ATOM     16  C   UNL     1      -0.981   5.422  -2.147  0.00  0.00    +0.349 C 
ATOM     17  O   UNL     1      -1.942   4.991  -1.475  0.00  0.00    -0.244 OA
BRANCH  16  18
ATOM     18  O   UNL     1       0.158   5.837  -1.459  0.00  0.00    -0.441 OA
ATOM     19  C   UNL     1       1.220   4.964  -1.130  0.00  0.00    +0.256 C 
ENDBRANCH  16  18
ENDBRANCH   2  16
TORSDOF 7
ENDMDL
MODEL 9
REMARK VINA RESULT:      -5.6      2.699      6.321
REMARK  Name = 
REMARK  7 active torsions:
REMARK  status: ('A' for Active; 'I' for Inactive)
REMARK    1  A    between atoms: C_2  and  C_3
REMARK    2  A    between atoms: C_3  and  N_4
REMARK    3  A    between atoms: N_4  and  C_5
REMARK    4  A    between atoms: C_5  and  C_7
REMARK    5  A    between atoms: N_9  and  C_10
REMARK    6  A    between atoms: C_15  and  C_16
REMARK    7  A    between atoms: C_16  and  O_18
REMARK                            x       y       z     vdW  Elec       q    Type
REMARK                         _______ _______ _______ _____ _____    ______ ____
ROOT
ATOM      1  C   UNL     1       1.087   6.257  -6.398  0.00  0.00    +0.082 A 
ATOM      2  C   UNL     1       1.839   6.450  -5.258  0.00  0.00    +0.120 A 
ATOM      3  S   UNL     1       0.635   6.776  -4.082  0.00  0.00    -0.079 S 
ATOM      4  C   UNL     1      -0.745   6.423  -5.037  0.00  0.00    +0.033 A 
ATOM      5  C   UNL     1      -0.169   5.785  -6.128  0.00  0.00    +0.001 A 
ATOM      6  C   UNL     1      -1.067   5.071  -7.095  0.00  0.00    +0.033 C 
ENDROOT
BRANCH   1   8
ATOM      7  C   UNL     1       1.735   7.027  -8.603  0.00  0.00    +0.261 C 
ATOM      8  N   UNL     1       1.739   5.957  -7.644  0.00  0.00    -0.178 NA
ATOM      9  O   UNL     1       2.273   8.095  -8.174  0.00  0.00    -0.271 OA
BRANCH   7  10
ATOM     10  C   UNL     1       2.404   6.558 -10.029  0.00  0.00    +0.151 C 
ATOM     11  C   UNL     1       2.608   4.990  -9.477  0.00  0.00    +0.029 C 
BRANCH  10  12
ATOM     12  N   UNL     1       3.870   6.966  -9.522  0.00  0.00    -0.210 NA
BRANCH  12  13
ATOM     13  C   UNL     1       4.712   6.487 -10.591  0.00  0.00    +0.089 C 
BRANCH  13  15
ATOM     14  C   UNL     1       7.062   7.173 -10.828  0.00  0.00    +0.002 C 
ATOM     15  C   UNL     1       5.630   7.628 -11.002  0.00  0.00    +0.019 C 
ENDBRANCH  13  15
ENDBRANCH  12  13
ENDBRANCH  10  12
ENDBRANCH   7  10
ENDBRANCH   1   8
BRANCH   2  16
ATOM     16  C   UNL     1       3.298   6.421  -5.090  0.00  0.00    +0.349 C 
ATOM     17  O   UNL     1       3.899   7.484  -5.353  0.00  0.00    -0.244 OA
BRANCH  16  18
ATOM     18  O   UNL     1       4.028   5.234  -5.140  0.00  0.00    -0.441 OA
ATOM     19  C   UNL     1       4.685   4.686  -4.015  0.00  0.00    +0.256 C 
ENDBRANCH  16  18
ENDBRANCH   2  16
TORSDOF 7
ENDMDL
