MODEL 1
REMARK VINA RESULT:      -7.2      0.000      0.000
REMARK  Name = 
REMARK  4 active torsions:
REMARK  status: ('A' for Active; 'I' for Inactive)
REMARK    1  A    between atoms: O_2  and  C_3
REMARK    2  A    between atoms: C_22  and  C_24
REMARK    3  A    between atoms: C_28  and  O_29
REMARK    4  A    between atoms: O_29  and  C_30
REMARK                            x       y       z     vdW  Elec       q    Type
REMARK                         _______ _______ _______ _____ _____    ______ ____
ROOT
ATOM      1  C   UNL     1       0.222   4.772  -5.769  0.00  0.00    +0.142 A 
ATOM      2  C   UNL     1      -0.133   5.781  -4.878  0.00  0.00    +0.076 A 
ATOM      3  C   UNL     1       0.682   6.066  -3.696  0.00  0.00    +0.202 C 
ATOM      4  C   UNL     1       0.029   6.703  -2.543  0.00  0.00    +0.084 A 
ATOM      5  C   UNL     1      -1.350   6.889  -2.578  0.00  0.00    +0.084 A 
ATOM      6  C   UNL     1      -2.079   6.930  -3.851  0.00  0.00    +0.199 C 
ATOM      7  O   UNL     1      -3.334   7.010  -3.814  0.00  0.00    -0.286 OA
ATOM      8  C   UNL     1      -2.063   6.965  -1.387  0.00  0.00    +0.195 A 
ATOM      9  O   UNL     1      -3.402   6.562  -1.336  0.00  0.00    -0.287 OA
ATOM     10  C   UNL     1      -1.359   7.046  -0.191  0.00  0.00    +0.021 A 
ATOM     11  C   UNL     1      -1.921   6.450   1.055  0.00  0.00    +0.067 C 
ATOM     12  C   UNL     1      -1.527   7.337   2.194  0.00  0.00    +0.184 C 
ATOM     13  C   UNL     1      -0.476   8.326   1.886  0.00  0.00    +0.072 C 
ATOM     14  C   UNL     1       0.751   7.444   1.129  0.00  0.00    +0.146 C 
ATOM     15  O   UNL     1      -2.678   8.101   2.455  0.00  0.00    -0.218 OA
ATOM     16  C   UNL     1      -0.040   7.473  -0.333  0.00  0.00    +0.043 A 
ATOM     17  C   UNL     1       0.666   6.757  -1.307  0.00  0.00    +0.197 A 
ATOM     18  O   UNL     1       2.035   6.572  -1.264  0.00  0.00    -0.287 OA
ATOM     19  O   UNL     1       1.778   5.450  -3.531  0.00  0.00    -0.286 OA
ATOM     20  C   UNL     1      -1.337   6.461  -5.020  0.00  0.00    +0.045 A 
ATOM     21  C   UNL     1      -1.975   6.461  -6.241  0.00  0.00    +0.003 A 
ATOM     22  C   UNL     1      -1.394   5.762  -7.268  0.00  0.00    +0.003 A 
ATOM     23  C   UNL     1      -0.325   4.904  -7.037  0.00  0.00    +0.037 A 
ENDROOT
BRANCH  12  24
ATOM     24  C   UNL     1      -1.224   6.475   3.372  0.00  0.00    +0.179 C 
ATOM     25  O   UNL     1      -0.028   6.282   3.582  0.00  0.00    -0.293 OA
ATOM     26  C   UNL     1      -2.249   5.431   3.697  0.00  0.00    +0.075 C 
ENDBRANCH  12  24
BRANCH   1  28
ATOM     27  C   UNL     1       2.241   3.531  -6.258  0.00  0.00    +0.252 C 
ATOM     28  O   UNL     1       1.229   3.883  -5.456  0.00  0.00    -0.471 OA
ENDBRANCH   1  28
BRANCH  14  29
ATOM     29  O   UNL     1       1.633   8.668   0.758  0.00  0.00    -0.328 OA
BRANCH  29  30
ATOM     30  C   UNL     1       1.614   9.464   2.111  0.00  0.00    +0.237 C 
ATOM     31  O   UNL     1       2.350  10.737   1.565  0.00  0.00    -0.330 OA
ATOM     32  C   UNL     1       2.887  10.248   0.228  0.00  0.00    +0.150 C 
ATOM     33  C   UNL     1       3.465  11.774  -0.112  0.00  0.00    +0.035 C 
ATOM     34  C   UNL     1       4.464   9.750   0.822  0.00  0.00    +0.196 C 
ATOM     35  O   UNL     1       4.401  10.453   2.152  0.00  0.00    -0.219 OA
ATOM     36  C   UNL     1       3.768   8.235   1.338  0.00  0.00    +0.130 C 
ATOM     37  N   UNL     1       5.092   7.875   2.133  0.00  0.00    -0.130 NA
ATOM     38  C   UNL     1       3.068   8.791   2.717  0.00  0.00    +0.083 C 
ENDBRANCH  29  30
ENDBRANCH  14  29
TORSDOF 4
ENDMDL
MODEL 2
REMARK VINA RESULT:      -6.7      3.788      8.756
REMARK  Name = 
REMARK  4 active torsions:
REMARK  status: ('A' for Active; 'I' for Inactive)
REMARK    1  A    between atoms: O_2  and  C_3
REMARK    2  A    between atoms: C_22  and  C_24
REMARK    3  A    between atoms: C_28  and  O_29
REMARK    4  A    between atoms: O_29  and  C_30
REMARK                            x       y       z     vdW  Elec       q    Type
REMARK                         _______ _______ _______ _____ _____    ______ ____
ROOT
ATOM      1  C   UNL     1       5.551  15.723  -0.745  0.00  0.00    +0.142 A 
ATOM      2  C   UNL     1       5.777  14.386  -0.431  0.00  0.00    +0.076 A 
ATOM      3  C   UNL     1       4.809  13.350  -0.799  0.00  0.00    +0.202 C 
ATOM      4  C   UNL     1       4.791  12.111  -0.008  0.00  0.00    +0.084 A 
ATOM      5  C   UNL     1       5.599  12.029   1.123  0.00  0.00    +0.084 A 
ATOM      6  C   UNL     1       6.778  12.889   1.277  0.00  0.00    +0.199 C 
ATOM      7  O   UNL     1       7.416  12.832   2.359  0.00  0.00    -0.286 OA
ATOM      8  C   UNL     1       5.245  11.173   2.160  0.00  0.00    +0.195 A 
ATOM      9  O   UNL     1       5.622  11.461   3.476  0.00  0.00    -0.287 OA
ATOM     10  C   UNL     1       4.199  10.279   1.960  0.00  0.00    +0.021 A 
ATOM     11  C   UNL     1       3.331   9.871   3.101  0.00  0.00    +0.067 C 
ATOM     12  C   UNL     1       2.961   8.435   2.892  0.00  0.00    +0.184 C 
ATOM     13  C   UNL     1       3.240   7.904   1.545  0.00  0.00    +0.072 C 
ATOM     14  C   UNL     1       2.583   9.038   0.478  0.00  0.00    +0.146 C 
ATOM     15  O   UNL     1       3.822   7.727   3.747  0.00  0.00    -0.218 OA
ATOM     16  C   UNL     1       3.904  10.036   0.620  0.00  0.00    +0.043 A 
ATOM     17  C   UNL     1       3.736  11.210  -0.125  0.00  0.00    +0.197 A 
ATOM     18  O   UNL     1       2.929  11.285  -1.245  0.00  0.00    -0.287 OA
ATOM     19  O   UNL     1       3.797  13.661  -1.496  0.00  0.00    -0.286 OA
ATOM     20  C   UNL     1       6.866  14.015   0.349  0.00  0.00    +0.045 A 
ATOM     21  C   UNL     1       7.943  14.866   0.456  0.00  0.00    +0.003 A 
ATOM     22  C   UNL     1       7.881  16.067  -0.205  0.00  0.00    +0.003 A 
ATOM     23  C   UNL     1       6.693  16.509  -0.778  0.00  0.00    +0.037 A 
ENDROOT
BRANCH  12  24
ATOM     24  C   UNL     1       1.550   8.248   3.338  0.00  0.00    +0.179 C 
ATOM     25  O   UNL     1       1.023   7.200   2.973  0.00  0.00    -0.293 OA
ATOM     26  C   UNL     1       0.750   9.504   3.508  0.00  0.00    +0.075 C 
ENDBRANCH  12  24
BRANCH   1  28
ATOM     27  C   UNL     1       3.971  17.395  -1.497  0.00  0.00    +0.252 C 
ATOM     28  O   UNL     1       4.324  16.133  -1.224  0.00  0.00    -0.471 OA
ENDBRANCH   1  28
BRANCH  14  29
ATOM     29  O   UNL     1       3.127   8.383  -0.821  0.00  0.00    -0.328 OA
BRANCH  29  30
ATOM     30  C   UNL     1       3.956   7.191  -0.223  0.00  0.00    +0.237 C 
ATOM     31  O   UNL     1       4.935   7.042  -1.440  0.00  0.00    -0.330 OA
ATOM     32  C   UNL     1       4.250   7.883  -2.506  0.00  0.00    +0.150 C 
ATOM     33  C   UNL     1       5.527   7.624  -3.547  0.00  0.00    +0.035 C 
ATOM     34  C   UNL     1       3.345   6.568  -3.240  0.00  0.00    +0.196 C 
ATOM     35  O   UNL     1       4.096   5.433  -2.597  0.00  0.00    -0.219 OA
ATOM     36  C   UNL     1       2.122   6.750  -2.009  0.00  0.00    +0.130 C 
ATOM     37  N   UNL     1       1.431   5.399  -2.467  0.00  0.00    -0.130 NA
ATOM     38  C   UNL     1       2.920   5.960  -0.810  0.00  0.00    +0.083 C 
ENDBRANCH  29  30
ENDBRANCH  14  29
TORSDOF 4
ENDMDL
MODEL 3
REMARK VINA RESULT:      -6.3      5.243     10.444
REMARK  Name = 
REMARK  4 active torsions:
REMARK  status: ('A' for Active; 'I' for Inactive)
REMARK    1  A    between atoms: O_2  and  C_3
REMARK    2  A    between atoms: C_22  and  C_24
REMARK    3  A    between atoms: C_28  and  O_29
REMARK    4  A    between atoms: O_29  and  C_30
REMARK                            x       y       z     vdW  Elec       q    Type
REMARK                         _______ _______ _______ _____ _____    ______ ____
ROOT
ATOM      1  C   UNL     1       2.934   7.057  -2.871  0.00  0.00    +0.142 A 
ATOM      2  C   UNL     1       2.849   6.299  -4.034  0.00  0.00    +0.076 A 
ATOM      3  C   UNL     1       3.397   6.794  -5.299  0.00  0.00    +0.202 C 
ATOM      4  C   UNL     1       2.829   6.270  -6.550  0.00  0.00    +0.084 A 
ATOM      5  C   UNL     1       1.721   5.430  -6.478  0.00  0.00    +0.084 A 
ATOM      6  C   UNL     1       1.411   4.684  -5.253  0.00  0.00    +0.199 C 
ATOM      7  O   UNL     1       0.348   4.013  -5.220  0.00  0.00    -0.286 OA
ATOM      8  C   UNL     1       0.848   5.350  -7.558  0.00  0.00    +0.195 A 
ATOM      9  O   UNL     1      -0.502   5.042  -7.356  0.00  0.00    -0.287 OA
ATOM     10  C   UNL     1       1.207   5.963  -8.753  0.00  0.00    +0.021 A 
ATOM     11  C   UNL     1       0.161   6.527  -9.653  0.00  0.00    +0.067 C 
ATOM     12  C   UNL     1       0.614   6.306 -11.062  0.00  0.00    +0.184 C 
ATOM     13  C   UNL     1       2.029   5.919 -11.214  0.00  0.00    +0.072 C 
ATOM     14  C   UNL     1       2.894   7.036 -10.287  0.00  0.00    +0.146 C 
ATOM     15  O   UNL     1      -0.116   5.184 -11.490  0.00  0.00    -0.218 OA
ATOM     16  C   UNL     1       2.572   6.217  -8.877  0.00  0.00    +0.043 A 
ATOM     17  C   UNL     1       3.108   6.882  -7.768  0.00  0.00    +0.197 A 
ATOM     18  O   UNL     1       4.206   7.718  -7.847  0.00  0.00    -0.287 OA
ATOM     19  O   UNL     1       4.041   7.886  -5.316  0.00  0.00    -0.286 OA
ATOM     20  C   UNL     1       2.133   5.108  -4.055  0.00  0.00    +0.045 A 
ATOM     21  C   UNL     1       1.873   4.455  -2.870  0.00  0.00    +0.003 A 
ATOM     22  C   UNL     1       2.320   5.030  -1.708  0.00  0.00    +0.003 A 
ATOM     23  C   UNL     1       2.821   6.327  -1.697  0.00  0.00    +0.037 A 
ENDROOT
BRANCH  12  24
ATOM     24  C   UNL     1       0.220   7.496 -11.870  0.00  0.00    +0.179 C 
ATOM     25  O   UNL     1      -0.783   8.085 -11.474  0.00  0.00    -0.293 OA
ATOM     26  C   UNL     1       0.562   7.435 -13.328  0.00  0.00    +0.075 C 
ENDBRANCH  12  24
BRANCH   1  28
ATOM     27  C   UNL     1       3.819   9.084  -1.889  0.00  0.00    +0.252 C 
ATOM     28  O   UNL     1       3.347   8.373  -2.919  0.00  0.00    -0.471 OA
ENDBRANCH   1  28
BRANCH  14  29
ATOM     29  O   UNL     1       4.280   6.354 -10.450  0.00  0.00    -0.328 OA
BRANCH  29  30
ATOM     30  C   UNL     1       5.161   7.581 -10.881  0.00  0.00    +0.237 C 
ATOM     31  O   UNL     1       5.597   6.992 -12.269  0.00  0.00    -0.330 OA
ATOM     32  C   UNL     1       5.182   5.535 -12.143  0.00  0.00    +0.150 C 
ATOM     33  C   UNL     1       5.646   5.254 -13.720  0.00  0.00    +0.035 C 
ATOM     34  C   UNL     1       6.727   4.942 -11.551  0.00  0.00    +0.196 C 
ATOM     35  O   UNL     1       7.546   6.157 -11.897  0.00  0.00    -0.219 OA
ATOM     36  C   UNL     1       6.273   5.432  -9.939  0.00  0.00    +0.130 C 
ATOM     37  N   UNL     1       7.751   5.175  -9.424  0.00  0.00    -0.130 NA
ATOM     38  C   UNL     1       6.591   7.034 -10.114  0.00  0.00    +0.083 C 
ENDBRANCH  29  30
ENDBRANCH  14  29
TORSDOF 4
ENDMDL
MODEL 4
REMARK VINA RESULT:      -6.0      1.583      2.025
REMARK  Name = 
REMARK  4 active torsions:
REMARK  status: ('A' for Active; 'I' for Inactive)
REMARK    1  A    between atoms: O_2  and  C_3
REMARK    2  A    between atoms: C_22  and  C_24
REMARK    3  A    between atoms: C_28  and  O_29
REMARK    4  A    between atoms: O_29  and  C_30
REMARK                            x       y       z     vdW  Elec       q    Type
REMARK                         _______ _______ _______ _____ _____    ______ ____
ROOT
ATOM      1  C   UNL     1       2.615   4.977  -5.192  0.00  0.00    +0.142 A 
ATOM      2  C   UNL     1       1.898   5.917  -4.459  0.00  0.00    +0.076 A 
ATOM      3  C   UNL     1       2.193   6.157  -3.045  0.00  0.00    +0.202 C 
ATOM      4  C   UNL     1       1.121   6.701  -2.199  0.00  0.00    +0.084 A 
ATOM      5  C   UNL     1      -0.152   6.842  -2.744  0.00  0.00    +0.084 A 
ATOM      6  C   UNL     1      -0.351   6.934  -4.195  0.00  0.00    +0.199 C 
ATOM      7  O   UNL     1      -1.530   6.970  -4.632  0.00  0.00    -0.286 OA
ATOM      8  C   UNL     1      -1.264   6.822  -1.909  0.00  0.00    +0.195 A 
ATOM      9  O   UNL     1      -2.500   6.371  -2.385  0.00  0.00    -0.287 OA
ATOM     10  C   UNL     1      -1.066   6.853  -0.533  0.00  0.00    +0.021 A 
ATOM     11  C   UNL     1      -2.022   6.165   0.380  0.00  0.00    +0.067 C 
ATOM     12  C   UNL     1      -2.134   6.994   1.621  0.00  0.00    +0.184 C 
ATOM     13  C   UNL     1      -1.099   8.034   1.777  0.00  0.00    +0.072 C 
ATOM     14  C   UNL     1       0.368   7.243   1.502  0.00  0.00    +0.146 C 
ATOM     15  O   UNL     1      -3.337   7.701   1.460  0.00  0.00    -0.218 OA
ATOM     16  C   UNL     1       0.184   7.333  -0.147  0.00  0.00    +0.043 A 
ATOM     17  C   UNL     1       1.242   6.701  -0.812  0.00  0.00    +0.197 A 
ATOM     18  O   UNL     1       2.503   6.561  -0.263  0.00  0.00    -0.287 OA
ATOM     19  O   UNL     1       3.178   5.570  -2.505  0.00  0.00    -0.286 OA
ATOM     20  C   UNL     1       0.800   6.563  -5.016  0.00  0.00    +0.045 A 
ATOM     21  C   UNL     1       0.669   6.615  -6.386  0.00  0.00    +0.003 A 
ATOM     22  C   UNL     1       1.630   5.999  -7.147  0.00  0.00    +0.003 A 
ATOM     23  C   UNL     1       2.579   5.166  -6.566  0.00  0.00    +0.037 A 
ENDROOT
BRANCH  12  24
ATOM     24  C   UNL     1      -2.249   6.073   2.788  0.00  0.00    +0.179 C 
ATOM     25  O   UNL     1      -3.397   5.861   3.173  0.00  0.00    -0.293 OA
ATOM     26  C   UNL     1      -1.097   6.091   3.747  0.00  0.00    +0.075 C 
ENDBRANCH  12  24
BRANCH   1  28
ATOM     27  C   UNL     1       4.813   4.193  -4.549  0.00  0.00    +0.252 C 
ATOM     28  O   UNL     1       3.478   4.105  -4.561  0.00  0.00    -0.471 OA
ENDBRANCH   1  28
BRANCH  14  29
ATOM     29  O   UNL     1       1.257   8.516   1.545  0.00  0.00    -0.328 OA
BRANCH  29  30
ATOM     30  C   UNL     1       2.229   8.155   2.724  0.00  0.00    +0.237 C 
ATOM     31  O   UNL     1       1.954   9.448   3.568  0.00  0.00    -0.330 OA
ATOM     32  C   UNL     1       1.222  10.332   2.570  0.00  0.00    +0.150 C 
ATOM     33  C   UNL     1       0.988  11.488   3.748  0.00  0.00    +0.035 C 
ATOM     34  C   UNL     1       2.643  11.177   1.978  0.00  0.00    +0.196 C 
ATOM     35  O   UNL     1       3.588  10.758   3.073  0.00  0.00    -0.219 OA
ATOM     36  C   UNL     1       2.957   9.847   0.893  0.00  0.00    +0.130 C 
ATOM     37  N   UNL     1       4.385  10.441   0.546  0.00  0.00    -0.130 NA
ATOM     38  C   UNL     1       3.625   8.833   2.000  0.00  0.00    +0.083 C 
ENDBRANCH  29  30
ENDBRANCH  14  29
TORSDOF 4
ENDMDL
MODEL 5
REMARK VINA RESULT:      -5.9      2.110      5.119
REMARK  Name = 
REMARK  4 active torsions:
REMARK  status: ('A' for Active; 'I' for Inactive)
REMARK    1  A    between atoms: O_2  and  C_3
REMARK    2  A    between atoms: C_22  and  C_24
REMARK    3  A    between atoms: C_28  and  O_29
REMARK    4  A    between atoms: O_29  and  C_30
REMARK                            x       y       z     vdW  Elec       q    Type
REMARK                         _______ _______ _______ _____ _____    ______ ____
ROOT
ATOM      1  C   UNL     1       0.478   5.502  -5.808  0.00  0.00    +0.142 A 
ATOM      2  C   UNL     1       1.065   5.406  -4.550  0.00  0.00    +0.076 A 
ATOM      3  C   UNL     1       0.409   5.968  -3.367  0.00  0.00    +0.202 C 
ATOM      4  C   UNL     1       1.252   6.339  -2.221  0.00  0.00    +0.084 A 
ATOM      5  C   UNL     1       2.635   6.258  -2.357  0.00  0.00    +0.084 A 
ATOM      6  C   UNL     1       3.249   5.394  -3.372  0.00  0.00    +0.199 C 
ATOM      7  O   UNL     1       4.499   5.432  -3.506  0.00  0.00    -0.286 OA
ATOM      8  C   UNL     1       3.452   7.064  -1.571  0.00  0.00    +0.195 A 
ATOM      9  O   UNL     1       4.709   7.466  -2.035  0.00  0.00    -0.287 OA
ATOM     10  C   UNL     1       2.875   7.790  -0.535  0.00  0.00    +0.021 A 
ATOM     11  C   UNL     1       3.441   9.110  -0.136  0.00  0.00    +0.067 C 
ATOM     12  C   UNL     1       3.292   9.231   1.349  0.00  0.00    +0.184 C 
ATOM     13  C   UNL     1       2.389   8.246   1.973  0.00  0.00    +0.072 C 
ATOM     14  C   UNL     1       0.977   8.292   1.045  0.00  0.00    +0.146 C 
ATOM     15  O   UNL     1       4.568   8.924   1.852  0.00  0.00    -0.218 OA
ATOM     16  C   UNL     1       1.633   7.309  -0.123  0.00  0.00    +0.043 A 
ATOM     17  C   UNL     1       0.742   7.116  -1.185  0.00  0.00    +0.197 A 
ATOM     18  O   UNL     1      -0.631   7.202  -1.044  0.00  0.00    -0.287 OA
ATOM     19  O   UNL     1      -0.752   6.466  -3.474  0.00  0.00    -0.286 OA
ATOM     20  C   UNL     1       2.345   4.885  -4.401  0.00  0.00    +0.045 A 
ATOM     21  C   UNL     1       2.866   4.080  -5.389  0.00  0.00    +0.003 A 
ATOM     22  C   UNL     1       2.096   3.846  -6.499  0.00  0.00    +0.003 A 
ATOM     23  C   UNL     1       0.927   4.564  -6.726  0.00  0.00    +0.037 A 
ENDROOT
BRANCH  12  24
ATOM     24  C   UNL     1       2.958  10.649   1.669  0.00  0.00    +0.179 C 
ATOM     25  O   UNL     1       3.485  11.486   0.939  0.00  0.00    -0.293 OA
ATOM     26  C   UNL     1       2.677  10.941   3.112  0.00  0.00    +0.075 C 
ENDBRANCH  12  24
BRANCH   1  28
ATOM     27  C   UNL     1      -1.809   5.902  -6.488  0.00  0.00    +0.252 C 
ATOM     28  O   UNL     1      -0.627   6.303  -6.008  0.00  0.00    -0.471 OA
ENDBRANCH   1  28
BRANCH  14  29
ATOM     29  O   UNL     1       0.272   7.102   1.752  0.00  0.00    -0.328 OA
BRANCH  29  30
ATOM     30  C   UNL     1       0.348   7.564   3.251  0.00  0.00    +0.237 C 
ATOM     31  O   UNL     1      -0.891   6.738   3.743  0.00  0.00    -0.330 OA
ATOM     32  C   UNL     1      -1.539   6.321   2.432  0.00  0.00    +0.150 C 
ATOM     33  C   UNL     1      -2.672   5.424   3.263  0.00  0.00    +0.035 C 
ATOM     34  C   UNL     1      -2.649   7.678   2.321  0.00  0.00    +0.196 C 
ATOM     35  O   UNL     1      -2.506   8.161   3.740  0.00  0.00    -0.219 OA
ATOM     36  C   UNL     1      -1.370   8.642   1.629  0.00  0.00    +0.130 C 
ATOM     37  N   UNL     1      -2.249   9.953   1.779  0.00  0.00    -0.130 NA
ATOM     38  C   UNL     1      -0.587   8.982   3.033  0.00  0.00    +0.083 C 
ENDBRANCH  29  30
ENDBRANCH  14  29
TORSDOF 4
ENDMDL
MODEL 6
REMARK VINA RESULT:      -4.6      3.067      4.797
REMARK  Name = 
REMARK  4 active torsions:
REMARK  status: ('A' for Active; 'I' for Inactive)
REMARK    1  A    between atoms: O_2  and  C_3
REMARK    2  A    between atoms: C_22  and  C_24
REMARK    3  A    between atoms: C_28  and  O_29
REMARK    4  A    between atoms: O_29  and  C_30
REMARK                            x       y       z     vdW  Elec       q    Type
REMARK                         _______ _______ _______ _____ _____    ______ ____
ROOT
ATOM      1  C   UNL     1       4.903   5.337  -8.842  0.00  0.00    +0.142 A 
ATOM      2  C   UNL     1       4.087   6.166  -8.078  0.00  0.00    +0.076 A 
ATOM      3  C   UNL     1       4.015   6.021  -6.623  0.00  0.00    +0.202 C 
ATOM      4  C   UNL     1       2.800   6.491  -5.941  0.00  0.00    +0.084 A 
ATOM      5  C   UNL     1       1.730   6.932  -6.715  0.00  0.00    +0.084 A 
ATOM      6  C   UNL     1       1.930   7.392  -8.094  0.00  0.00    +0.199 C 
ATOM      7  O   UNL     1       0.914   7.693  -8.771  0.00  0.00    -0.286 OA
ATOM      8  C   UNL     1       0.439   6.868  -6.203  0.00  0.00    +0.195 A 
ATOM      9  O   UNL     1      -0.656   6.718  -7.060  0.00  0.00    -0.287 OA
ATOM     10  C   UNL     1       0.269   6.544  -4.862  0.00  0.00    +0.021 A 
ATOM     11  C   UNL     1      -0.943   5.797  -4.416  0.00  0.00    +0.067 C 
ATOM     12  C   UNL     1      -1.318   6.316  -3.063  0.00  0.00    +0.184 C 
ATOM     13  C   UNL     1      -0.288   7.136  -2.397  0.00  0.00    +0.072 C 
ATOM     14  C   UNL     1       1.138   6.237  -2.516  0.00  0.00    +0.146 C 
ATOM     15  O   UNL     1      -2.381   7.200  -3.311  0.00  0.00    -0.218 OA
ATOM     16  C   UNL     1       1.404   6.741  -4.078  0.00  0.00    +0.043 A 
ATOM     17  C   UNL     1       2.550   6.145  -4.616  0.00  0.00    +0.197 A 
ATOM     18  O   UNL     1       3.607   5.705  -3.842  0.00  0.00    -0.287 OA
ATOM     19  O   UNL     1       4.776   5.191  -6.040  0.00  0.00    -0.286 OA
ATOM     20  C   UNL     1       3.226   7.071  -8.687  0.00  0.00    +0.045 A 
ATOM     21  C   UNL     1       3.466   7.464  -9.985  0.00  0.00    +0.003 A 
ATOM     22  C   UNL     1       4.546   6.920 -10.632  0.00  0.00    +0.003 A 
ATOM     23  C   UNL     1       5.245   5.849 -10.085  0.00  0.00    +0.037 A 
ENDROOT
BRANCH  12  24
ATOM     24  C   UNL     1      -1.804   5.169  -2.243  0.00  0.00    +0.179 C 
ATOM     25  O   UNL     1      -2.668   4.476  -2.777  0.00  0.00    -0.293 OA
ATOM     26  C   UNL     1      -1.777   5.372  -0.759  0.00  0.00    +0.075 C 
ENDBRANCH  12  24
BRANCH   1  28
ATOM     27  C   UNL     1       6.791   3.891  -8.395  0.00  0.00    +0.252 C 
ATOM     28  O   UNL     1       5.502   4.229  -8.279  0.00  0.00    -0.471 OA
ENDBRANCH   1  28
BRANCH  14  29
ATOM     29  O   UNL     1       2.075   7.328  -1.928  0.00  0.00    -0.328 OA
BRANCH  29  30
ATOM     30  C   UNL     1       1.439   7.525  -0.507  0.00  0.00    +0.237 C 
ATOM     31  O   UNL     1       2.153   8.886  -0.192  0.00  0.00    -0.330 OA
ATOM     32  C   UNL     1       3.217   8.947  -1.277  0.00  0.00    +0.150 C 
ATOM     33  C   UNL     1       3.675  10.464  -0.759  0.00  0.00    +0.035 C 
ATOM     34  C   UNL     1       4.501   8.204  -0.335  0.00  0.00    +0.196 C 
ATOM     35  O   UNL     1       3.845   8.326   1.015  0.00  0.00    -0.219 OA
ATOM     36  C   UNL     1       3.866   6.632  -0.748  0.00  0.00    +0.130 C 
ATOM     37  N   UNL     1       4.823   5.945   0.312  0.00  0.00    -0.130 NA
ATOM     38  C   UNL     1       2.628   6.621   0.331  0.00  0.00    +0.083 C 
ENDBRANCH  29  30
ENDBRANCH  14  29
TORSDOF 4
ENDMDL
MODEL 7
REMARK VINA RESULT:      -4.4      5.220     10.282
REMARK  Name = 
REMARK  4 active torsions:
REMARK  status: ('A' for Active; 'I' for Inactive)
REMARK    1  A    between atoms: O_2  and  C_3
REMARK    2  A    between atoms: C_22  and  C_24
REMARK    3  A    between atoms: C_28  and  O_29
REMARK    4  A    between atoms: O_29  and  C_30
REMARK                            x       y       z     vdW  Elec       q    Type
REMARK                         _______ _______ _______ _____ _____    ______ ____
ROOT
ATOM      1  C   UNL     1       4.031   7.327  -2.067  0.00  0.00    +0.142 A 
ATOM      2  C   UNL     1       4.097   6.514  -3.195  0.00  0.00    +0.076 A 
ATOM      3  C   UNL     1       4.238   7.092  -4.533  0.00  0.00    +0.202 C 
ATOM      4  C   UNL     1       3.761   6.304  -5.679  0.00  0.00    +0.084 A 
ATOM      5  C   UNL     1       3.087   5.111  -5.433  0.00  0.00    +0.084 A 
ATOM      6  C   UNL     1       3.256   4.391  -4.166  0.00  0.00    +0.199 C 
ATOM      7  O   UNL     1       2.552   3.368  -3.967  0.00  0.00    -0.286 OA
ATOM      8  C   UNL     1       2.181   4.627  -6.371  0.00  0.00    +0.195 A 
ATOM      9  O   UNL     1       1.097   3.840  -5.968  0.00  0.00    -0.287 OA
ATOM     10  C   UNL     1       2.113   5.246  -7.614  0.00  0.00    +0.021 A 
ATOM     11  C   UNL     1       0.822   5.301  -8.357  0.00  0.00    +0.067 C 
ATOM     12  C   UNL     1       1.137   5.172  -9.815  0.00  0.00    +0.184 C 
ATOM     13  C   UNL     1       2.558   5.349 -10.168  0.00  0.00    +0.072 C 
ATOM     14  C   UNL     1       3.033   6.774  -9.395  0.00  0.00    +0.146 C 
ATOM     15  O   UNL     1       0.852   3.830 -10.115  0.00  0.00    -0.218 OA
ATOM     16  C   UNL     1       3.243   5.994  -7.942  0.00  0.00    +0.043 A 
ATOM     17  C   UNL     1       3.617   6.890  -6.933  0.00  0.00    +0.197 A 
ATOM     18  O   UNL     1       4.282   8.075  -7.185  0.00  0.00    -0.287 OA
ATOM     19  O   UNL     1       4.398   8.343  -4.660  0.00  0.00    -0.286 OA
ATOM     20  C   UNL     1       3.905   5.142  -3.093  0.00  0.00    +0.045 A 
ATOM     21  C   UNL     1       4.078   4.523  -1.875  0.00  0.00    +0.003 A 
ATOM     22  C   UNL     1       4.414   5.306  -0.799  0.00  0.00    +0.003 A 
ATOM     23  C   UNL     1       4.367   6.693  -0.880  0.00  0.00    +0.037 A 
ENDROOT
BRANCH  12  24
ATOM     24  C   UNL     1       0.208   6.061 -10.572  0.00  0.00    +0.179 C 
ATOM     25  O   UNL     1      -0.908   6.193 -10.074  0.00  0.00    -0.293 OA
ATOM     26  C   UNL     1       0.408   6.097 -12.056  0.00  0.00    +0.075 C 
ENDBRANCH  12  24
BRANCH   1  28
ATOM     27  C   UNL     1       3.596   9.546  -1.205  0.00  0.00    +0.252 C 
ATOM     28  O   UNL     1       3.890   8.693  -2.193  0.00  0.00    -0.471 OA
ENDBRANCH   1  28
BRANCH  14  29
ATOM     29  O   UNL     1       4.541   6.666  -9.752  0.00  0.00    -0.328 OA
BRANCH  29  30
ATOM     30  C   UNL     1       4.524   5.433 -10.724  0.00  0.00    +0.237 C 
ATOM     31  O   UNL     1       5.944   4.893 -10.332  0.00  0.00    -0.330 OA
ATOM     32  C   UNL     1       6.528   6.063  -9.555  0.00  0.00    +0.150 C 
ATOM     33  C   UNL     1       7.891   5.169  -9.209  0.00  0.00    +0.035 C 
ATOM     34  C   UNL     1       7.334   6.821 -10.920  0.00  0.00    +0.196 C 
ATOM     35  O   UNL     1       7.240   5.657 -11.871  0.00  0.00    -0.219 OA
ATOM     36  C   UNL     1       5.828   7.587 -11.358  0.00  0.00    +0.130 C 
ATOM     37  N   UNL     1       6.444   8.050 -12.744  0.00  0.00    -0.130 NA
ATOM     38  C   UNL     1       5.137   6.282 -12.078  0.00  0.00    +0.083 C 
ENDBRANCH  29  30
ENDBRANCH  14  29
TORSDOF 4
ENDMDL
MODEL 8
REMARK VINA RESULT:      -4.4      4.865      8.812
REMARK  Name = 
REMARK  4 active torsions:
REMARK  status: ('A' for Active; 'I' for Inactive)
REMARK    1  A    between atoms: O_2  and  C_3
REMARK    2  A    between atoms: C_22  and  C_24
REMARK    3  A    between atoms: C_28  and  O_29
REMARK    4  A    between atoms: O_29  and  C_30
REMARK                            x       y       z     vdW  Elec       q    Type
REMARK                         _______ _______ _______ _____ _____    ______ ____
ROOT
ATOM      1  C   UNL     1       1.524   7.164 -13.316  0.00  0.00    +0.142 A 
ATOM      2  C   UNL     1       1.744   6.374 -12.192  0.00  0.00    +0.076 A 
ATOM      3  C   UNL     1       1.082   6.670 -10.920  0.00  0.00    +0.202 C 
ATOM      4  C   UNL     1       1.723   6.203  -9.682  0.00  0.00    +0.084 A 
ATOM      5  C   UNL     1       2.983   5.616  -9.765  0.00  0.00    +0.084 A 
ATOM      6  C   UNL     1       3.463   5.023 -11.019  0.00  0.00    +0.199 C 
ATOM      7  O   UNL     1       4.643   4.589 -11.056  0.00  0.00    -0.286 OA
ATOM      8  C   UNL     1       3.834   5.656  -8.666  0.00  0.00    +0.195 A 
ATOM      9  O   UNL     1       5.222   5.645  -8.843  0.00  0.00    -0.287 OA
ATOM     10  C   UNL     1       3.334   6.112  -7.452  0.00  0.00    +0.021 A 
ATOM     11  C   UNL     1       4.223   6.827  -6.492  0.00  0.00    +0.067 C 
ATOM     12  C   UNL     1       3.801   6.435  -5.111  0.00  0.00    +0.184 C 
ATOM     13  C   UNL     1       2.494   5.756  -5.022  0.00  0.00    +0.072 C 
ATOM     14  C   UNL     1       1.433   6.722  -5.914  0.00  0.00    +0.146 C 
ATOM     15  O   UNL     1       4.740   5.466  -4.721  0.00  0.00    -0.218 OA
ATOM     16  C   UNL     1       1.944   6.070  -7.355  0.00  0.00    +0.043 A 
ATOM     17  C   UNL     1       1.302   6.674  -8.442  0.00  0.00    +0.197 A 
ATOM     18  O   UNL     1       0.052   7.258  -8.352  0.00  0.00    -0.287 OA
ATOM     19  O   UNL     1       0.225   7.603 -10.865  0.00  0.00    -0.286 OA
ATOM     20  C   UNL     1       2.691   5.357 -12.214  0.00  0.00    +0.045 A 
ATOM     21  C   UNL     1       3.103   4.841 -13.423  0.00  0.00    +0.003 A 
ATOM     22  C   UNL     1       2.567   5.378 -14.565  0.00  0.00    +0.003 A 
ATOM     23  C   UNL     1       1.807   6.542 -14.523  0.00  0.00    +0.037 A 
ENDROOT
BRANCH  12  24
ATOM     24  C   UNL     1       3.924   7.632  -4.229  0.00  0.00    +0.179 C 
ATOM     25  O   UNL     1       4.945   8.297  -4.393  0.00  0.00    -0.293 OA
ATOM     26  C   UNL     1       3.278   7.518  -2.882  0.00  0.00    +0.075 C 
ENDBRANCH  12  24
BRANCH   1  28
ATOM     27  C   UNL     1       0.576   9.200 -14.217  0.00  0.00    +0.252 C 
ATOM     28  O   UNL     1       0.845   8.360 -13.211  0.00  0.00    -0.471 OA
ENDBRANCH   1  28
BRANCH  14  29
ATOM     29  O   UNL     1       0.216   5.761  -5.828  0.00  0.00    -0.328 OA
BRANCH  29  30
ATOM     30  C   UNL     1       0.183   5.467  -4.286  0.00  0.00    +0.237 C 
ATOM     31  O   UNL     1      -1.273   4.883  -4.259  0.00  0.00    -0.330 OA
ATOM     32  C   UNL     1      -1.805   5.288  -5.625  0.00  0.00    +0.150 C 
ATOM     33  C   UNL     1      -3.224   4.463  -5.329  0.00  0.00    +0.035 C 
ATOM     34  C   UNL     1      -2.540   6.798  -5.108  0.00  0.00    +0.196 C 
ATOM     35  O   UNL     1      -2.493   6.539  -3.626  0.00  0.00    -0.219 OA
ATOM     36  C   UNL     1      -0.986   7.578  -5.247  0.00  0.00    +0.130 C 
ATOM     37  N   UNL     1      -1.546   8.869  -4.517  0.00  0.00    -0.130 NA
ATOM     38  C   UNL     1      -0.354   7.029  -3.833  0.00  0.00    +0.083 C 
ENDBRANCH  29  30
ENDBRANCH  14  29
TORSDOF 4
ENDMDL
MODEL 9
REMARK VINA RESULT:      -4.3      3.548      7.031
REMARK  Name = 
REMARK  4 active torsions:
REMARK  status: ('A' for Active; 'I' for Inactive)
REMARK    1  A    between atoms: O_2  and  C_3
REMARK    2  A    between atoms: C_22  and  C_24
REMARK    3  A    between atoms: C_28  and  O_29
REMARK    4  A    between atoms: O_29  and  C_30
REMARK                            x       y       z     vdW  Elec       q    Type
REMARK                         _______ _______ _______ _____ _____    ______ ____
ROOT
ATOM      1  C   UNL     1       0.434   6.283 -11.061  0.00  0.00    +0.142 A 
ATOM      2  C   UNL     1       0.573   5.666  -9.821  0.00  0.00    +0.076 A 
ATOM      3  C   UNL     1       0.339   6.406  -8.579  0.00  0.00    +0.202 C 
ATOM      4  C   UNL     1       1.004   5.931  -7.356  0.00  0.00    +0.084 A 
ATOM      5  C   UNL     1       1.917   4.885  -7.458  0.00  0.00    +0.084 A 
ATOM      6  C   UNL     1       1.881   3.952  -8.591  0.00  0.00    +0.199 C 
ATOM      7  O   UNL     1       2.786   3.084  -8.672  0.00  0.00    -0.286 OA
ATOM      8  C   UNL     1       2.928   4.761  -6.511  0.00  0.00    +0.195 A 
ATOM      9  O   UNL     1       4.148   4.167  -6.851  0.00  0.00    -0.287 OA
ATOM     10  C   UNL     1       2.887   5.570  -5.381  0.00  0.00    +0.021 A 
ATOM     11  C   UNL     1       4.151   6.016  -4.730  0.00  0.00    +0.067 C 
ATOM     12  C   UNL     1       3.906   6.058  -3.254  0.00  0.00    +0.184 C 
ATOM     13  C   UNL     1       2.489   5.982  -2.851  0.00  0.00    +0.072 C 
ATOM     14  C   UNL     1       1.696   7.132  -3.802  0.00  0.00    +0.146 C 
ATOM     15  O   UNL     1       4.484   4.872  -2.771  0.00  0.00    -0.218 OA
ATOM     16  C   UNL     1       1.629   6.104  -5.106  0.00  0.00    +0.043 A 
ATOM     17  C   UNL     1       1.045   6.727  -6.215  0.00  0.00    +0.197 A 
ATOM     18  O   UNL     1       0.142   7.768  -6.108  0.00  0.00    -0.287 OA
ATOM     19  O   UNL     1      -0.087   7.599  -8.634  0.00  0.00    -0.286 OA
ATOM     20  C   UNL     1       1.058   4.367  -9.725  0.00  0.00    +0.045 A 
ATOM     21  C   UNL     1       0.998   3.539 -10.825  0.00  0.00    +0.003 A 
ATOM     22  C   UNL     1       0.474   4.051 -11.985  0.00  0.00    +0.003 A 
ATOM     23  C   UNL     1       0.218   5.411 -12.118  0.00  0.00    +0.037 A 
ENDROOT
BRANCH  12  24
ATOM     24  C   UNL     1       4.634   7.233  -2.694  0.00  0.00    +0.179 C 
ATOM     25  O   UNL     1       5.658   7.547  -3.298  0.00  0.00    -0.293 OA
ATOM     26  C   UNL     1       4.513   7.428  -1.213  0.00  0.00    +0.075 C 
ENDBRANCH  12  24
BRANCH   1  28
ATOM     27  C   UNL     1      -0.513   8.293 -12.019  0.00  0.00    +0.252 C 
ATOM     28  O   UNL     1       0.276   7.650 -11.150  0.00  0.00    -0.471 OA
ENDBRANCH   1  28
BRANCH  14  29
ATOM     29  O   UNL     1       0.257   6.765  -3.347  0.00  0.00    -0.328 OA
BRANCH  29  30
ATOM     30  C   UNL     1       0.508   5.364  -2.684  0.00  0.00    +0.237 C 
ATOM     31  O   UNL     1      -0.860   4.728  -3.116  0.00  0.00    -0.330 OA
ATOM     32  C   UNL     1      -1.647   5.945  -3.575  0.00  0.00    +0.150 C 
ATOM     33  C   UNL     1      -2.911   4.965  -4.046  0.00  0.00    +0.035 C 
ATOM     34  C   UNL     1      -2.430   6.265  -2.034  0.00  0.00    +0.196 C 
ATOM     35  O   UNL     1      -2.113   4.946  -1.380  0.00  0.00    -0.219 OA
ATOM     36  C   UNL     1      -1.002   7.121  -1.511  0.00  0.00    +0.130 C 
ATOM     37  N   UNL     1      -1.557   7.178  -0.026  0.00  0.00    -0.130 NA
ATOM     38  C   UNL     1      -0.096   5.801  -1.142  0.00  0.00    +0.083 C 
ENDBRANCH  29  30
ENDBRANCH  14  29
TORSDOF 4
ENDMDL
