MODEL 1
REMARK VINA RESULT:      -8.8      0.000      0.000
REMARK  Name = 
REMARK  6 active torsions:
REMARK  status: ('A' for Active; 'I' for Inactive)
REMARK    1  A    between atoms: C_2  and  O_4
REMARK    2  A    between atoms: O_4  and  C_5
REMARK    3  A    between atoms: N_12  and  C_13
REMARK    4  A    between atoms: C_13  and  C_14
REMARK    5  A    between atoms: C_13  and  C_19
REMARK    6  A    between atoms: C_14  and  C_16
REMARK                            x       y       z     vdW  Elec       q    Type
REMARK                         _______ _______ _______ _____ _____    ______ ____
ROOT
ATOM      1  C   UNL     1       5.359   5.758 -10.194  0.00  0.00    +0.178 A 
ATOM      2  S   UNL     1       4.279   7.085 -10.357  0.00  0.00    -0.055 S 
ATOM      3  C   UNL     1       3.048   6.557  -9.283  0.00  0.00    +0.009 A 
ATOM      4  C   UNL     1       1.579   6.853  -9.215  0.00  0.00    +0.050 C 
ATOM      5  C   UNL     1       0.905   5.512  -9.253  0.00  0.00    +0.078 C 
ATOM      6  N   UNL     1       1.284   4.748  -8.060  0.00  0.00    -0.260 NA
ATOM      7  C   UNL     1       2.595   4.213  -8.430  0.00  0.00    +0.100 C 
ATOM      8  C   UNL     1       3.485   5.280  -8.986  0.00  0.00    -0.000 A 
ATOM      9  C   UNL     1       4.867   5.192  -9.058  0.00  0.00    +0.042 A 
ENDROOT
BRANCH   1  10
ATOM     10  O   UNL     1       6.379   5.352 -11.067  0.00  0.00    -0.417 OA
BRANCH  10  12
ATOM     11  C   UNL     1       8.688   5.753 -11.886  0.00  0.00    +0.122 C 
ATOM     12  C   UNL     1       7.663   5.885 -10.904  0.00  0.00    +0.323 C 
ATOM     13  O   UNL     1       7.722   6.865 -10.100  0.00  0.00    -0.250 OA
ENDBRANCH  10  12
ENDBRANCH   1  10
BRANCH   6  14
ATOM     14  C   UNL     1       1.773   5.834  -7.021  0.00  0.00    +0.141 C 
BRANCH  14  15
ATOM     15  C   UNL     1       0.356   5.958  -6.262  0.00  0.00    +0.027 A 
ATOM     16  C   UNL     1       0.140   6.974  -5.421  0.00  0.00    +0.138 A 
ATOM     17  F   UNL     1       1.079   7.045  -4.434  0.00  0.00    -0.204 F 
ATOM     18  C   UNL     1      -1.189   7.228  -5.087  0.00  0.00    +0.029 A 
ATOM     19  C   UNL     1      -2.224   6.560  -5.728  0.00  0.00    +0.002 A 
ATOM     20  C   UNL     1      -1.949   5.381  -6.410  0.00  0.00    -0.000 A 
ATOM     21  C   UNL     1      -0.644   5.187  -6.844  0.00  0.00    -0.000 A 
ENDBRANCH  14  15
BRANCH  14  22
ATOM     22  C   UNL     1       2.408   4.783  -5.968  0.00  0.00    +0.169 C 
ATOM     23  O   UNL     1       1.542   3.924  -5.789  0.00  0.00    -0.294 OA
BRANCH  22  24
ATOM     24  C   UNL     1       3.409   5.014  -5.088  0.00  0.00    +0.059 C 
ATOM     25  C   UNL     1       4.488   5.972  -5.179  0.00  0.00    +0.008 C 
ATOM     26  C   UNL     1       4.541   4.632  -4.385  0.00  0.00    +0.008 C 
ENDBRANCH  22  24
ENDBRANCH  14  22
ENDBRANCH   6  14
TORSDOF 6
ENDMDL
MODEL 2
REMARK VINA RESULT:      -8.3      2.850      7.395
REMARK  Name = 
REMARK  6 active torsions:
REMARK  status: ('A' for Active; 'I' for Inactive)
REMARK    1  A    between atoms: C_2  and  O_4
REMARK    2  A    between atoms: O_4  and  C_5
REMARK    3  A    between atoms: N_12  and  C_13
REMARK    4  A    between atoms: C_13  and  C_14
REMARK    5  A    between atoms: C_13  and  C_19
REMARK    6  A    between atoms: C_14  and  C_16
REMARK                            x       y       z     vdW  Elec       q    Type
REMARK                         _______ _______ _______ _____ _____    ______ ____
ROOT
ATOM      1  C   UNL     1      -1.394   5.889  -5.442  0.00  0.00    +0.178 A 
ATOM      2  S   UNL     1      -0.392   7.279  -5.306  0.00  0.00    -0.055 S 
ATOM      3  C   UNL     1       0.964   6.713  -6.194  0.00  0.00    +0.009 A 
ATOM      4  C   UNL     1       2.419   7.076  -6.143  0.00  0.00    +0.050 C 
ATOM      5  C   UNL     1       3.140   5.780  -5.904  0.00  0.00    +0.078 C 
ATOM      6  N   UNL     1       2.918   4.887  -7.047  0.00  0.00    -0.260 NA
ATOM      7  C   UNL     1       1.599   4.325  -6.758  0.00  0.00    +0.100 C 
ATOM      8  C   UNL     1       0.613   5.394  -6.403  0.00  0.00    -0.000 A 
ATOM      9  C   UNL     1      -0.764   5.243  -6.461  0.00  0.00    +0.042 A 
ENDROOT
BRANCH   1  10
ATOM     10  O   UNL     1      -2.483   5.518  -4.640  0.00  0.00    -0.417 OA
BRANCH  10  12
ATOM     11  C   UNL     1      -2.648   6.987  -2.645  0.00  0.00    +0.122 C 
ATOM     12  C   UNL     1      -2.408   5.722  -3.257  0.00  0.00    +0.323 C 
ATOM     13  O   UNL     1      -2.591   4.674  -2.564  0.00  0.00    -0.250 OA
ENDBRANCH  10  12
ENDBRANCH   1  10
BRANCH   6  14
ATOM     14  C   UNL     1       2.497   5.844  -8.233  0.00  0.00    +0.141 C 
BRANCH  14  15
ATOM     15  C   UNL     1       3.926   5.790  -8.978  0.00  0.00    +0.027 A 
ATOM     16  C   UNL     1       4.186   6.639  -9.976  0.00  0.00    +0.138 A 
ATOM     17  F   UNL     1       3.261   6.571 -10.977  0.00  0.00    -0.204 F 
ATOM     18  C   UNL     1       5.526   6.789 -10.326  0.00  0.00    +0.029 A 
ATOM     19  C   UNL     1       6.531   6.208  -9.563  0.00  0.00    +0.002 A 
ATOM     20  C   UNL     1       6.207   5.173  -8.695  0.00  0.00    -0.000 A 
ATOM     21  C   UNL     1       4.891   5.097  -8.257  0.00  0.00    -0.000 A 
ENDBRANCH  14  15
BRANCH  14  22
ATOM     22  C   UNL     1       1.817   4.691  -9.143  0.00  0.00    +0.169 C 
ATOM     23  O   UNL     1       2.571   3.717  -9.067  0.00  0.00    -0.294 OA
BRANCH  22  24
ATOM     24  C   UNL     1       0.937   4.864 -10.155  0.00  0.00    +0.059 C 
ATOM     25  C   UNL     1      -0.065   5.893 -10.314  0.00  0.00    +0.008 C 
ATOM     26  C   UNL     1      -0.140   4.463 -10.930  0.00  0.00    +0.008 C 
ENDBRANCH  22  24
ENDBRANCH  14  22
ENDBRANCH   6  14
TORSDOF 6
ENDMDL
MODEL 3
REMARK VINA RESULT:      -7.6      2.658      7.344
REMARK  Name = 
REMARK  6 active torsions:
REMARK  status: ('A' for Active; 'I' for Inactive)
REMARK    1  A    between atoms: C_2  and  O_4
REMARK    2  A    between atoms: O_4  and  C_5
REMARK    3  A    between atoms: N_12  and  C_13
REMARK    4  A    between atoms: C_13  and  C_14
REMARK    5  A    between atoms: C_13  and  C_19
REMARK    6  A    between atoms: C_14  and  C_16
REMARK                            x       y       z     vdW  Elec       q    Type
REMARK                         _______ _______ _______ _____ _____    ______ ____
ROOT
ATOM      1  C   UNL     1       0.002   5.731  -5.477  0.00  0.00    +0.178 A 
ATOM      2  S   UNL     1       1.077   7.044  -5.205  0.00  0.00    -0.055 S 
ATOM      3  C   UNL     1       2.294   6.628  -6.343  0.00  0.00    +0.009 A 
ATOM      4  C   UNL     1       3.760   6.939  -6.403  0.00  0.00    +0.050 C 
ATOM      5  C   UNL     1       4.442   5.605  -6.504  0.00  0.00    +0.078 C 
ATOM      6  N   UNL     1       4.048   4.955  -7.758  0.00  0.00    -0.260 NA
ATOM      7  C   UNL     1       2.746   4.379  -7.422  0.00  0.00    +0.100 C 
ATOM      8  C   UNL     1       1.860   5.382  -6.753  0.00  0.00    -0.000 A 
ATOM      9  C   UNL     1       0.479   5.279  -6.669  0.00  0.00    +0.042 A 
ENDROOT
BRANCH   1  10
ATOM     10  O   UNL     1      -1.003   5.237  -4.632  0.00  0.00    -0.417 OA
BRANCH  10  12
ATOM     11  C   UNL     1      -2.975   5.566  -6.104  0.00  0.00    +0.122 C 
ATOM     12  C   UNL     1      -2.325   5.648  -4.838  0.00  0.00    +0.323 C 
ATOM     13  O   UNL     1      -3.043   5.636  -3.791  0.00  0.00    -0.250 OA
ENDBRANCH  10  12
ENDBRANCH   1  10
BRANCH   6  14
ATOM     14  C   UNL     1       3.537   6.132  -8.682  0.00  0.00    +0.141 C 
BRANCH  14  15
ATOM     15  C   UNL     1       4.893   6.236  -9.549  0.00  0.00    +0.027 A 
ATOM     16  C   UNL     1       5.020   7.194 -10.470  0.00  0.00    +0.138 A 
ATOM     17  F   UNL     1       4.011   7.175 -11.389  0.00  0.00    -0.204 F 
ATOM     18  C   UNL     1       6.314   7.455 -10.918  0.00  0.00    +0.029 A 
ATOM     19  C   UNL     1       7.411   6.857 -10.310  0.00  0.00    +0.002 A 
ATOM     20  C   UNL     1       7.217   5.722  -9.532  0.00  0.00    -0.000 A 
ATOM     21  C   UNL     1       5.953   5.529  -8.991  0.00  0.00    -0.000 A 
ENDBRANCH  14  15
BRANCH  14  22
ATOM     22  C   UNL     1       2.761   5.188  -9.741  0.00  0.00    +0.169 C 
ATOM     23  O   UNL     1       3.606   4.397 -10.167  0.00  0.00    -0.294 OA
BRANCH  22  24
ATOM     24  C   UNL     1       1.620   5.478 -10.408  0.00  0.00    +0.059 C 
ATOM     25  C   UNL     1       0.366   4.760 -10.406  0.00  0.00    +0.008 C 
ATOM     26  C   UNL     1       0.887   5.655 -11.571  0.00  0.00    +0.008 C 
ENDBRANCH  22  24
ENDBRANCH  14  22
ENDBRANCH   6  14
TORSDOF 6
ENDMDL
MODEL 4
REMARK VINA RESULT:      -7.6      1.933      3.512
REMARK  Name = 
REMARK  6 active torsions:
REMARK  status: ('A' for Active; 'I' for Inactive)
REMARK    1  A    between atoms: C_2  and  O_4
REMARK    2  A    between atoms: O_4  and  C_5
REMARK    3  A    between atoms: N_12  and  C_13
REMARK    4  A    between atoms: C_13  and  C_14
REMARK    5  A    between atoms: C_13  and  C_19
REMARK    6  A    between atoms: C_14  and  C_16
REMARK                            x       y       z     vdW  Elec       q    Type
REMARK                         _______ _______ _______ _____ _____    ______ ____
ROOT
ATOM      1  C   UNL     1       5.704   5.746 -10.417  0.00  0.00    +0.178 A 
ATOM      2  S   UNL     1       5.924   5.197  -8.804  0.00  0.00    -0.055 S 
ATOM      3  C   UNL     1       4.382   5.609  -8.172  0.00  0.00    +0.009 A 
ATOM      4  C   UNL     1       3.919   5.926  -6.781  0.00  0.00    +0.050 C 
ATOM      5  C   UNL     1       3.268   7.276  -6.881  0.00  0.00    +0.078 C 
ATOM      6  N   UNL     1       2.094   7.181  -7.755  0.00  0.00    -0.260 NA
ATOM      7  C   UNL     1       2.687   7.255  -9.090  0.00  0.00    +0.100 C 
ATOM      8  C   UNL     1       3.841   6.312  -9.231  0.00  0.00    -0.000 A 
ATOM      9  C   UNL     1       4.348   5.867 -10.442  0.00  0.00    +0.042 A 
ENDROOT
BRANCH   1  10
ATOM     10  O   UNL     1       6.682   6.066 -11.371  0.00  0.00    -0.417 OA
BRANCH  10  12
ATOM     11  C   UNL     1       6.104   5.644 -13.749  0.00  0.00    +0.122 C 
ATOM     12  C   UNL     1       6.769   5.296 -12.537  0.00  0.00    +0.323 C 
ATOM     13  O   UNL     1       7.812   4.576 -12.609  0.00  0.00    -0.250 OA
ENDBRANCH  10  12
ENDBRANCH   1  10
BRANCH   6  14
ATOM     14  C   UNL     1       1.718   5.645  -7.765  0.00  0.00    +0.141 C 
BRANCH  14  15
ATOM     15  C   UNL     1       0.864   5.696  -6.398  0.00  0.00    +0.027 A 
ATOM     16  C   UNL     1       1.053   4.762  -5.462  0.00  0.00    +0.138 A 
ATOM     17  F   UNL     1       0.881   3.496  -5.943  0.00  0.00    -0.204 F 
ATOM     18  C   UNL     1       0.570   5.055  -4.189  0.00  0.00    +0.029 A 
ATOM     19  C   UNL     1       0.070   6.316  -3.890  0.00  0.00    +0.002 A 
ATOM     20  C   UNL     1      -0.310   7.156  -4.930  0.00  0.00    -0.000 A 
ATOM     21  C   UNL     1       0.266   6.931  -6.174  0.00  0.00    -0.000 A 
ENDBRANCH  14  15
BRANCH  14  22
ATOM     22  C   UNL     1       0.437   5.794  -8.741  0.00  0.00    +0.169 C 
ATOM     23  O   UNL     1      -0.522   5.351  -8.105  0.00  0.00    -0.294 OA
BRANCH  22  24
ATOM     24  C   UNL     1       0.447   5.886 -10.090  0.00  0.00    +0.059 C 
ATOM     25  C   UNL     1      -0.368   6.719 -10.945  0.00  0.00    +0.008 C 
ATOM     26  C   UNL     1       0.269   5.359 -11.360  0.00  0.00    +0.008 C 
ENDBRANCH  22  24
ENDBRANCH  14  22
ENDBRANCH   6  14
TORSDOF 6
ENDMDL
MODEL 5
REMARK VINA RESULT:      -7.5      3.920      7.305
REMARK  Name = 
REMARK  6 active torsions:
REMARK  status: ('A' for Active; 'I' for Inactive)
REMARK    1  A    between atoms: C_2  and  O_4
REMARK    2  A    between atoms: O_4  and  C_5
REMARK    3  A    between atoms: N_12  and  C_13
REMARK    4  A    between atoms: C_13  and  C_14
REMARK    5  A    between atoms: C_13  and  C_19
REMARK    6  A    between atoms: C_14  and  C_16
REMARK                            x       y       z     vdW  Elec       q    Type
REMARK                         _______ _______ _______ _____ _____    ______ ____
ROOT
ATOM      1  C   UNL     1       2.852   7.219  -0.840  0.00  0.00    +0.178 A 
ATOM      2  S   UNL     1       3.680   8.358  -1.825  0.00  0.00    -0.055 S 
ATOM      3  C   UNL     1       3.662   7.487  -3.305  0.00  0.00    +0.009 A 
ATOM      4  C   UNL     1       4.566   7.523  -4.502  0.00  0.00    +0.050 C 
ATOM      5  C   UNL     1       5.030   6.106  -4.687  0.00  0.00    +0.078 C 
ATOM      6  N   UNL     1       3.874   5.258  -4.997  0.00  0.00    -0.260 NA
ATOM      7  C   UNL     1       3.302   5.005  -3.675  0.00  0.00    +0.100 C 
ATOM      8  C   UNL     1       3.150   6.272  -2.893  0.00  0.00    -0.000 A 
ATOM      9  C   UNL     1       2.307   6.426  -1.803  0.00  0.00    +0.042 A 
ENDROOT
BRANCH   1  10
ATOM     10  O   UNL     1       2.851   7.114   0.559  0.00  0.00    -0.417 OA
BRANCH  10  12
ATOM     11  C   UNL     1       3.878   8.858   1.997  0.00  0.00    +0.122 C 
ATOM     12  C   UNL     1       3.937   7.629   1.278  0.00  0.00    +0.323 C 
ATOM     13  O   UNL     1       4.777   6.753   1.651  0.00  0.00    -0.250 OA
ENDBRANCH  10  12
ENDBRANCH   1  10
BRANCH   6  14
ATOM     14  C   UNL     1       2.769   6.255  -5.530  0.00  0.00    +0.141 C 
BRANCH  14  15
ATOM     15  C   UNL     1       3.158   6.086  -7.086  0.00  0.00    +0.027 A 
ATOM     16  C   UNL     1       2.786   7.017  -7.968  0.00  0.00    +0.138 A 
ATOM     17  F   UNL     1       1.439   7.239  -7.960  0.00  0.00    -0.204 F 
ATOM     18  C   UNL     1       3.444   7.003  -9.196  0.00  0.00    +0.029 A 
ATOM     19  C   UNL     1       4.533   6.169  -9.411  0.00  0.00    +0.002 A 
ATOM     20  C   UNL     1       4.730   5.083  -8.566  0.00  0.00    -0.000 A 
ATOM     21  C   UNL     1       4.167   5.154  -7.298  0.00  0.00    -0.000 A 
ENDBRANCH  14  15
BRANCH  14  22
ATOM     22  C   UNL     1       1.569   5.171  -5.562  0.00  0.00    +0.169 C 
ATOM     23  O   UNL     1       2.034   4.172  -6.115  0.00  0.00    -0.294 OA
BRANCH  22  24
ATOM     24  C   UNL     1       0.242   5.423  -5.491  0.00  0.00    +0.059 C 
ATOM     25  C   UNL     1      -0.762   5.274  -6.521  0.00  0.00    +0.008 C 
ATOM     26  C   UNL     1      -0.842   6.271  -5.325  0.00  0.00    +0.008 C 
ENDBRANCH  22  24
ENDBRANCH  14  22
ENDBRANCH   6  14
TORSDOF 6
ENDMDL
MODEL 6
REMARK VINA RESULT:      -7.5      2.202      2.781
REMARK  Name = 
REMARK  6 active torsions:
REMARK  status: ('A' for Active; 'I' for Inactive)
REMARK    1  A    between atoms: C_2  and  O_4
REMARK    2  A    between atoms: O_4  and  C_5
REMARK    3  A    between atoms: N_12  and  C_13
REMARK    4  A    between atoms: C_13  and  C_14
REMARK    5  A    between atoms: C_13  and  C_19
REMARK    6  A    between atoms: C_14  and  C_16
REMARK                            x       y       z     vdW  Elec       q    Type
REMARK                         _______ _______ _______ _____ _____    ______ ____
ROOT
ATOM      1  C   UNL     1       3.977   5.595  -8.779  0.00  0.00    +0.178 A 
ATOM      2  S   UNL     1       2.340   5.911  -9.197  0.00  0.00    -0.055 S 
ATOM      3  C   UNL     1       1.652   5.856  -7.625  0.00  0.00    +0.009 A 
ATOM      4  C   UNL     1       0.266   5.539  -7.145  0.00  0.00    +0.050 C 
ATOM      5  C   UNL     1       0.438   4.422  -6.156  0.00  0.00    +0.078 C 
ATOM      6  N   UNL     1       1.228   4.903  -5.018  0.00  0.00    -0.260 NA
ATOM      7  C   UNL     1       2.599   4.805  -5.521  0.00  0.00    +0.100 C 
ATOM      8  C   UNL     1       2.730   5.424  -6.877  0.00  0.00    -0.000 A 
ATOM      9  C   UNL     1       3.929   5.836  -7.440  0.00  0.00    +0.042 A 
ENDROOT
BRANCH   1  10
ATOM     10  O   UNL     1       5.011   5.125  -9.601  0.00  0.00    -0.417 OA
BRANCH  10  12
ATOM     11  C   UNL     1       5.585   7.215 -10.812  0.00  0.00    +0.122 C 
ATOM     12  C   UNL     1       5.950   6.036 -10.099  0.00  0.00    +0.323 C 
ATOM     13  O   UNL     1       7.063   6.022  -9.489  0.00  0.00    -0.250 OA
ENDBRANCH  10  12
ENDBRANCH   1  10
BRANCH   6  14
ATOM     14  C   UNL     1       1.088   6.478  -5.063  0.00  0.00    +0.141 C 
BRANCH  14  15
ATOM     15  C   UNL     1      -0.326   6.520  -4.289  0.00  0.00    +0.027 A 
ATOM     16  C   UNL     1      -1.313   7.293  -4.750  0.00  0.00    +0.138 A 
ATOM     17  F   UNL     1      -0.938   8.599  -4.879  0.00  0.00    -0.204 F 
ATOM     18  C   UNL     1      -2.591   7.018  -4.269  0.00  0.00    +0.029 A 
ATOM     19  C   UNL     1      -2.830   5.897  -3.484  0.00  0.00    +0.002 A 
ATOM     20  C   UNL     1      -1.760   5.270  -2.857  0.00  0.00    -0.000 A 
ATOM     21  C   UNL     1      -0.500   5.455  -3.412  0.00  0.00    -0.000 A 
ENDBRANCH  14  15
BRANCH  14  22
ATOM     22  C   UNL     1       1.982   6.762  -3.746  0.00  0.00    +0.169 C 
ATOM     23  O   UNL     1       2.832   7.586  -4.089  0.00  0.00    -0.294 OA
BRANCH  22  24
ATOM     24  C   UNL     1       2.132   5.952  -2.673  0.00  0.00    +0.059 C 
ATOM     25  C   UNL     1       2.098   6.297  -1.269  0.00  0.00    +0.008 C 
ATOM     26  C   UNL     1       2.868   5.087  -1.879  0.00  0.00    +0.008 C 
ENDBRANCH  22  24
ENDBRANCH  14  22
ENDBRANCH   6  14
TORSDOF 6
ENDMDL
MODEL 7
REMARK VINA RESULT:      -7.2      2.754      4.636
REMARK  Name = 
REMARK  6 active torsions:
REMARK  status: ('A' for Active; 'I' for Inactive)
REMARK    1  A    between atoms: C_2  and  O_4
REMARK    2  A    between atoms: O_4  and  C_5
REMARK    3  A    between atoms: N_12  and  C_13
REMARK    4  A    between atoms: C_13  and  C_14
REMARK    5  A    between atoms: C_13  and  C_19
REMARK    6  A    between atoms: C_14  and  C_16
REMARK                            x       y       z     vdW  Elec       q    Type
REMARK                         _______ _______ _______ _____ _____    ______ ____
ROOT
ATOM      1  C   UNL     1       1.631   5.493 -11.470  0.00  0.00    +0.178 A 
ATOM      2  S   UNL     1       3.252   5.677 -10.929  0.00  0.00    -0.055 S 
ATOM      3  C   UNL     1       2.949   5.878  -9.251  0.00  0.00    +0.009 A 
ATOM      4  C   UNL     1       3.723   6.566  -8.166  0.00  0.00    +0.050 C 
ATOM      5  C   UNL     1       2.765   7.554  -7.565  0.00  0.00    +0.078 C 
ATOM      6  N   UNL     1       1.645   6.829  -6.954  0.00  0.00    -0.260 NA
ATOM      7  C   UNL     1       0.788   6.543  -8.104  0.00  0.00    +0.100 C 
ATOM      8  C   UNL     1       1.569   5.957  -9.238  0.00  0.00    -0.000 A 
ATOM      9  C   UNL     1       1.015   5.235 -10.284  0.00  0.00    +0.042 A 
ENDROOT
BRANCH   1  10
ATOM     10  O   UNL     1       1.118   5.671 -12.763  0.00  0.00    -0.417 OA
BRANCH  10  12
ATOM     11  C   UNL     1       0.455   3.872 -14.340  0.00  0.00    +0.122 C 
ATOM     12  C   UNL     1       1.429   4.731 -13.752  0.00  0.00    +0.323 C 
ATOM     13  O   UNL     1       2.473   5.004 -14.421  0.00  0.00    -0.250 OA
ENDBRANCH  10  12
ENDBRANCH   1  10
BRANCH   6  14
ATOM     14  C   UNL     1       2.192   5.364  -6.716  0.00  0.00    +0.141 C 
BRANCH  14  15
ATOM     15  C   UNL     1       2.876   5.694  -5.293  0.00  0.00    +0.027 A 
ATOM     16  C   UNL     1       4.004   5.072  -4.939  0.00  0.00    +0.138 A 
ATOM     17  F   UNL     1       3.884   3.712  -4.970  0.00  0.00    -0.204 F 
ATOM     18  C   UNL     1       4.725   5.647  -3.895  0.00  0.00    +0.029 A 
ATOM     19  C   UNL     1       4.364   6.883  -3.376  0.00  0.00    +0.002 A 
ATOM     20  C   UNL     1       3.083   7.368  -3.613  0.00  0.00    -0.000 A 
ATOM     21  C   UNL     1       2.412   6.875  -4.725  0.00  0.00    -0.000 A 
ENDBRANCH  14  15
BRANCH  14  22
ATOM     22  C   UNL     1       0.823   4.777  -6.085  0.00  0.00    +0.169 C 
ATOM     23  O   UNL     1       0.965   3.553  -6.057  0.00  0.00    -0.294 OA
BRANCH  22  24
ATOM     24  C   UNL     1      -0.388   5.379  -6.063  0.00  0.00    +0.059 C 
ATOM     25  C   UNL     1      -1.156   5.824  -4.922  0.00  0.00    +0.008 C 
ATOM     26  C   UNL     1      -1.755   5.402  -6.298  0.00  0.00    +0.008 C 
ENDBRANCH  22  24
ENDBRANCH  14  22
ENDBRANCH   6  14
TORSDOF 6
ENDMDL
MODEL 8
REMARK VINA RESULT:      -7.1      2.715      7.453
REMARK  Name = 
REMARK  6 active torsions:
REMARK  status: ('A' for Active; 'I' for Inactive)
REMARK    1  A    between atoms: C_2  and  O_4
REMARK    2  A    between atoms: O_4  and  C_5
REMARK    3  A    between atoms: N_12  and  C_13
REMARK    4  A    between atoms: C_13  and  C_14
REMARK    5  A    between atoms: C_13  and  C_19
REMARK    6  A    between atoms: C_14  and  C_16
REMARK                            x       y       z     vdW  Elec       q    Type
REMARK                         _______ _______ _______ _____ _____    ______ ____
ROOT
ATOM      1  C   UNL     1       0.880   5.637  -6.299  0.00  0.00    +0.178 A 
ATOM      2  S   UNL     1       2.418   6.315  -5.939  0.00  0.00    -0.055 S 
ATOM      3  C   UNL     1       3.171   6.084  -7.465  0.00  0.00    +0.009 A 
ATOM      4  C   UNL     1       4.610   5.934  -7.862  0.00  0.00    +0.050 C 
ATOM      5  C   UNL     1       4.677   4.635  -8.614  0.00  0.00    +0.078 C 
ATOM      6  N   UNL     1       3.864   4.740  -9.830  0.00  0.00    -0.260 NA
ATOM      7  C   UNL     1       2.512   4.497  -9.329  0.00  0.00    +0.100 C 
ATOM      8  C   UNL     1       2.217   5.330  -8.121  0.00  0.00    -0.000 A 
ATOM      9  C   UNL     1       0.942   5.621  -7.659  0.00  0.00    +0.042 A 
ENDROOT
BRANCH   1  10
ATOM     10  O   UNL     1      -0.091   5.156  -5.409  0.00  0.00    -0.417 OA
BRANCH  10  12
ATOM     11  C   UNL     1      -2.417   5.491  -6.209  0.00  0.00    +0.122 C 
ATOM     12  C   UNL     1      -1.331   5.803  -5.341  0.00  0.00    +0.323 C 
ATOM     13  O   UNL     1      -1.592   6.310  -4.207  0.00  0.00    -0.250 OA
ENDBRANCH  10  12
ENDBRANCH   1  10
BRANCH   6  14
ATOM     14  C   UNL     1       3.726   6.293 -10.094  0.00  0.00    +0.141 C 
BRANCH  14  15
ATOM     15  C   UNL     1       5.043   6.401 -11.018  0.00  0.00    +0.027 A 
ATOM     16  C   UNL     1       5.930   7.376 -10.800  0.00  0.00    +0.138 A 
ATOM     17  F   UNL     1       5.364   8.617 -10.840  0.00  0.00    -0.204 F 
ATOM     18  C   UNL     1       7.189   7.206 -11.371  0.00  0.00    +0.029 A 
ATOM     19  C   UNL     1       7.535   6.012 -11.990  0.00  0.00    +0.002 A 
ATOM     20  C   UNL     1       6.529   5.139 -12.385  0.00  0.00    -0.000 A 
ATOM     21  C   UNL     1       5.308   5.235 -11.728  0.00  0.00    -0.000 A 
ENDBRANCH  14  15
BRANCH  14  22
ATOM     22  C   UNL     1       2.692   6.160 -11.331  0.00  0.00    +0.169 C 
ATOM     23  O   UNL     1       3.379   6.242 -12.352  0.00  0.00    -0.294 OA
BRANCH  22  24
ATOM     24  C   UNL     1       1.364   6.416 -11.314  0.00  0.00    +0.059 C 
ATOM     25  C   UNL     1       0.274   5.560 -11.724  0.00  0.00    +0.008 C 
ATOM     26  C   UNL     1       0.242   7.118 -11.725  0.00  0.00    +0.008 C 
ENDBRANCH  22  24
ENDBRANCH  14  22
ENDBRANCH   6  14
TORSDOF 6
ENDMDL
MODEL 9
REMARK VINA RESULT:      -6.9      2.968      5.962
REMARK  Name = 
REMARK  6 active torsions:
REMARK  status: ('A' for Active; 'I' for Inactive)
REMARK    1  A    between atoms: C_2  and  O_4
REMARK    2  A    between atoms: O_4  and  C_5
REMARK    3  A    between atoms: N_12  and  C_13
REMARK    4  A    between atoms: C_13  and  C_14
REMARK    5  A    between atoms: C_13  and  C_19
REMARK    6  A    between atoms: C_14  and  C_16
REMARK                            x       y       z     vdW  Elec       q    Type
REMARK                         _______ _______ _______ _____ _____    ______ ____
ROOT
ATOM      1  C   UNL     1       2.846   5.324  -3.841  0.00  0.00    +0.178 A 
ATOM      2  S   UNL     1       1.219   5.407  -4.388  0.00  0.00    -0.055 S 
ATOM      3  C   UNL     1       1.515   5.618  -6.066  0.00  0.00    +0.009 A 
ATOM      4  C   UNL     1       0.703   6.253  -7.156  0.00  0.00    +0.050 C 
ATOM      5  C   UNL     1       1.602   7.294  -7.760  0.00  0.00    +0.078 C 
ATOM      6  N   UNL     1       2.765   6.636  -8.363  0.00  0.00    -0.260 NA
ATOM      7  C   UNL     1       3.634   6.408  -7.209  0.00  0.00    +0.100 C 
ATOM      8  C   UNL     1       2.886   5.780  -6.075  0.00  0.00    -0.000 A 
ATOM      9  C   UNL     1       3.481   5.098  -5.024  0.00  0.00    +0.042 A 
ENDROOT
BRANCH   1  10
ATOM     10  O   UNL     1       3.343   5.539  -2.548  0.00  0.00    -0.417 OA
BRANCH  10  12
ATOM     11  C   UNL     1       3.878   7.963  -2.607  0.00  0.00    +0.122 C 
ATOM     12  C   UNL     1       3.273   6.825  -1.998  0.00  0.00    +0.323 C 
ATOM     13  O   UNL     1       2.279   7.009  -1.231  0.00  0.00    -0.250 OA
ENDBRANCH  10  12
ENDBRANCH   1  10
BRANCH   6  14
ATOM     14  C   UNL     1       2.309   5.140  -8.596  0.00  0.00    +0.141 C 
BRANCH  14  15
ATOM     15  C   UNL     1       1.651   5.412 -10.043  0.00  0.00    +0.027 A 
ATOM     16  C   UNL     1       0.515   4.795 -10.382  0.00  0.00    +0.138 A 
ATOM     17  F   UNL     1       0.608   3.437 -10.283  0.00  0.00    -0.204 F 
ATOM     18  C   UNL     1      -0.181   5.331 -11.463  0.00  0.00    +0.029 A 
ATOM     19  C   UNL     1       0.212   6.534 -12.037  0.00  0.00    +0.002 A 
ATOM     20  C   UNL     1       1.498   7.005 -11.806  0.00  0.00    -0.000 A 
ATOM     21  C   UNL     1       2.145   6.555 -10.661  0.00  0.00    -0.000 A 
ENDBRANCH  14  15
BRANCH  14  22
ATOM     22  C   UNL     1       3.727   4.623  -9.179  0.00  0.00    +0.169 C 
ATOM     23  O   UNL     1       3.739   3.403  -8.998  0.00  0.00    -0.294 OA
BRANCH  22  24
ATOM     24  C   UNL     1       4.853   5.353  -9.350  0.00  0.00    +0.059 C 
ATOM     25  C   UNL     1       5.515   5.717 -10.582  0.00  0.00    +0.008 C 
ATOM     26  C   UNL     1       6.213   5.570  -9.196  0.00  0.00    +0.008 C 
ENDBRANCH  22  24
ENDBRANCH  14  22
ENDBRANCH   6  14
TORSDOF 6
ENDMDL
