MODEL 1
REMARK VINA RESULT:      -9.1      0.000      0.000
REMARK  Name = 
REMARK  8 active torsions:
REMARK  status: ('A' for Active; 'I' for Inactive)
REMARK    1  A    between atoms: C_2  and  C_3
REMARK    2  A    between atoms: C_3  and  N_4
REMARK    3  A    between atoms: C_6  and  C_7
REMARK    4  A    between atoms: N_9  and  C_10
REMARK    5  A    between atoms: C_10  and  C_11
REMARK    6  A    between atoms: C_11  and  C_12
REMARK    7  A    between atoms: C_12  and  N_13
REMARK    8  A    between atoms: N_18  and  C_19
REMARK                            x       y       z     vdW  Elec       q    Type
REMARK                         _______ _______ _______ _____ _____    ______ ____
ROOT
ATOM      1  N   UNL     1       2.233   5.868 -10.465  0.00  0.00    -0.269 NA
ATOM      2  C   UNL     1       3.604   6.477 -10.962  0.00  0.00    +0.066 C 
ATOM      3  C   UNL     1       4.487   5.397  -9.942  0.00  0.00    +0.038 C 
ATOM      4  C   UNL     1       5.881   6.071 -10.381  0.00  0.00    -0.020 A 
ATOM      5  C   UNL     1       6.104   5.778 -11.715  0.00  0.00    +0.011 A 
ATOM      6  C   UNL     1       7.308   5.310 -12.213  0.00  0.00    +0.081 A 
ATOM      7  N   UNL     1       7.133   5.067 -13.535  0.00  0.00    -0.244 NA
ATOM      8  C   UNL     1       5.793   5.042 -13.747  0.00  0.00    +0.095 A 
ATOM      9  C   UNL     1       8.399   5.371 -11.364  0.00  0.00    +0.019 A 
ATOM     10  C   UNL     1       8.196   5.682 -10.027  0.00  0.00    +0.001 A 
ATOM     11  C   UNL     1       5.126   5.390 -12.589  0.00  0.00    -0.001 A 
ATOM     12  C   UNL     1       6.927   5.895  -9.498  0.00  0.00    -0.004 A 
ATOM     13  C   UNL     1       4.282   6.394  -8.656  0.00  0.00    +0.016 C 
ATOM     14  C   UNL     1       2.900   5.604  -8.175  0.00  0.00    +0.093 C 
ATOM     15  C   UNL     1       3.675   5.426 -12.230  0.00  0.00    +0.044 C 
ATOM     16  C   UNL     1       1.970   6.511  -9.209  0.00  0.00    +0.081 C 
ENDROOT
BRANCH  14  17
ATOM     17  C   UNL     1       2.578   6.613  -6.948  0.00  0.00    +0.233 C 
ATOM     18  N   UNL     1       1.968   6.183  -5.805  0.00  0.00    -0.213 N 
ATOM     19  C   UNL     1       0.706   5.512  -5.683  0.00  0.00    +0.329 C 
ATOM     20  N   UNL     1      -0.422   6.325  -5.330  0.00  0.00    -0.188 NA
ATOM     21  O   UNL     1       0.701   4.379  -5.109  0.00  0.00    -0.250 OA
ATOM     22  O   UNL     1       2.831   7.768  -7.343  0.00  0.00    -0.274 OA
BRANCH  20  23
ATOM     23  C   UNL     1      -1.635   5.770  -4.752  0.00  0.00    +0.117 C 
ATOM     24  C   UNL     1      -2.603   5.498  -5.871  0.00  0.00    +0.025 C 
ENDBRANCH  20  23
BRANCH  18  25
ATOM     25  C   UNL     1       2.437   6.771  -4.550  0.00  0.00    +0.104 C 
BRANCH  25  26
ATOM     26  C   UNL     1       3.922   6.468  -4.387  0.00  0.00    +0.039 C 
BRANCH  26  27
ATOM     27  C   UNL     1       4.178   5.410  -3.349  0.00  0.00    +0.074 C 
BRANCH  27  28
ATOM     28  N   UNL     1       3.829   5.825  -2.010  0.00  0.00    -0.270 NA
ATOM     29  C   UNL     1       4.011   4.728  -1.107  0.00  0.00    +0.090 C 
ATOM     30  C   UNL     1       4.546   6.989  -1.562  0.00  0.00    +0.090 C 
ENDBRANCH  27  28
ENDBRANCH  26  27
ENDBRANCH  25  26
ENDBRANCH  18  25
ENDBRANCH  14  17
BRANCH   1  31
ATOM     31  C   UNL     1       1.279   6.290 -11.449  0.00  0.00    +0.099 C 
BRANCH  31  33
ATOM     32  C   UNL     1      -0.145   5.004 -11.642  0.00  0.00    -0.003 C 
ATOM     33  C   UNL     1       0.133   5.365 -11.613  0.00  0.00    -0.009 C 
ENDBRANCH  31  33
ENDBRANCH   1  31
TORSDOF 8
ENDMDL
MODEL 2
REMARK VINA RESULT:      -8.9      2.031      9.291
REMARK  Name = 
REMARK  8 active torsions:
REMARK  status: ('A' for Active; 'I' for Inactive)
REMARK    1  A    between atoms: C_2  and  C_3
REMARK    2  A    between atoms: C_3  and  N_4
REMARK    3  A    between atoms: C_6  and  C_7
REMARK    4  A    between atoms: N_9  and  C_10
REMARK    5  A    between atoms: C_10  and  C_11
REMARK    6  A    between atoms: C_11  and  C_12
REMARK    7  A    between atoms: C_12  and  N_13
REMARK    8  A    between atoms: N_18  and  C_19
REMARK                            x       y       z     vdW  Elec       q    Type
REMARK                         _______ _______ _______ _____ _____    ______ ____
ROOT
ATOM      1  N   UNL     1       2.914   6.618  -4.661  0.00  0.00    -0.269 NA
ATOM      2  C   UNL     1       1.456   7.030  -4.213  0.00  0.00    +0.066 C 
ATOM      3  C   UNL     1       0.776   5.720  -5.112  0.00  0.00    +0.038 C 
ATOM      4  C   UNL     1      -0.715   6.187  -4.726  0.00  0.00    -0.020 A 
ATOM      5  C   UNL     1      -0.893   5.993  -3.368  0.00  0.00    +0.011 A 
ATOM      6  C   UNL     1      -2.002   5.379  -2.813  0.00  0.00    +0.081 A 
ATOM      7  N   UNL     1      -1.797   5.301  -1.475  0.00  0.00    -0.244 NA
ATOM      8  C   UNL     1      -0.474   5.525  -1.277  0.00  0.00    +0.095 A 
ATOM      9  C   UNL     1      -3.082   5.169  -3.651  0.00  0.00    +0.019 A 
ATOM     10  C   UNL     1      -2.927   5.376  -5.015  0.00  0.00    +0.001 A 
ATOM     11  C   UNL     1       0.132   5.867  -2.470  0.00  0.00    -0.001 A 
ATOM     12  C   UNL     1      -1.709   5.749  -5.576  0.00  0.00    -0.004 A 
ATOM     13  C   UNL     1       0.816   6.606  -6.491  0.00  0.00    +0.016 C 
ATOM     14  C   UNL     1       2.316   6.019  -6.908  0.00  0.00    +0.093 C 
ATOM     15  C   UNL     1       1.558   6.114  -2.847  0.00  0.00    +0.044 C 
ATOM     16  C   UNL     1       3.071   7.169  -5.978  0.00  0.00    +0.081 C 
ENDROOT
BRANCH  14  17
ATOM     17  C   UNL     1       2.469   6.942  -8.231  0.00  0.00    +0.233 C 
ATOM     18  N   UNL     1       2.969   6.445  -9.400  0.00  0.00    -0.213 N 
ATOM     19  C   UNL     1       4.234   5.803  -9.610  0.00  0.00    +0.329 C 
ATOM     20  N   UNL     1       5.287   6.618 -10.142  0.00  0.00    -0.188 NA
ATOM     21  O   UNL     1       4.218   4.631 -10.099  0.00  0.00    -0.250 OA
ATOM     22  O   UNL     1       2.217   8.116  -7.895  0.00  0.00    -0.274 OA
BRANCH  20  23
ATOM     23  C   UNL     1       6.451   6.056 -10.808  0.00  0.00    +0.117 C 
ATOM     24  C   UNL     1       7.539   5.884  -9.782  0.00  0.00    +0.025 C 
ENDBRANCH  20  23
BRANCH  18  25
ATOM     25  C   UNL     1       2.347   6.924 -10.635  0.00  0.00    +0.104 C 
BRANCH  25  26
ATOM     26  C   UNL     1       0.896   6.460 -10.671  0.00  0.00    +0.039 C 
BRANCH  26  27
ATOM     27  C   UNL     1       0.222   6.788 -11.975  0.00  0.00    +0.074 C 
BRANCH  27  28
ATOM     28  N   UNL     1       1.050   6.523 -13.129  0.00  0.00    -0.270 NA
ATOM     29  C   UNL     1       0.864   5.167 -13.550  0.00  0.00    +0.090 C 
ATOM     30  C   UNL     1       0.831   7.438 -14.217  0.00  0.00    +0.090 C 
ENDBRANCH  27  28
ENDBRANCH  26  27
ENDBRANCH  25  26
ENDBRANCH  18  25
ENDBRANCH  14  17
BRANCH   1  31
ATOM     31  C   UNL     1       3.776   7.292  -3.734  0.00  0.00    +0.099 C 
BRANCH  31  33
ATOM     32  C   UNL     1       5.668   7.248  -4.104  0.00  0.00    -0.003 C 
ATOM     33  C   UNL     1       5.212   7.234  -4.095  0.00  0.00    -0.009 C 
ENDBRANCH  31  33
ENDBRANCH   1  31
TORSDOF 8
ENDMDL
MODEL 3
REMARK VINA RESULT:      -8.7      1.748      7.608
REMARK  Name = 
REMARK  8 active torsions:
REMARK  status: ('A' for Active; 'I' for Inactive)
REMARK    1  A    between atoms: C_2  and  C_3
REMARK    2  A    between atoms: C_3  and  N_4
REMARK    3  A    between atoms: C_6  and  C_7
REMARK    4  A    between atoms: N_9  and  C_10
REMARK    5  A    between atoms: C_10  and  C_11
REMARK    6  A    between atoms: C_11  and  C_12
REMARK    7  A    between atoms: C_12  and  N_13
REMARK    8  A    between atoms: N_18  and  C_19
REMARK                            x       y       z     vdW  Elec       q    Type
REMARK                         _______ _______ _______ _____ _____    ______ ____
ROOT
ATOM      1  N   UNL     1       0.787   5.653  -6.507  0.00  0.00    -0.269 NA
ATOM      2  C   UNL     1       1.778   5.292  -5.331  0.00  0.00    +0.066 C 
ATOM      3  C   UNL     1       2.632   6.778  -5.554  0.00  0.00    +0.038 C 
ATOM      4  C   UNL     1       3.695   6.375  -4.414  0.00  0.00    -0.020 A 
ATOM      5  C   UNL     1       3.040   6.365  -3.195  0.00  0.00    +0.011 A 
ATOM      6  C   UNL     1       3.529   6.970  -2.050  0.00  0.00    +0.081 A 
ATOM      7  N   UNL     1       2.594   6.819  -1.080  0.00  0.00    -0.244 NA
ATOM      8  C   UNL     1       1.446   6.461  -1.707  0.00  0.00    +0.095 A 
ATOM      9  C   UNL     1       4.845   7.395  -2.083  0.00  0.00    +0.019 A 
ATOM     10  C   UNL     1       5.523   7.394  -3.295  0.00  0.00    +0.001 A 
ATOM     11  C   UNL     1       1.683   6.266  -3.053  0.00  0.00    -0.001 A 
ATOM     12  C   UNL     1       4.912   7.019  -4.487  0.00  0.00    -0.004 A 
ATOM     13  C   UNL     1       3.518   6.121  -6.768  0.00  0.00    +0.016 C 
ATOM     14  C   UNL     1       2.448   6.645  -7.928  0.00  0.00    +0.093 C 
ATOM     15  C   UNL     1       0.780   5.969  -4.207  0.00  0.00    +0.044 C 
ATOM     16  C   UNL     1       1.490   5.306  -7.710  0.00  0.00    +0.081 C 
ENDROOT
BRANCH  14  17
ATOM     17  C   UNL     1       3.216   5.934  -9.165  0.00  0.00    +0.233 C 
ATOM     18  N   UNL     1       2.915   6.229 -10.463  0.00  0.00    -0.213 N 
ATOM     19  C   UNL     1       1.637   6.140 -11.108  0.00  0.00    +0.329 C 
ATOM     20  N   UNL     1       1.393   4.962 -11.891  0.00  0.00    -0.188 NA
ATOM     21  O   UNL     1       1.181   7.196 -11.646  0.00  0.00    -0.250 OA
ATOM     22  O   UNL     1       3.932   5.032  -8.686  0.00  0.00    -0.274 OA
BRANCH  20  23
ATOM     23  C   UNL     1       0.377   4.910 -12.929  0.00  0.00    +0.117 C 
ATOM     24  C   UNL     1       0.933   4.128 -14.088  0.00  0.00    +0.025 C 
ENDBRANCH  20  23
BRANCH  18  25
ATOM     25  C   UNL     1       4.037   6.286 -11.400  0.00  0.00    +0.104 C 
BRANCH  25  26
ATOM     26  C   UNL     1       5.044   7.318 -10.905  0.00  0.00    +0.039 C 
BRANCH  26  27
ATOM     27  C   UNL     1       6.441   7.027 -11.378  0.00  0.00    +0.074 C 
BRANCH  27  28
ATOM     28  N   UNL     1       6.954   5.761 -10.907  0.00  0.00    -0.270 NA
ATOM     29  C   UNL     1       8.068   5.366 -11.717  0.00  0.00    +0.090 C 
ATOM     30  C   UNL     1       7.302   5.764  -9.512  0.00  0.00    +0.090 C 
ENDBRANCH  27  28
ENDBRANCH  26  27
ENDBRANCH  25  26
ENDBRANCH  18  25
ENDBRANCH  14  17
BRANCH   1  31
ATOM     31  C   UNL     1      -0.330   4.775  -6.313  0.00  0.00    +0.099 C 
BRANCH  31  33
ATOM     32  C   UNL     1      -2.053   5.600  -6.577  0.00  0.00    -0.003 C 
ATOM     33  C   UNL     1      -1.644   5.399  -6.598  0.00  0.00    -0.009 C 
ENDBRANCH  31  33
ENDBRANCH   1  31
TORSDOF 8
ENDMDL
MODEL 4
REMARK VINA RESULT:      -8.2      1.874      8.114
REMARK  Name = 
REMARK  8 active torsions:
REMARK  status: ('A' for Active; 'I' for Inactive)
REMARK    1  A    between atoms: C_2  and  C_3
REMARK    2  A    between atoms: C_3  and  N_4
REMARK    3  A    between atoms: C_6  and  C_7
REMARK    4  A    between atoms: N_9  and  C_10
REMARK    5  A    between atoms: C_10  and  C_11
REMARK    6  A    between atoms: C_11  and  C_12
REMARK    7  A    between atoms: C_12  and  N_13
REMARK    8  A    between atoms: N_18  and  C_19
REMARK                            x       y       z     vdW  Elec       q    Type
REMARK                         _______ _______ _______ _____ _____    ______ ____
ROOT
ATOM      1  N   UNL     1      -0.029   5.831  -5.459  0.00  0.00    -0.269 NA
ATOM      2  C   UNL     1       0.727   5.260  -4.194  0.00  0.00    +0.066 C 
ATOM      3  C   UNL     1       1.898   6.528  -4.284  0.00  0.00    +0.038 C 
ATOM      4  C   UNL     1       2.717   5.900  -3.049  0.00  0.00    -0.020 A 
ATOM      5  C   UNL     1       1.946   6.026  -1.907  0.00  0.00    +0.011 A 
ATOM      6  C   UNL     1       2.424   6.506  -0.700  0.00  0.00    +0.081 A 
ATOM      7  N   UNL     1       1.377   6.555   0.161  0.00  0.00    -0.244 NA
ATOM      8  C   UNL     1       0.255   6.456  -0.595  0.00  0.00    +0.095 A 
ATOM      9  C   UNL     1       3.796   6.638  -0.581  0.00  0.00    +0.019 A 
ATOM     10  C   UNL     1       4.587   6.497  -1.713  0.00  0.00    +0.001 A 
ATOM     11  C   UNL     1       0.592   6.221  -1.913  0.00  0.00    -0.001 A 
ATOM     12  C   UNL     1       4.045   6.268  -2.974  0.00  0.00    -0.004 A 
ATOM     13  C   UNL     1       2.751   5.702  -5.414  0.00  0.00    +0.016 C 
ATOM     14  C   UNL     1       1.951   6.449  -6.666  0.00  0.00    +0.093 C 
ATOM     15  C   UNL     1      -0.221   6.131  -3.165  0.00  0.00    +0.044 C 
ATOM     16  C   UNL     1       0.712   5.348  -6.589  0.00  0.00    +0.081 C 
ENDROOT
BRANCH  14  17
ATOM     17  C   UNL     1       2.681   5.596  -7.834  0.00  0.00    +0.233 C 
ATOM     18  N   UNL     1       2.472   5.862  -9.156  0.00  0.00    -0.213 N 
ATOM     19  C   UNL     1       1.221   5.891  -9.858  0.00  0.00    +0.329 C 
ATOM     20  N   UNL     1       0.872   4.714 -10.600  0.00  0.00    -0.188 NA
ATOM     21  O   UNL     1       0.916   6.967 -10.460  0.00  0.00    -0.250 OA
ATOM     22  O   UNL     1       3.264   4.641  -7.284  0.00  0.00    -0.274 OA
BRANCH  20  23
ATOM     23  C   UNL     1      -0.098   4.731 -11.682  0.00  0.00    +0.117 C 
ATOM     24  C   UNL     1       0.651   4.621 -12.982  0.00  0.00    +0.025 C 
ENDBRANCH  20  23
BRANCH  18  25
ATOM     25  C   UNL     1       3.632   5.742 -10.041  0.00  0.00    +0.104 C 
BRANCH  25  26
ATOM     26  C   UNL     1       4.361   7.080 -10.082  0.00  0.00    +0.039 C 
BRANCH  26  27
ATOM     27  C   UNL     1       5.629   7.015 -10.888  0.00  0.00    +0.074 C 
BRANCH  27  28
ATOM     28  N   UNL     1       6.350   5.773 -10.723  0.00  0.00    -0.270 NA
ATOM     29  C   UNL     1       6.901   5.369 -11.982  0.00  0.00    +0.090 C 
ATOM     30  C   UNL     1       7.365   5.827  -9.706  0.00  0.00    +0.090 C 
ENDBRANCH  27  28
ENDBRANCH  26  27
ENDBRANCH  25  26
ENDBRANCH  18  25
ENDBRANCH  14  17
BRANCH   1  31
ATOM     31  C   UNL     1      -1.322   5.213  -5.410  0.00  0.00    +0.099 C 
BRANCH  31  33
ATOM     32  C   UNL     1      -2.745   6.096  -6.367  0.00  0.00    -0.003 C 
ATOM     33  C   UNL     1      -2.359   5.922  -6.197  0.00  0.00    -0.009 C 
ENDBRANCH  31  33
ENDBRANCH   1  31
TORSDOF 8
ENDMDL
MODEL 5
REMARK VINA RESULT:      -8.2      1.555      3.679
REMARK  Name = 
REMARK  8 active torsions:
REMARK  status: ('A' for Active; 'I' for Inactive)
REMARK    1  A    between atoms: C_2  and  C_3
REMARK    2  A    between atoms: C_3  and  N_4
REMARK    3  A    between atoms: C_6  and  C_7
REMARK    4  A    between atoms: N_9  and  C_10
REMARK    5  A    between atoms: C_10  and  C_11
REMARK    6  A    between atoms: C_11  and  C_12
REMARK    7  A    between atoms: C_12  and  N_13
REMARK    8  A    between atoms: N_18  and  C_19
REMARK                            x       y       z     vdW  Elec       q    Type
REMARK                         _______ _______ _______ _____ _____    ______ ____
ROOT
ATOM      1  N   UNL     1       1.926   5.225 -10.111  0.00  0.00    -0.269 NA
ATOM      2  C   UNL     1       3.187   6.174 -10.189  0.00  0.00    +0.066 C 
ATOM      3  C   UNL     1       4.234   4.869  -9.754  0.00  0.00    +0.038 C 
ATOM      4  C   UNL     1       5.509   5.852  -9.749  0.00  0.00    -0.020 A 
ATOM      5  C   UNL     1       5.748   6.259 -11.050  0.00  0.00    +0.011 A 
ATOM      6  C   UNL     1       6.997   6.249 -11.645  0.00  0.00    +0.081 A 
ATOM      7  N   UNL     1       6.836   6.641 -12.933  0.00  0.00    -0.244 NA
ATOM      8  C   UNL     1       5.510   6.540 -13.202  0.00  0.00    +0.095 A 
ATOM      9  C   UNL     1       8.083   6.047 -10.813  0.00  0.00    +0.019 A 
ATOM     10  C   UNL     1       7.861   5.655  -9.499  0.00  0.00    +0.001 A 
ATOM     11  C   UNL     1       4.820   6.205 -12.054  0.00  0.00    -0.001 A 
ATOM     12  C   UNL     1       6.584   5.420  -9.000  0.00  0.00    -0.004 A 
ATOM     13  C   UNL     1       3.910   5.100  -8.163  0.00  0.00    +0.016 C 
ATOM     14  C   UNL     1       2.664   3.999  -8.184  0.00  0.00    +0.093 C 
ATOM     15  C   UNL     1       3.385   5.871 -11.797  0.00  0.00    +0.044 C 
ATOM     16  C   UNL     1       1.596   5.153  -8.716  0.00  0.00    +0.081 C 
ENDROOT
BRANCH  14  17
ATOM     17  C   UNL     1       2.222   4.252  -6.646  0.00  0.00    +0.233 C 
ATOM     18  N   UNL     1       2.168   5.506  -6.110  0.00  0.00    -0.213 N 
ATOM     19  C   UNL     1       3.221   6.478  -6.046  0.00  0.00    +0.329 C 
ATOM     20  N   UNL     1       3.935   6.571  -4.805  0.00  0.00    -0.188 NA
ATOM     21  O   UNL     1       3.002   7.610  -6.578  0.00  0.00    -0.250 OA
ATOM     22  O   UNL     1       2.134   3.135  -6.098  0.00  0.00    -0.274 OA
BRANCH  20  23
ATOM     23  C   UNL     1       4.697   7.750  -4.428  0.00  0.00    +0.117 C 
ATOM     24  C   UNL     1       6.069   7.301  -4.002  0.00  0.00    +0.025 C 
ENDBRANCH  20  23
BRANCH  18  25
ATOM     25  C   UNL     1       1.069   5.776  -5.182  0.00  0.00    +0.104 C 
BRANCH  25  26
ATOM     26  C   UNL     1       0.169   6.851  -5.780  0.00  0.00    +0.039 C 
BRANCH  26  27
ATOM     27  C   UNL     1      -1.150   6.953  -5.067  0.00  0.00    +0.074 C 
BRANCH  27  28
ATOM     28  N   UNL     1      -1.882   5.708  -5.034  0.00  0.00    -0.270 NA
ATOM     29  C   UNL     1      -2.733   5.683  -3.882  0.00  0.00    +0.090 C 
ATOM     30  C   UNL     1      -2.628   5.446  -6.236  0.00  0.00    +0.090 C 
ENDBRANCH  27  28
ENDBRANCH  26  27
ENDBRANCH  25  26
ENDBRANCH  18  25
ENDBRANCH  14  17
BRANCH   1  31
ATOM     31  C   UNL     1       0.905   5.931 -10.828  0.00  0.00    +0.099 C 
BRANCH  31  33
ATOM     32  C   UNL     1      -0.335   4.789 -11.764  0.00  0.00    -0.003 C 
ATOM     33  C   UNL     1       0.004   5.054 -11.612  0.00  0.00    -0.009 C 
ENDBRANCH  31  33
ENDBRANCH   1  31
TORSDOF 8
ENDMDL
MODEL 6
REMARK VINA RESULT:      -8.0      1.707      5.067
REMARK  Name = 
REMARK  8 active torsions:
REMARK  status: ('A' for Active; 'I' for Inactive)
REMARK    1  A    between atoms: C_2  and  C_3
REMARK    2  A    between atoms: C_3  and  N_4
REMARK    3  A    between atoms: C_6  and  C_7
REMARK    4  A    between atoms: N_9  and  C_10
REMARK    5  A    between atoms: C_10  and  C_11
REMARK    6  A    between atoms: C_11  and  C_12
REMARK    7  A    between atoms: C_12  and  N_13
REMARK    8  A    between atoms: N_18  and  C_19
REMARK                            x       y       z     vdW  Elec       q    Type
REMARK                         _______ _______ _______ _____ _____    ______ ____
ROOT
ATOM      1  N   UNL     1       4.402   5.603  -8.930  0.00  0.00    -0.269 NA
ATOM      2  C   UNL     1       3.523   5.087 -10.137  0.00  0.00    +0.066 C 
ATOM      3  C   UNL     1       2.595   6.545 -10.124  0.00  0.00    +0.038 C 
ATOM      4  C   UNL     1       1.644   5.988 -11.297  0.00  0.00    -0.020 A 
ATOM      5  C   UNL     1       2.394   5.896 -12.456  0.00  0.00    +0.011 A 
ATOM      6  C   UNL     1       1.974   6.368 -13.688  0.00  0.00    +0.081 A 
ATOM      7  N   UNL     1       2.989   6.172 -14.565  0.00  0.00    -0.244 NA
ATOM      8  C   UNL     1       4.097   5.929 -13.821  0.00  0.00    +0.095 A 
ATOM      9  C   UNL     1       0.644   6.731 -13.796  0.00  0.00    +0.019 A 
ATOM     10  C   UNL     1      -0.128   6.811 -12.645  0.00  0.00    +0.001 A 
ATOM     11  C   UNL     1       3.761   5.849 -12.485  0.00  0.00    -0.001 A 
ATOM     12  C   UNL     1       0.399   6.578 -11.379  0.00  0.00    -0.004 A 
ATOM     13  C   UNL     1       1.641   5.963  -8.923  0.00  0.00    +0.016 C 
ATOM     14  C   UNL     1       2.594   6.643  -7.741  0.00  0.00    +0.093 C 
ATOM     15  C   UNL     1       4.580   5.704 -11.242  0.00  0.00    +0.044 C 
ATOM     16  C   UNL     1       3.619   5.337  -7.756  0.00  0.00    +0.081 C 
ENDROOT
BRANCH  14  17
ATOM     17  C   UNL     1       1.758   6.014  -6.503  0.00  0.00    +0.233 C 
ATOM     18  N   UNL     1       1.938   6.447  -5.222  0.00  0.00    -0.213 N 
ATOM     19  C   UNL     1       3.160   6.488  -4.472  0.00  0.00    +0.329 C 
ATOM     20  N   UNL     1       3.391   5.406  -3.560  0.00  0.00    -0.188 NA
ATOM     21  O   UNL     1       3.522   7.614  -4.009  0.00  0.00    -0.250 OA
ATOM     22  O   UNL     1       1.126   5.034  -6.944  0.00  0.00    -0.274 OA
BRANCH  20  23
ATOM     23  C   UNL     1       4.318   5.507  -2.445  0.00  0.00    +0.117 C 
ATOM     24  C   UNL     1       3.753   4.719  -1.294  0.00  0.00    +0.025 C 
ENDBRANCH  20  23
BRANCH  18  25
ATOM     25  C   UNL     1       0.740   6.534  -4.385  0.00  0.00    +0.104 C 
BRANCH  25  26
ATOM     26  C   UNL     1      -0.250   7.493  -5.037  0.00  0.00    +0.039 C 
BRANCH  26  27
ATOM     27  C   UNL     1      -1.677   7.154  -4.705  0.00  0.00    +0.074 C 
BRANCH  27  28
ATOM     28  N   UNL     1      -1.989   5.754  -4.878  0.00  0.00    -0.270 NA
ATOM     29  C   UNL     1      -2.927   5.346  -3.875  0.00  0.00    +0.090 C 
ATOM     30  C   UNL     1      -2.466   5.429  -6.195  0.00  0.00    +0.090 C 
ENDBRANCH  27  28
ENDBRANCH  26  27
ENDBRANCH  25  26
ENDBRANCH  18  25
ENDBRANCH  14  17
BRANCH   1  31
ATOM     31  C   UNL     1       5.565   4.765  -8.953  0.00  0.00    +0.099 C 
BRANCH  31  33
ATOM     32  C   UNL     1       7.242   5.698  -9.141  0.00  0.00    -0.003 C 
ATOM     33  C   UNL     1       6.844   5.511  -9.021  0.00  0.00    -0.009 C 
ENDBRANCH  31  33
ENDBRANCH   1  31
TORSDOF 8
ENDMDL
MODEL 7
REMARK VINA RESULT:      -7.9      2.197      4.100
REMARK  Name = 
REMARK  8 active torsions:
REMARK  status: ('A' for Active; 'I' for Inactive)
REMARK    1  A    between atoms: C_2  and  C_3
REMARK    2  A    between atoms: C_3  and  N_4
REMARK    3  A    between atoms: C_6  and  C_7
REMARK    4  A    between atoms: N_9  and  C_10
REMARK    5  A    between atoms: C_10  and  C_11
REMARK    6  A    between atoms: C_11  and  C_12
REMARK    7  A    between atoms: C_12  and  N_13
REMARK    8  A    between atoms: N_18  and  C_19
REMARK                            x       y       z     vdW  Elec       q    Type
REMARK                         _______ _______ _______ _____ _____    ______ ____
ROOT
ATOM      1  N   UNL     1       0.685   5.839  -6.270  0.00  0.00    -0.269 NA
ATOM      2  C   UNL     1       1.658   6.546  -7.294  0.00  0.00    +0.066 C 
ATOM      3  C   UNL     1       2.774   5.231  -7.189  0.00  0.00    +0.038 C 
ATOM      4  C   UNL     1       3.806   5.987  -8.165  0.00  0.00    -0.020 A 
ATOM      5  C   UNL     1       3.242   6.050  -9.427  0.00  0.00    +0.011 A 
ATOM      6  C   UNL     1       3.914   5.720 -10.592  0.00  0.00    +0.081 A 
ATOM      7  N   UNL     1       3.032   5.832 -11.615  0.00  0.00    -0.244 NA
ATOM      8  C   UNL     1       1.797   5.873 -11.054  0.00  0.00    +0.095 A 
ATOM      9  C   UNL     1       5.283   5.550 -10.494  0.00  0.00    +0.019 A 
ATOM     10  C   UNL     1       5.869   5.502  -9.236  0.00  0.00    +0.001 A 
ATOM     11  C   UNL     1       1.905   5.912  -9.678  0.00  0.00    -0.001 A 
ATOM     12  C   UNL     1       5.121   5.579  -8.066  0.00  0.00    -0.004 A 
ATOM     13  C   UNL     1       3.433   5.859  -5.824  0.00  0.00    +0.016 C 
ATOM     14  C   UNL     1       2.415   4.981  -4.845  0.00  0.00    +0.093 C 
ATOM     15  C   UNL     1       0.889   5.863  -8.582  0.00  0.00    +0.044 C 
ATOM     16  C   UNL     1       1.227   6.133  -4.973  0.00  0.00    +0.081 C 
ENDROOT
BRANCH  14  17
ATOM     17  C   UNL     1       2.947   5.636  -3.461  0.00  0.00    +0.233 C 
ATOM     18  N   UNL     1       2.420   5.287  -2.252  0.00  0.00    -0.213 N 
ATOM     19  C   UNL     1       1.047   5.351  -1.841  0.00  0.00    +0.329 C 
ATOM     20  N   UNL     1       0.661   6.494  -1.066  0.00  0.00    -0.188 NA
ATOM     21  O   UNL     1       0.507   4.274  -1.440  0.00  0.00    -0.250 OA
ATOM     22  O   UNL     1       3.731   6.556  -3.765  0.00  0.00    -0.274 OA
BRANCH  20  23
ATOM     23  C   UNL     1      -0.525   6.505  -0.225  0.00  0.00    +0.117 C 
ATOM     24  C   UNL     1      -1.475   7.537  -0.769  0.00  0.00    +0.025 C 
ENDBRANCH  20  23
BRANCH  18  25
ATOM     25  C   UNL     1       3.357   5.188  -1.132  0.00  0.00    +0.104 C 
BRANCH  25  26
ATOM     26  C   UNL     1       4.154   6.484  -1.038  0.00  0.00    +0.039 C 
BRANCH  26  27
ATOM     27  C   UNL     1       4.091   7.095   0.335  0.00  0.00    +0.074 C 
BRANCH  27  28
ATOM     28  N   UNL     1       3.726   8.493   0.323  0.00  0.00    -0.270 NA
ATOM     29  C   UNL     1       3.670   8.961  -1.030  0.00  0.00    +0.090 C 
ATOM     30  C   UNL     1       2.500   8.773   1.020  0.00  0.00    +0.090 C 
ENDBRANCH  27  28
ENDBRANCH  26  27
ENDBRANCH  25  26
ENDBRANCH  18  25
ENDBRANCH  14  17
BRANCH   1  31
ATOM     31  C   UNL     1      -0.569   6.510  -6.449  0.00  0.00    +0.099 C 
BRANCH  31  33
ATOM     32  C   UNL     1      -2.160   5.425  -6.350  0.00  0.00    -0.003 C 
ATOM     33  C   UNL     1      -1.750   5.624  -6.325  0.00  0.00    -0.009 C 
ENDBRANCH  31  33
ENDBRANCH   1  31
TORSDOF 8
ENDMDL
MODEL 8
REMARK VINA RESULT:      -7.3      2.615      5.541
REMARK  Name = 
REMARK  8 active torsions:
REMARK  status: ('A' for Active; 'I' for Inactive)
REMARK    1  A    between atoms: C_2  and  C_3
REMARK    2  A    between atoms: C_3  and  N_4
REMARK    3  A    between atoms: C_6  and  C_7
REMARK    4  A    between atoms: N_9  and  C_10
REMARK    5  A    between atoms: C_10  and  C_11
REMARK    6  A    between atoms: C_11  and  C_12
REMARK    7  A    between atoms: C_12  and  N_13
REMARK    8  A    between atoms: N_18  and  C_19
REMARK                            x       y       z     vdW  Elec       q    Type
REMARK                         _______ _______ _______ _____ _____    ______ ____
ROOT
ATOM      1  N   UNL     1       2.965   6.500  -6.170  0.00  0.00    -0.269 NA
ATOM      2  C   UNL     1       2.771   5.625  -7.472  0.00  0.00    +0.066 C 
ATOM      3  C   UNL     1       1.462   6.628  -7.989  0.00  0.00    +0.038 C 
ATOM      4  C   UNL     1       1.208   5.690  -9.271  0.00  0.00    -0.020 A 
ATOM      5  C   UNL     1       2.290   5.818 -10.125  0.00  0.00    +0.011 A 
ATOM      6  C   UNL     1       2.178   6.028 -11.488  0.00  0.00    +0.081 A 
ATOM      7  N   UNL     1       3.433   6.175 -11.980  0.00  0.00    -0.244 NA
ATOM      8  C   UNL     1       4.238   6.408 -10.914  0.00  0.00    +0.095 A 
ATOM      9  C   UNL     1       0.922   5.860 -12.044  0.00  0.00    +0.019 A 
ATOM     10  C   UNL     1      -0.172   5.712 -11.203  0.00  0.00    +0.001 A 
ATOM     11  C   UNL     1       3.518   6.284  -9.742  0.00  0.00    -0.001 A 
ATOM     12  C   UNL     1      -0.057   5.766  -9.817  0.00  0.00    -0.004 A 
ATOM     13  C   UNL     1       0.413   5.802  -7.037  0.00  0.00    +0.016 C 
ATOM     14  C   UNL     1       0.625   6.855  -5.767  0.00  0.00    +0.093 C 
ATOM     15  C   UNL     1       3.867   6.528  -8.309  0.00  0.00    +0.044 C 
ATOM     16  C   UNL     1       1.969   6.029  -5.250  0.00  0.00    +0.081 C 
ENDROOT
BRANCH  14  17
ATOM     17  C   UNL     1      -0.318   6.032  -4.738  0.00  0.00    +0.233 C 
ATOM     18  N   UNL     1      -0.195   6.168  -3.386  0.00  0.00    -0.213 N 
ATOM     19  C   UNL     1       0.979   5.966  -2.587  0.00  0.00    +0.329 C 
ATOM     20  N   UNL     1       1.095   4.701  -1.922  0.00  0.00    -0.188 NA
ATOM     21  O   UNL     1       1.371   6.941  -1.873  0.00  0.00    -0.250 OA
ATOM     22  O   UNL     1      -0.973   5.213  -5.412  0.00  0.00    -0.274 OA
BRANCH  20  23
ATOM     23  C   UNL     1       1.956   4.500  -0.768  0.00  0.00    +0.117 C 
ATOM     24  C   UNL     1       3.373   4.376  -1.259  0.00  0.00    +0.025 C 
ENDBRANCH  20  23
BRANCH  18  25
ATOM     25  C   UNL     1      -1.436   6.151  -2.610  0.00  0.00    +0.104 C 
BRANCH  25  26
ATOM     26  C   UNL     1      -1.605   7.500  -1.919  0.00  0.00    +0.039 C 
BRANCH  26  27
ATOM     27  C   UNL     1      -1.758   7.363  -0.430  0.00  0.00    +0.074 C 
BRANCH  27  28
ATOM     28  N   UNL     1      -1.414   8.566   0.294  0.00  0.00    -0.270 NA
ATOM     29  C   UNL     1      -2.314   8.734   1.396  0.00  0.00    +0.090 C 
ATOM     30  C   UNL     1      -0.045   8.603   0.732  0.00  0.00    +0.090 C 
ENDBRANCH  27  28
ENDBRANCH  26  27
ENDBRANCH  25  26
ENDBRANCH  18  25
ENDBRANCH  14  17
BRANCH   1  31
ATOM     31  C   UNL     1       4.276   6.158  -5.703  0.00  0.00    +0.099 C 
BRANCH  31  33
ATOM     32  C   UNL     1       5.013   7.334  -4.364  0.00  0.00    -0.003 C 
ATOM     33  C   UNL     1       4.840   7.123  -4.730  0.00  0.00    -0.009 C 
ENDBRANCH  31  33
ENDBRANCH   1  31
TORSDOF 8
ENDMDL
MODEL 9
REMARK VINA RESULT:      -7.2      4.568      8.463
REMARK  Name = 
REMARK  8 active torsions:
REMARK  status: ('A' for Active; 'I' for Inactive)
REMARK    1  A    between atoms: C_2  and  C_3
REMARK    2  A    between atoms: C_3  and  N_4
REMARK    3  A    between atoms: C_6  and  C_7
REMARK    4  A    between atoms: N_9  and  C_10
REMARK    5  A    between atoms: C_10  and  C_11
REMARK    6  A    between atoms: C_11  and  C_12
REMARK    7  A    between atoms: C_12  and  N_13
REMARK    8  A    between atoms: N_18  and  C_19
REMARK                            x       y       z     vdW  Elec       q    Type
REMARK                         _______ _______ _______ _____ _____    ______ ____
ROOT
ATOM      1  N   UNL     1       3.143   6.496  -3.615  0.00  0.00    -0.269 NA
ATOM      2  C   UNL     1       2.112   5.498  -4.276  0.00  0.00    +0.066 C 
ATOM      3  C   UNL     1       0.832   6.643  -4.082  0.00  0.00    +0.038 C 
ATOM      4  C   UNL     1      -0.236   5.596  -4.677  0.00  0.00    -0.020 A 
ATOM      5  C   UNL     1       0.047   5.402  -6.017  0.00  0.00    +0.011 A 
ATOM      6  C   UNL     1      -0.906   5.434  -7.021  0.00  0.00    +0.081 A 
ATOM      7  N   UNL     1      -0.257   5.277  -8.201  0.00  0.00    -0.244 NA
ATOM      8  C   UNL     1       1.056   5.504  -7.950  0.00  0.00    +0.095 A 
ATOM      9  C   UNL     1      -2.231   5.425  -6.623  0.00  0.00    +0.019 A 
ATOM     10  C   UNL     1      -2.532   5.601  -5.280  0.00  0.00    +0.001 A 
ATOM     11  C   UNL     1       1.254   5.682  -6.595  0.00  0.00    -0.001 A 
ATOM     12  C   UNL     1      -1.549   5.827  -4.322  0.00  0.00    -0.004 A 
ATOM     13  C   UNL     1       0.601   6.166  -2.530  0.00  0.00    +0.016 C 
ATOM     14  C   UNL     1       1.636   7.330  -1.945  0.00  0.00    +0.093 C 
ATOM     15  C   UNL     1       2.457   6.056  -5.789  0.00  0.00    +0.044 C 
ATOM     16  C   UNL     1       2.951   6.351  -2.200  0.00  0.00    +0.081 C 
ENDROOT
BRANCH  14  17
ATOM     17  C   UNL     1       1.536   6.848  -0.401  0.00  0.00    +0.233 C 
ATOM     18  N   UNL     1       1.009   7.651   0.570  0.00  0.00    -0.213 N 
ATOM     19  C   UNL     1       1.423   8.976   0.932  0.00  0.00    +0.329 C 
ATOM     20  N   UNL     1       2.287   9.090   2.071  0.00  0.00    -0.188 NA
ATOM     21  O   UNL     1       0.547   9.894   0.879  0.00  0.00    -0.250 OA
ATOM     22  O   UNL     1       2.152   5.768  -0.310  0.00  0.00    -0.274 OA
BRANCH  20  23
ATOM     23  C   UNL     1       2.438  10.328   2.817  0.00  0.00    +0.117 C 
ATOM     24  C   UNL     1       3.592  11.092   2.226  0.00  0.00    +0.025 C 
ENDBRANCH  20  23
BRANCH  18  25
ATOM     25  C   UNL     1       0.199   6.994   1.596  0.00  0.00    +0.104 C 
BRANCH  25  26
ATOM     26  C   UNL     1      -1.263   7.021   1.164  0.00  0.00    +0.039 C 
BRANCH  26  27
ATOM     27  C   UNL     1      -2.199   6.685   2.292  0.00  0.00    +0.074 C 
BRANCH  27  28
ATOM     28  N   UNL     1      -2.662   7.846   3.017  0.00  0.00    -0.270 NA
ATOM     29  C   UNL     1      -2.773   8.957   2.119  0.00  0.00    +0.090 C 
ATOM     30  C   UNL     1      -3.893   7.628   3.727  0.00  0.00    +0.090 C 
ENDBRANCH  27  28
ENDBRANCH  26  27
ENDBRANCH  25  26
ENDBRANCH  18  25
ENDBRANCH  14  17
BRANCH   1  31
ATOM     31  C   UNL     1       4.428   5.986  -3.998  0.00  0.00    +0.099 C 
BRANCH  31  33
ATOM     32  C   UNL     1       5.735   7.401  -4.096  0.00  0.00    -0.003 C 
ATOM     33  C   UNL     1       5.474   7.028  -4.128  0.00  0.00    -0.009 C 
ENDBRANCH  31  33
ENDBRANCH   1  31
TORSDOF 8
ENDMDL
