MODEL 1
REMARK VINA RESULT:      -7.9      0.000      0.000
REMARK  Name = 
REMARK  4 active torsions:
REMARK  status: ('A' for Active; 'I' for Inactive)
REMARK    1  A    between atoms: C_2  and  N_3
REMARK    2  A    between atoms: N_3  and  C_7
REMARK    3  A    between atoms: C_11  and  C_12
REMARK    4  A    between atoms: C_17  and  C_18
REMARK                            x       y       z     vdW  Elec       q    Type
REMARK                         _______ _______ _______ _____ _____    ______ ____
ROOT
ATOM      1  C   UNL     1       3.297   6.016  -9.550  0.00  0.00    +0.054 A 
ATOM      2  C   UNL     1       2.669   6.570  -8.441  0.00  0.00    +0.016 A 
ATOM      3  C   UNL     1       1.343   6.289  -8.131  0.00  0.00    +0.019 A 
ATOM      4  C   UNL     1       0.587   5.765  -9.173  0.00  0.00    +0.002 A 
ATOM      5  C   UNL     1       1.196   5.153 -10.261  0.00  0.00    +0.001 A 
ATOM      6  C   UNL     1       2.571   5.242 -10.446  0.00  0.00    +0.015 A 
ENDROOT
BRANCH   3   7
ATOM      7  C   UNL     1       0.988   6.063  -6.724  0.00  0.00    +0.086 A 
ATOM      8  N   UNL     1      -0.287   5.888  -6.324  0.00  0.00    -0.211 N 
ATOM      9  C   UNL     1      -0.608   6.149  -5.041  0.00  0.00    +0.175 A 
ATOM     10  C   UNL     1      -1.916   5.719  -4.853  0.00  0.00    +0.125 A 
ATOM     11  C   UNL     1      -2.380   5.413  -6.123  0.00  0.00    +0.134 A 
ATOM     12  N   UNL     1       0.289   6.729  -4.211  0.00  0.00    -0.224 NA
ATOM     13  C   UNL     1       1.605   6.489  -4.429  0.00  0.00    +0.102 A 
ATOM     14  N   UNL     1      -1.432   5.823  -7.000  0.00  0.00    -0.161 NA
ATOM     15  C   UNL     1       1.948   6.143  -5.724  0.00  0.00    +0.040 A 
BRANCH  10  16
ATOM     16  C   UNL     1      -2.499   5.292  -3.604  0.00  0.00    +0.105 C 
ATOM     17  N   UNL     1      -2.769   4.977  -2.513  0.00  0.00    -0.191 NA
ENDBRANCH  10  16
ENDBRANCH   3   7
BRANCH   1  18
ATOM     18  N   UNL     1       4.680   6.252  -9.804  0.00  0.00    -0.259 N 
ATOM     19  C   UNL     1       5.670   5.583  -9.049  0.00  0.00    +0.230 C 
ATOM     20  O   UNL     1       5.352   4.738  -8.184  0.00  0.00    -0.275 OA
ATOM     21  C   UNL     1       7.106   5.722  -9.374  0.00  0.00    +0.095 C 
BRANCH  18  23
ATOM     22  C   UNL     1       5.352   6.666 -12.100  0.00  0.00    +0.024 C 
ATOM     23  C   UNL     1       5.040   7.290 -10.747  0.00  0.00    +0.098 C 
ENDBRANCH  18  23
ENDBRANCH   1  18
TORSDOF 4
ENDMDL
MODEL 2
REMARK VINA RESULT:      -7.9      2.612      7.381
REMARK  Name = 
REMARK  4 active torsions:
REMARK  status: ('A' for Active; 'I' for Inactive)
REMARK    1  A    between atoms: C_2  and  N_3
REMARK    2  A    between atoms: N_3  and  C_7
REMARK    3  A    between atoms: C_11  and  C_12
REMARK    4  A    between atoms: C_17  and  C_18
REMARK                            x       y       z     vdW  Elec       q    Type
REMARK                         _______ _______ _______ _____ _____    ______ ____
ROOT
ATOM      1  C   UNL     1      -1.083   5.603  -4.433  0.00  0.00    +0.054 A 
ATOM      2  C   UNL     1       0.214   5.264  -4.804  0.00  0.00    +0.016 A 
ATOM      3  C   UNL     1       0.630   5.298  -6.130  0.00  0.00    +0.019 A 
ATOM      4  C   UNL     1      -0.390   5.298  -7.074  0.00  0.00    +0.002 A 
ATOM      5  C   UNL     1      -1.679   5.692  -6.735  0.00  0.00    +0.001 A 
ATOM      6  C   UNL     1      -2.034   5.883  -5.405  0.00  0.00    +0.015 A 
ENDROOT
BRANCH   3   7
ATOM      7  C   UNL     1       1.964   5.833  -6.429  0.00  0.00    +0.086 A 
ATOM      8  N   UNL     1       2.781   5.261  -7.336  0.00  0.00    -0.211 N 
ATOM      9  C   UNL     1       4.109   5.479  -7.244  0.00  0.00    +0.175 A 
ATOM     10  C   UNL     1       4.689   4.937  -8.384  0.00  0.00    +0.125 A 
ATOM     11  C   UNL     1       3.673   4.223  -9.001  0.00  0.00    +0.134 A 
ATOM     12  N   UNL     1       4.628   6.123  -6.174  0.00  0.00    -0.224 NA
ATOM     13  C   UNL     1       3.857   7.048  -5.552  0.00  0.00    +0.102 A 
ATOM     14  N   UNL     1       2.619   4.221  -8.150  0.00  0.00    -0.161 NA
ATOM     15  C   UNL     1       2.491   6.888  -5.696  0.00  0.00    +0.040 A 
BRANCH  10  16
ATOM     16  C   UNL     1       5.926   5.364  -8.993  0.00  0.00    +0.105 C 
ATOM     17  N   UNL     1       6.992   5.743  -9.280  0.00  0.00    -0.191 NA
ENDBRANCH  10  16
ENDBRANCH   3   7
BRANCH   1  18
ATOM     18  N   UNL     1      -1.466   5.640  -3.060  0.00  0.00    -0.259 N 
ATOM     19  C   UNL     1      -0.512   5.937  -2.059  0.00  0.00    +0.230 C 
ATOM     20  O   UNL     1       0.668   6.220  -2.364  0.00  0.00    -0.275 OA
ATOM     21  C   UNL     1      -0.911   6.098  -0.644  0.00  0.00    +0.095 C 
BRANCH  18  23
ATOM     22  C   UNL     1      -3.704   6.458  -2.598  0.00  0.00    +0.024 C 
ATOM     23  C   UNL     1      -2.808   5.232  -2.708  0.00  0.00    +0.098 C 
ENDBRANCH  18  23
ENDBRANCH   1  18
TORSDOF 4
ENDMDL
MODEL 3
REMARK VINA RESULT:      -7.8      2.570      4.690
REMARK  Name = 
REMARK  4 active torsions:
REMARK  status: ('A' for Active; 'I' for Inactive)
REMARK    1  A    between atoms: C_2  and  N_3
REMARK    2  A    between atoms: N_3  and  C_7
REMARK    3  A    between atoms: C_11  and  C_12
REMARK    4  A    between atoms: C_17  and  C_18
REMARK                            x       y       z     vdW  Elec       q    Type
REMARK                         _______ _______ _______ _____ _____    ______ ____
ROOT
ATOM      1  C   UNL     1       0.395   5.793  -7.091  0.00  0.00    +0.054 A 
ATOM      2  C   UNL     1       0.640   6.458  -5.895  0.00  0.00    +0.016 A 
ATOM      3  C   UNL     1      -0.323   6.555  -4.898  0.00  0.00    +0.019 A 
ATOM      4  C   UNL     1      -1.629   6.310  -5.307  0.00  0.00    +0.002 A 
ATOM      5  C   UNL     1      -1.893   5.593  -6.467  0.00  0.00    +0.001 A 
ATOM      6  C   UNL     1      -0.872   5.295  -7.362  0.00  0.00    +0.015 A 
ENDROOT
BRANCH   3   7
ATOM      7  C   UNL     1       0.098   6.385  -3.502  0.00  0.00    +0.086 A 
ATOM      8  N   UNL     1       1.391   6.454  -3.127  0.00  0.00    -0.211 N 
ATOM      9  C   UNL     1       1.770   5.851  -1.983  0.00  0.00    +0.175 A 
ATOM     10  C   UNL     1       3.087   6.224  -1.743  0.00  0.00    +0.125 A 
ATOM     11  C   UNL     1       3.493   6.874  -2.899  0.00  0.00    +0.134 A 
ATOM     12  N   UNL     1       0.911   5.055  -1.307  0.00  0.00    -0.224 NA
ATOM     13  C   UNL     1      -0.413   5.334  -1.389  0.00  0.00    +0.102 A 
ATOM     14  N   UNL     1       2.504   6.715  -3.810  0.00  0.00    -0.161 NA
ATOM     15  C   UNL     1      -0.815   6.022  -2.520  0.00  0.00    +0.040 A 
BRANCH  10  16
ATOM     16  C   UNL     1       3.729   6.294  -0.453  0.00  0.00    +0.105 C 
ATOM     17  N   UNL     1       4.391   6.482   0.489  0.00  0.00    -0.191 NA
ENDBRANCH  10  16
ENDBRANCH   3   7
BRANCH   1  18
ATOM     18  N   UNL     1       1.423   5.635  -8.066  0.00  0.00    -0.259 N 
ATOM     19  C   UNL     1       2.326   4.550  -7.984  0.00  0.00    +0.230 C 
ATOM     20  O   UNL     1       2.208   3.687  -7.087  0.00  0.00    -0.275 OA
ATOM     21  C   UNL     1       3.323   4.301  -9.048  0.00  0.00    +0.095 C 
BRANCH  18  23
ATOM     22  C   UNL     1       0.619   6.486 -10.192  0.00  0.00    +0.024 C 
ATOM     23  C   UNL     1       1.606   6.680  -9.050  0.00  0.00    +0.098 C 
ENDBRANCH  18  23
ENDBRANCH   1  18
TORSDOF 4
ENDMDL
MODEL 4
REMARK VINA RESULT:      -7.8      3.223      5.067
REMARK  Name = 
REMARK  4 active torsions:
REMARK  status: ('A' for Active; 'I' for Inactive)
REMARK    1  A    between atoms: C_2  and  N_3
REMARK    2  A    between atoms: N_3  and  C_7
REMARK    3  A    between atoms: C_11  and  C_12
REMARK    4  A    between atoms: C_17  and  C_18
REMARK                            x       y       z     vdW  Elec       q    Type
REMARK                         _______ _______ _______ _____ _____    ______ ____
ROOT
ATOM      1  C   UNL     1      -0.053   5.657  -6.210  0.00  0.00    +0.054 A 
ATOM      2  C   UNL     1       0.240   6.178  -4.955  0.00  0.00    +0.016 A 
ATOM      3  C   UNL     1      -0.730   6.304  -3.967  0.00  0.00    +0.019 A 
ATOM      4  C   UNL     1      -2.044   6.259  -4.416  0.00  0.00    +0.002 A 
ATOM      5  C   UNL     1      -2.364   5.686  -5.640  0.00  0.00    +0.001 A 
ATOM      6  C   UNL     1      -1.365   5.344  -6.544  0.00  0.00    +0.015 A 
ENDROOT
BRANCH   3   7
ATOM      7  C   UNL     1      -0.368   5.961  -2.587  0.00  0.00    +0.086 A 
ATOM      8  N   UNL     1      -0.804   6.676  -1.530  0.00  0.00    -0.211 N 
ATOM      9  C   UNL     1      -0.105   6.628  -0.378  0.00  0.00    +0.175 A 
ATOM     10  C   UNL     1      -0.856   7.294   0.582  0.00  0.00    +0.125 A 
ATOM     11  C   UNL     1      -1.886   7.899  -0.123  0.00  0.00    +0.134 A 
ATOM     12  N   UNL     1       1.096   6.007  -0.328  0.00  0.00    -0.224 NA
ATOM     13  C   UNL     1       1.307   4.962  -1.164  0.00  0.00    +0.102 A 
ATOM     14  N   UNL     1      -1.620   7.724  -1.439  0.00  0.00    -0.161 NA
ATOM     15  C   UNL     1       0.544   4.950  -2.318  0.00  0.00    +0.040 A 
BRANCH  10  16
ATOM     16  C   UNL     1      -0.817   7.059   2.005  0.00  0.00    +0.105 C 
ATOM     17  N   UNL     1      -0.569   6.893   3.133  0.00  0.00    -0.191 NA
ENDBRANCH  10  16
ENDBRANCH   3   7
BRANCH   1  18
ATOM     18  N   UNL     1       0.973   5.460  -7.181  0.00  0.00    -0.259 N 
ATOM     19  C   UNL     1       1.848   4.354  -7.082  0.00  0.00    +0.230 C 
ATOM     20  O   UNL     1       1.706   3.505  -6.174  0.00  0.00    -0.275 OA
ATOM     21  C   UNL     1       2.840   4.065  -8.140  0.00  0.00    +0.095 C 
BRANCH  18  23
ATOM     22  C   UNL     1       2.106   7.561  -7.618  0.00  0.00    +0.024 C 
ATOM     23  C   UNL     1       1.184   6.487  -8.178  0.00  0.00    +0.098 C 
ENDBRANCH  18  23
ENDBRANCH   1  18
TORSDOF 4
ENDMDL
MODEL 5
REMARK VINA RESULT:      -7.7      2.093      3.788
REMARK  Name = 
REMARK  4 active torsions:
REMARK  status: ('A' for Active; 'I' for Inactive)
REMARK    1  A    between atoms: C_2  and  N_3
REMARK    2  A    between atoms: N_3  and  C_7
REMARK    3  A    between atoms: C_11  and  C_12
REMARK    4  A    between atoms: C_17  and  C_18
REMARK                            x       y       z     vdW  Elec       q    Type
REMARK                         _______ _______ _______ _____ _____    ______ ____
ROOT
ATOM      1  C   UNL     1       5.885   5.845 -10.626  0.00  0.00    +0.054 A 
ATOM      2  C   UNL     1       4.543   5.490 -10.565  0.00  0.00    +0.016 A 
ATOM      3  C   UNL     1       3.927   5.151  -9.366  0.00  0.00    +0.019 A 
ATOM      4  C   UNL     1       4.789   4.807  -8.332  0.00  0.00    +0.002 A 
ATOM      5  C   UNL     1       6.120   5.206  -8.346  0.00  0.00    +0.001 A 
ATOM      6  C   UNL     1       6.678   5.765  -9.489  0.00  0.00    +0.015 A 
ENDROOT
BRANCH   3   7
ATOM      7  C   UNL     1       2.571   5.651  -9.112  0.00  0.00    +0.086 A 
ATOM      8  N   UNL     1       1.834   5.233  -8.063  0.00  0.00    -0.211 N 
ATOM      9  C   UNL     1       0.492   5.341  -8.125  0.00  0.00    +0.175 A 
ATOM     10  C   UNL     1      -0.001   5.016  -6.868  0.00  0.00    +0.125 A 
ATOM     11  C   UNL     1       1.089   4.515  -6.172  0.00  0.00    +0.134 A 
ATOM     12  N   UNL     1      -0.116   5.710  -9.276  0.00  0.00    -0.224 NA
ATOM     13  C   UNL     1       0.559   6.531 -10.118  0.00  0.00    +0.102 A 
ATOM     14  N   UNL     1       2.105   4.400  -7.060  0.00  0.00    -0.161 NA
ATOM     15  C   UNL     1       1.939   6.492 -10.018  0.00  0.00    +0.040 A 
BRANCH  10  16
ATOM     16  C   UNL     1      -1.240   5.483  -6.294  0.00  0.00    +0.105 C 
ATOM     17  N   UNL     1      -2.274   5.952  -6.026  0.00  0.00    -0.191 NA
ENDBRANCH  10  16
ENDBRANCH   3   7
BRANCH   1  18
ATOM     18  N   UNL     1       6.477   6.269 -11.853  0.00  0.00    -0.259 N 
ATOM     19  C   UNL     1       7.441   5.461 -12.498  0.00  0.00    +0.230 C 
ATOM     20  O   UNL     1       7.754   4.343 -12.032  0.00  0.00    -0.275 OA
ATOM     21  C   UNL     1       7.979   5.823 -13.828  0.00  0.00    +0.095 C 
BRANCH  18  23
ATOM     22  C   UNL     1       6.549   8.628 -11.288  0.00  0.00    +0.024 C 
ATOM     23  C   UNL     1       6.173   7.596 -12.342  0.00  0.00    +0.098 C 
ENDBRANCH  18  23
ENDBRANCH   1  18
TORSDOF 4
ENDMDL
MODEL 6
REMARK VINA RESULT:      -7.7      2.111      7.849
REMARK  Name = 
REMARK  4 active torsions:
REMARK  status: ('A' for Active; 'I' for Inactive)
REMARK    1  A    between atoms: C_2  and  N_3
REMARK    2  A    between atoms: N_3  and  C_7
REMARK    3  A    between atoms: C_11  and  C_12
REMARK    4  A    between atoms: C_17  and  C_18
REMARK                            x       y       z     vdW  Elec       q    Type
REMARK                         _______ _______ _______ _____ _____    ______ ____
ROOT
ATOM      1  C   UNL     1       1.665   5.770  -6.004  0.00  0.00    +0.054 A 
ATOM      2  C   UNL     1       2.289   6.267  -7.142  0.00  0.00    +0.016 A 
ATOM      3  C   UNL     1       3.602   5.939  -7.463  0.00  0.00    +0.019 A 
ATOM      4  C   UNL     1       4.360   5.432  -6.414  0.00  0.00    +0.002 A 
ATOM      5  C   UNL     1       3.753   4.875  -5.295  0.00  0.00    +0.001 A 
ATOM      6  C   UNL     1       2.385   5.009  -5.092  0.00  0.00    +0.015 A 
ENDROOT
BRANCH   3   7
ATOM      7  C   UNL     1       3.927   5.655  -8.865  0.00  0.00    +0.086 A 
ATOM      8  N   UNL     1       5.193   5.679  -9.329  0.00  0.00    -0.211 N 
ATOM      9  C   UNL     1       5.400   5.876 -10.646  0.00  0.00    +0.175 A 
ATOM     10  C   UNL     1       6.755   5.677 -10.879  0.00  0.00    +0.125 A 
ATOM     11  C   UNL     1       7.327   5.578  -9.620  0.00  0.00    +0.134 A 
ATOM     12  N   UNL     1       4.373   6.205 -11.463  0.00  0.00    -0.224 NA
ATOM     13  C   UNL     1       3.137   5.749 -11.145  0.00  0.00    +0.102 A 
ATOM     14  N   UNL     1       6.360   5.886  -8.722  0.00  0.00    -0.161 NA
ATOM     15  C   UNL     1       2.925   5.467  -9.807  0.00  0.00    +0.040 A 
BRANCH  10  16
ATOM     16  C   UNL     1       7.350   5.251 -12.123  0.00  0.00    +0.105 C 
ATOM     17  N   UNL     1       7.627   4.848 -13.183  0.00  0.00    -0.191 NA
ENDBRANCH  10  16
ENDBRANCH   3   7
BRANCH   1  18
ATOM     18  N   UNL     1       0.293   6.054  -5.737  0.00  0.00    -0.259 N 
ATOM     19  C   UNL     1      -0.710   5.650  -6.648  0.00  0.00    +0.230 C 
ATOM     20  O   UNL     1      -0.418   4.997  -7.673  0.00  0.00    -0.275 OA
ATOM     21  C   UNL     1      -2.145   5.827  -6.335  0.00  0.00    +0.095 C 
BRANCH  18  23
ATOM     22  C   UNL     1      -0.369   5.995  -3.403  0.00  0.00    +0.024 C 
ATOM     23  C   UNL     1      -0.030   6.880  -4.594  0.00  0.00    +0.098 C 
ENDBRANCH  18  23
ENDBRANCH   1  18
TORSDOF 4
ENDMDL
MODEL 7
REMARK VINA RESULT:      -7.6      2.748      7.025
REMARK  Name = 
REMARK  4 active torsions:
REMARK  status: ('A' for Active; 'I' for Inactive)
REMARK    1  A    between atoms: C_2  and  N_3
REMARK    2  A    between atoms: N_3  and  C_7
REMARK    3  A    between atoms: C_11  and  C_12
REMARK    4  A    between atoms: C_17  and  C_18
REMARK                            x       y       z     vdW  Elec       q    Type
REMARK                         _______ _______ _______ _____ _____    ______ ____
ROOT
ATOM      1  C   UNL     1       0.858   5.537  -6.237  0.00  0.00    +0.054 A 
ATOM      2  C   UNL     1       1.633   6.261  -7.136  0.00  0.00    +0.016 A 
ATOM      3  C   UNL     1       2.613   5.656  -7.915  0.00  0.00    +0.019 A 
ATOM      4  C   UNL     1       3.037   4.408  -7.472  0.00  0.00    +0.002 A 
ATOM      5  C   UNL     1       2.248   3.644  -6.622  0.00  0.00    +0.001 A 
ATOM      6  C   UNL     1       1.123   4.191  -6.018  0.00  0.00    +0.015 A 
ENDROOT
BRANCH   3   7
ATOM      7  C   UNL     1       2.743   6.067  -9.317  0.00  0.00    +0.086 A 
ATOM      8  N   UNL     1       1.891   5.644 -10.273  0.00  0.00    -0.211 N 
ATOM      9  C   UNL     1       2.297   5.653 -11.558  0.00  0.00    +0.175 A 
ATOM     10  C   UNL     1       1.189   5.349 -12.338  0.00  0.00    +0.125 A 
ATOM     11  C   UNL     1       0.210   4.960 -11.436  0.00  0.00    +0.134 A 
ATOM     12  N   UNL     1       3.585   5.925 -11.871  0.00  0.00    -0.224 NA
ATOM     13  C   UNL     1       4.277   6.753 -11.051  0.00  0.00    +0.102 A 
ATOM     14  N   UNL     1       0.802   4.879 -10.220  0.00  0.00    -0.161 NA
ATOM     15  C   UNL     1       3.830   6.819  -9.743  0.00  0.00    +0.040 A 
BRANCH  10  16
ATOM     16  C   UNL     1       0.977   5.751 -13.708  0.00  0.00    +0.105 C 
ATOM     17  N   UNL     1       0.941   5.910 -14.863  0.00  0.00    -0.191 NA
ENDBRANCH  10  16
ENDBRANCH   3   7
BRANCH   1  18
ATOM     18  N   UNL     1      -0.196   6.162  -5.509  0.00  0.00    -0.259 N 
ATOM     19  C   UNL     1      -1.528   6.092  -5.977  0.00  0.00    +0.230 C 
ATOM     20  O   UNL     1      -1.810   5.441  -7.008  0.00  0.00    -0.275 OA
ATOM     21  C   UNL     1      -2.651   6.629  -5.178  0.00  0.00    +0.095 C 
BRANCH  18  23
ATOM     22  C   UNL     1       0.326   6.098  -3.139  0.00  0.00    +0.024 C 
ATOM     23  C   UNL     1       0.147   6.981  -4.366  0.00  0.00    +0.098 C 
ENDBRANCH  18  23
ENDBRANCH   1  18
TORSDOF 4
ENDMDL
MODEL 8
REMARK VINA RESULT:      -7.6      1.956      2.901
REMARK  Name = 
REMARK  4 active torsions:
REMARK  status: ('A' for Active; 'I' for Inactive)
REMARK    1  A    between atoms: C_2  and  N_3
REMARK    2  A    between atoms: N_3  and  C_7
REMARK    3  A    between atoms: C_11  and  C_12
REMARK    4  A    between atoms: C_17  and  C_18
REMARK                            x       y       z     vdW  Elec       q    Type
REMARK                         _______ _______ _______ _____ _____    ______ ____
ROOT
ATOM      1  C   UNL     1       3.890   6.301 -10.183  0.00  0.00    +0.054 A 
ATOM      2  C   UNL     1       3.381   6.778  -8.981  0.00  0.00    +0.016 A 
ATOM      3  C   UNL     1       2.015   6.816  -8.725  0.00  0.00    +0.019 A 
ATOM      4  C   UNL     1       1.198   6.733  -9.846  0.00  0.00    +0.002 A 
ATOM      5  C   UNL     1       1.672   6.202 -11.039  0.00  0.00    +0.001 A 
ATOM      6  C   UNL     1       3.027   5.946 -11.211  0.00  0.00    +0.015 A 
ENDROOT
BRANCH   3   7
ATOM      7  C   UNL     1       1.544   6.427  -7.390  0.00  0.00    +0.086 A 
ATOM      8  N   UNL     1       2.283   6.626  -6.280  0.00  0.00    -0.211 N 
ATOM      9  C   UNL     1       2.043   5.866  -5.193  0.00  0.00    +0.175 A 
ATOM     10  C   UNL     1       2.801   6.390  -4.154  0.00  0.00    +0.125 A 
ATOM     11  C   UNL     1       3.632   7.326  -4.752  0.00  0.00    +0.134 A 
ATOM     12  N   UNL     1       1.192   4.817  -5.262  0.00  0.00    -0.224 NA
ATOM     13  C   UNL     1       0.165   4.887  -6.143  0.00  0.00    +0.102 A 
ATOM     14  N   UNL     1       3.468   7.203  -6.091  0.00  0.00    -0.161 NA
ATOM     15  C   UNL     1       0.359   5.722  -7.229  0.00  0.00    +0.040 A 
BRANCH  10  16
ATOM     16  C   UNL     1       2.499   6.291  -2.747  0.00  0.00    +0.105 C 
ATOM     17  N   UNL     1       2.139   6.394  -1.642  0.00  0.00    -0.191 NA
ENDBRANCH  10  16
ENDBRANCH   3   7
BRANCH   1  18
ATOM     18  N   UNL     1       5.297   6.194 -10.393  0.00  0.00    -0.259 N 
ATOM     19  C   UNL     1       6.129   5.640  -9.393  0.00  0.00    +0.230 C 
ATOM     20  O   UNL     1       5.641   5.190  -8.333  0.00  0.00    -0.275 OA
ATOM     21  C   UNL     1       7.570   5.411  -9.636  0.00  0.00    +0.095 C 
BRANCH  18  23
ATOM     22  C   UNL     1       6.319   8.211 -11.276  0.00  0.00    +0.024 C 
ATOM     23  C   UNL     1       5.863   6.792 -11.583  0.00  0.00    +0.098 C 
ENDBRANCH  18  23
ENDBRANCH   1  18
TORSDOF 4
ENDMDL
MODEL 9
REMARK VINA RESULT:      -7.6      2.315      2.865
REMARK  Name = 
REMARK  4 active torsions:
REMARK  status: ('A' for Active; 'I' for Inactive)
REMARK    1  A    between atoms: C_2  and  N_3
REMARK    2  A    between atoms: N_3  and  C_7
REMARK    3  A    between atoms: C_11  and  C_12
REMARK    4  A    between atoms: C_17  and  C_18
REMARK                            x       y       z     vdW  Elec       q    Type
REMARK                         _______ _______ _______ _____ _____    ______ ____
ROOT
ATOM      1  C   UNL     1       4.202   5.523  -9.023  0.00  0.00    +0.054 A 
ATOM      2  C   UNL     1       3.767   6.267  -7.932  0.00  0.00    +0.016 A 
ATOM      3  C   UNL     1       2.958   5.718  -6.944  0.00  0.00    +0.019 A 
ATOM      4  C   UNL     1       2.300   4.546  -7.299  0.00  0.00    +0.002 A 
ATOM      5  C   UNL     1       2.756   3.758  -8.348  0.00  0.00    +0.001 A 
ATOM      6  C   UNL     1       3.743   4.226  -9.207  0.00  0.00    +0.015 A 
ENDROOT
BRANCH   3   7
ATOM      7  C   UNL     1       3.238   6.058  -5.544  0.00  0.00    +0.086 A 
ATOM      8  N   UNL     1       2.311   5.927  -4.573  0.00  0.00    -0.211 N 
ATOM      9  C   UNL     1       2.439   6.659  -3.449  0.00  0.00    +0.175 A 
ATOM     10  C   UNL     1       1.475   6.206  -2.557  0.00  0.00    +0.125 A 
ATOM     11  C   UNL     1       0.671   5.353  -3.298  0.00  0.00    +0.134 A 
ATOM     12  N   UNL     1       3.382   7.624  -3.359  0.00  0.00    -0.224 NA
ATOM     13  C   UNL     1       4.529   7.460  -4.062  0.00  0.00    +0.102 A 
ATOM     14  N   UNL     1       1.063   5.464  -4.590  0.00  0.00    -0.161 NA
ATOM     15  C   UNL     1       4.440   6.648  -5.179  0.00  0.00    +0.040 A 
BRANCH  10  16
ATOM     16  C   UNL     1       1.550   6.274  -1.117  0.00  0.00    +0.105 C 
ATOM     17  N   UNL     1       1.416   6.227   0.041  0.00  0.00    -0.191 NA
ENDBRANCH  10  16
ENDBRANCH   3   7
BRANCH   1  18
ATOM     18  N   UNL     1       5.098   6.082  -9.982  0.00  0.00    -0.259 N 
ATOM     19  C   UNL     1       6.496   5.950  -9.816  0.00  0.00    +0.230 C 
ATOM     20  O   UNL     1       6.967   5.300  -8.857  0.00  0.00    -0.275 OA
ATOM     21  C   UNL     1       7.438   6.417 -10.856  0.00  0.00    +0.095 C 
BRANCH  18  23
ATOM     22  C   UNL     1       4.126   6.017 -12.205  0.00  0.00    +0.024 C 
ATOM     23  C   UNL     1       4.550   6.902 -11.041  0.00  0.00    +0.098 C 
ENDBRANCH  18  23
ENDBRANCH   1  18
TORSDOF 4
ENDMDL
