MODEL 1
REMARK VINA RESULT:      -9.4      0.000      0.000
REMARK  Name = 
REMARK  3 active torsions:
REMARK  status: ('A' for Active; 'I' for Inactive)
REMARK    1  A    between atoms: C_2  and  C_3
REMARK    2  A    between atoms: C_2  and  C_12
REMARK    3  A    between atoms: C_6  and  C_7
REMARK                            x       y       z     vdW  Elec       q    Type
REMARK                         _______ _______ _______ _____ _____    ______ ____
ROOT
ATOM      1  C   UNL     1       1.752   6.454  -5.767  0.00  0.00    -0.004 A 
ATOM      2  C   UNL     1       2.412   6.643  -4.559  0.00  0.00    -0.022 A 
ATOM      3  C   UNL     1       3.646   7.466  -4.522  0.00  0.00    +0.031 C 
ATOM      4  C   UNL     1       1.653   6.513  -3.415  0.00  0.00    -0.009 A 
ATOM      5  C   UNL     1       0.279   6.365  -3.440  0.00  0.00    -0.027 A 
ATOM      6  C   UNL     1      -0.409   5.752  -2.269  0.00  0.00    +0.019 C 
ATOM      7  C   UNL     1      -1.764   5.224  -2.704  0.00  0.00    +0.004 C 
ATOM      8  C   UNL     1      -2.543   6.247  -3.484  0.00  0.00    +0.004 C 
ATOM      9  C   UNL     1      -1.797   6.787  -4.671  0.00  0.00    +0.019 C 
ATOM     10  C   UNL     1      -1.762   8.302  -4.521  0.00  0.00    +0.004 C 
ATOM     11  C   UNL     1      -2.512   6.395  -5.935  0.00  0.00    +0.004 C 
ATOM     12  C   UNL     1      -0.586   6.817  -1.207  0.00  0.00    +0.004 C 
ATOM     13  C   UNL     1       0.402   4.578  -1.755  0.00  0.00    +0.004 C 
ATOM     14  C   UNL     1      -0.374   6.322  -4.663  0.00  0.00    -0.027 A 
ATOM     15  C   UNL     1       0.376   6.293  -5.835  0.00  0.00    -0.005 A 
ENDROOT
BRANCH   1  17
ATOM     16  C   UNL     1       2.098   7.802  -7.677  0.00  0.00    -0.000 C 
ATOM     17  C   UNL     1       2.526   6.755  -6.976  0.00  0.00    -0.000 C 
BRANCH  17  18
ATOM     18  C   UNL     1       3.315   5.718  -7.652  0.00  0.00    -0.000 A 
ATOM     19  C   UNL     1       4.642   5.481  -7.315  0.00  0.00    +0.000 A 
ATOM     20  C   UNL     1       5.595   5.187  -8.284  0.00  0.00    +0.007 A 
ATOM     21  C   UNL     1       5.244   5.170  -9.629  0.00  0.00    +0.080 A 
ATOM     22  C   UNL     1       3.898   4.930  -9.870  0.00  0.00    +0.007 A 
ATOM     23  C   UNL     1       2.947   5.248  -8.907  0.00  0.00    +0.000 A 
BRANCH  21  24
ATOM     24  C   UNL     1       6.128   5.746 -10.653  0.00  0.00    +0.388 C 
ATOM     25  O   UNL     1       5.880   5.302 -11.956  0.00  0.00    -0.241 OA
ATOM     26  O   UNL     1       7.359   5.829 -10.356  0.00  0.00    -0.241 OA
ENDBRANCH  21  24
ENDBRANCH  17  18
ENDBRANCH   1  17
TORSDOF 3
ENDMDL
MODEL 2
REMARK VINA RESULT:      -9.2      2.046      4.523
REMARK  Name = 
REMARK  3 active torsions:
REMARK  status: ('A' for Active; 'I' for Inactive)
REMARK    1  A    between atoms: C_2  and  C_3
REMARK    2  A    between atoms: C_2  and  C_12
REMARK    3  A    between atoms: C_6  and  C_7
REMARK                            x       y       z     vdW  Elec       q    Type
REMARK                         _______ _______ _______ _____ _____    ______ ____
ROOT
ATOM      1  C   UNL     1       4.126   5.639  -7.830  0.00  0.00    -0.004 A 
ATOM      2  C   UNL     1       2.918   4.955  -7.885  0.00  0.00    -0.022 A 
ATOM      3  C   UNL     1       2.793   3.759  -8.755  0.00  0.00    +0.031 C 
ATOM      4  C   UNL     1       2.088   5.082  -6.790  0.00  0.00    -0.009 A 
ATOM      5  C   UNL     1       2.477   5.714  -5.625  0.00  0.00    -0.027 A 
ATOM      6  C   UNL     1       1.436   6.247  -4.703  0.00  0.00    +0.019 C 
ATOM      7  C   UNL     1       2.052   7.310  -3.811  0.00  0.00    +0.004 C 
ATOM      8  C   UNL     1       3.334   6.841  -3.180  0.00  0.00    +0.004 C 
ATOM      9  C   UNL     1       4.348   6.357  -4.179  0.00  0.00    +0.019 C 
ATOM     10  C   UNL     1       4.726   4.938  -3.772  0.00  0.00    +0.004 C 
ATOM     11  C   UNL     1       5.553   7.256  -4.148  0.00  0.00    +0.004 C 
ATOM     12  C   UNL     1       0.914   5.104  -3.858  0.00  0.00    +0.004 C 
ATOM     13  C   UNL     1       0.328   6.903  -5.504  0.00  0.00    +0.004 C 
ATOM     14  C   UNL     1       3.747   6.266  -5.547  0.00  0.00    -0.027 A 
ATOM     15  C   UNL     1       4.550   6.293  -6.683  0.00  0.00    -0.005 A 
ENDROOT
BRANCH   1  17
ATOM     16  C   UNL     1       6.251   4.886  -8.543  0.00  0.00    -0.000 C 
ATOM     17  C   UNL     1       5.068   5.365  -8.922  0.00  0.00    -0.000 C 
BRANCH  17  18
ATOM     18  C   UNL     1       4.959   6.056 -10.212  0.00  0.00    -0.000 A 
ATOM     19  C   UNL     1       4.397   5.436 -11.322  0.00  0.00    +0.000 A 
ATOM     20  C   UNL     1       4.923   5.616 -12.596  0.00  0.00    +0.007 A 
ATOM     21  C   UNL     1       6.062   6.391 -12.781  0.00  0.00    +0.080 A 
ATOM     22  C   UNL     1       6.281   7.339 -11.790  0.00  0.00    +0.007 A 
ATOM     23  C   UNL     1       5.774   7.142 -10.510  0.00  0.00    +0.000 A 
BRANCH  21  24
ATOM     24  C   UNL     1       7.124   5.974 -13.709  0.00  0.00    +0.388 C 
ATOM     25  O   UNL     1       6.867   6.257 -15.055  0.00  0.00    -0.241 OA
ATOM     26  O   UNL     1       7.637   4.832 -13.504  0.00  0.00    -0.241 OA
ENDBRANCH  21  24
ENDBRANCH  17  18
ENDBRANCH   1  17
TORSDOF 3
ENDMDL
MODEL 3
REMARK VINA RESULT:      -8.7      3.731      8.880
REMARK  Name = 
REMARK  3 active torsions:
REMARK  status: ('A' for Active; 'I' for Inactive)
REMARK    1  A    between atoms: C_2  and  C_3
REMARK    2  A    between atoms: C_2  and  C_12
REMARK    3  A    between atoms: C_6  and  C_7
REMARK                            x       y       z     vdW  Elec       q    Type
REMARK                         _______ _______ _______ _____ _____    ______ ____
ROOT
ATOM      1  C   UNL     1       2.782   6.256  -9.851  0.00  0.00    -0.004 A 
ATOM      2  C   UNL     1       2.076   6.346 -11.044  0.00  0.00    -0.022 A 
ATOM      3  C   UNL     1       0.806   7.113 -11.087  0.00  0.00    +0.031 C 
ATOM      4  C   UNL     1       2.804   6.179 -12.204  0.00  0.00    -0.009 A 
ATOM      5  C   UNL     1       4.183   6.090 -12.217  0.00  0.00    -0.027 A 
ATOM      6  C   UNL     1       4.859   5.438 -13.373  0.00  0.00    +0.019 C 
ATOM      7  C   UNL     1       6.249   4.993 -12.955  0.00  0.00    +0.004 C 
ATOM      8  C   UNL     1       7.007   6.093 -12.263  0.00  0.00    +0.004 C 
ATOM      9  C   UNL     1       6.276   6.671 -11.084  0.00  0.00    +0.019 C 
ATOM     10  C   UNL     1       6.170   8.172 -11.322  0.00  0.00    +0.004 C 
ATOM     11  C   UNL     1       7.048   6.387  -9.825  0.00  0.00    +0.004 C 
ATOM     12  C   UNL     1       4.956   6.443 -14.501  0.00  0.00    +0.004 C 
ATOM     13  C   UNL     1       4.085   4.202 -13.790  0.00  0.00    +0.004 C 
ATOM     14  C   UNL     1       4.875   6.148 -11.017  0.00  0.00    -0.027 A 
ATOM     15  C   UNL     1       4.165   6.157  -9.820  0.00  0.00    -0.005 A 
ENDROOT
BRANCH   1  17
ATOM     16  C   UNL     1       2.511   7.631  -7.946  0.00  0.00    -0.000 C 
ATOM     17  C   UNL     1       2.034   6.597  -8.635  0.00  0.00    -0.000 C 
BRANCH  17  18
ATOM     18  C   UNL     1       1.212   5.597  -7.943  0.00  0.00    -0.000 A 
ATOM     19  C   UNL     1      -0.166   5.542  -8.120  0.00  0.00    +0.000 A 
ATOM     20  C   UNL     1      -1.022   5.269  -7.060  0.00  0.00    +0.007 A 
ATOM     21  C   UNL     1      -0.515   5.089  -5.777  0.00  0.00    +0.080 A 
ATOM     22  C   UNL     1       0.811   4.678  -5.734  0.00  0.00    +0.007 A 
ATOM     23  C   UNL     1       1.669   4.976  -6.787  0.00  0.00    +0.000 A 
BRANCH  21  24
ATOM     24  C   UNL     1      -1.191   5.664  -4.605  0.00  0.00    +0.388 C 
ATOM     25  O   UNL     1      -0.574   5.386  -3.381  0.00  0.00    -0.241 OA
ATOM     26  O   UNL     1      -2.457   5.577  -4.582  0.00  0.00    -0.241 OA
ENDBRANCH  21  24
ENDBRANCH  17  18
ENDBRANCH   1  17
TORSDOF 3
ENDMDL
MODEL 4
REMARK VINA RESULT:      -8.7      1.642      3.361
REMARK  Name = 
REMARK  3 active torsions:
REMARK  status: ('A' for Active; 'I' for Inactive)
REMARK    1  A    between atoms: C_2  and  C_3
REMARK    2  A    between atoms: C_2  and  C_12
REMARK    3  A    between atoms: C_6  and  C_7
REMARK                            x       y       z     vdW  Elec       q    Type
REMARK                         _______ _______ _______ _____ _____    ______ ____
ROOT
ATOM      1  C   UNL     1       2.017   5.777  -4.885  0.00  0.00    -0.004 A 
ATOM      2  C   UNL     1       0.963   5.196  -5.580  0.00  0.00    -0.022 A 
ATOM      3  C   UNL     1       1.234   4.085  -6.526  0.00  0.00    +0.031 C 
ATOM      4  C   UNL     1      -0.287   5.303  -5.005  0.00  0.00    -0.009 A 
ATOM      5  C   UNL     1      -0.487   5.810  -3.736  0.00  0.00    -0.027 A 
ATOM      6  C   UNL     1      -1.826   6.350  -3.369  0.00  0.00    +0.019 C 
ATOM      7  C   UNL     1      -1.681   7.289  -2.185  0.00  0.00    +0.004 C 
ATOM      8  C   UNL     1      -0.876   6.672  -1.074  0.00  0.00    +0.004 C 
ATOM      9  C   UNL     1       0.477   6.189  -1.515  0.00  0.00    +0.019 C 
ATOM     10  C   UNL     1       0.568   4.718  -1.131  0.00  0.00    +0.004 C 
ATOM     11  C   UNL     1       1.547   6.986  -0.820  0.00  0.00    +0.004 C 
ATOM     12  C   UNL     1      -2.726   5.189  -3.001  0.00  0.00    +0.004 C 
ATOM     13  C   UNL     1      -2.390   7.151  -4.527  0.00  0.00    +0.004 C 
ATOM     14  C   UNL     1       0.606   6.252  -3.005  0.00  0.00    -0.027 A 
ATOM     15  C   UNL     1       1.857   6.304  -3.613  0.00  0.00    -0.005 A 
ENDROOT
BRANCH   1  17
ATOM     16  C   UNL     1       4.262   5.133  -4.520  0.00  0.00    -0.000 C 
ATOM     17  C   UNL     1       3.358   5.515  -5.419  0.00  0.00    -0.000 C 
BRANCH  17  18
ATOM     18  C   UNL     1       3.814   6.138  -6.668  0.00  0.00    -0.000 A 
ATOM     19  C   UNL     1       3.080   7.141  -7.289  0.00  0.00    +0.000 A 
ATOM     20  C   UNL     1       2.960   7.201  -8.673  0.00  0.00    +0.007 A 
ATOM     21  C   UNL     1       3.541   6.221  -9.470  0.00  0.00    +0.080 A 
ATOM     22  C   UNL     1       4.616   5.565  -8.884  0.00  0.00    +0.007 A 
ATOM     23  C   UNL     1       4.718   5.487  -7.500  0.00  0.00    +0.000 A 
BRANCH  21  24
ATOM     24  C   UNL     1       2.835   5.672 -10.636  0.00  0.00    +0.388 C 
ATOM     25  O   UNL     1       2.976   6.420 -11.810  0.00  0.00    -0.241 OA
ATOM     26  O   UNL     1       1.660   5.237 -10.433  0.00  0.00    -0.241 OA
ENDBRANCH  21  24
ENDBRANCH  17  18
ENDBRANCH   1  17
TORSDOF 3
ENDMDL
MODEL 5
REMARK VINA RESULT:      -8.6      4.004      7.627
REMARK  Name = 
REMARK  3 active torsions:
REMARK  status: ('A' for Active; 'I' for Inactive)
REMARK    1  A    between atoms: C_2  and  C_3
REMARK    2  A    between atoms: C_2  and  C_12
REMARK    3  A    between atoms: C_6  and  C_7
REMARK                            x       y       z     vdW  Elec       q    Type
REMARK                         _______ _______ _______ _____ _____    ______ ____
ROOT
ATOM      1  C   UNL     1      -0.091   5.887  -5.567  0.00  0.00    -0.004 A 
ATOM      2  C   UNL     1       0.605   5.631  -4.393  0.00  0.00    -0.022 A 
ATOM      3  C   UNL     1      -0.062   4.893  -3.292  0.00  0.00    +0.031 C 
ATOM      4  C   UNL     1       1.981   5.603  -4.487  0.00  0.00    -0.009 A 
ATOM      5  C   UNL     1       2.651   5.661  -5.694  0.00  0.00    -0.027 A 
ATOM      6  C   UNL     1       4.070   6.115  -5.719  0.00  0.00    +0.019 C 
ATOM      7  C   UNL     1       4.420   6.589  -7.118  0.00  0.00    +0.004 C 
ATOM      8  C   UNL     1       4.013   5.593  -8.168  0.00  0.00    +0.004 C 
ATOM      9  C   UNL     1       2.559   5.217  -8.102  0.00  0.00    +0.019 C 
ATOM     10  C   UNL     1       2.500   3.700  -7.979  0.00  0.00    +0.004 C 
ATOM     11  C   UNL     1       1.864   5.675  -9.355  0.00  0.00    +0.004 C 
ATOM     12  C   UNL     1       4.953   4.947  -5.333  0.00  0.00    +0.004 C 
ATOM     13  C   UNL     1       4.250   7.288  -4.775  0.00  0.00    +0.004 C 
ATOM     14  C   UNL     1       1.920   5.773  -6.868  0.00  0.00    -0.027 A 
ATOM     15  C   UNL     1       0.544   5.961  -6.798  0.00  0.00    -0.005 A 
ENDROOT
BRANCH   1  17
ATOM     16  C   UNL     1      -2.140   5.322  -6.603  0.00  0.00    -0.000 C 
ATOM     17  C   UNL     1      -1.550   5.752  -5.490  0.00  0.00    -0.000 C 
BRANCH  17  18
ATOM     18  C   UNL     1      -2.336   6.526  -4.520  0.00  0.00    -0.000 A 
ATOM     19  C   UNL     1      -1.950   7.802  -4.128  0.00  0.00    +0.000 A 
ATOM     20  C   UNL     1      -2.084   8.228  -2.812  0.00  0.00    +0.007 A 
ATOM     21  C   UNL     1      -2.569   7.359  -1.840  0.00  0.00    +0.080 A 
ATOM     22  C   UNL     1      -3.363   6.330  -2.332  0.00  0.00    +0.007 A 
ATOM     23  C   UNL     1      -3.207   5.892  -3.642  0.00  0.00    +0.000 A 
BRANCH  21  24
ATOM     24  C   UNL     1      -1.971   7.308  -0.498  0.00  0.00    +0.388 C 
ATOM     25  O   UNL     1      -1.450   8.525  -0.045  0.00  0.00    -0.241 OA
ATOM     26  O   UNL     1      -1.244   6.301  -0.241  0.00  0.00    -0.241 OA
ENDBRANCH  21  24
ENDBRANCH  17  18
ENDBRANCH   1  17
TORSDOF 3
ENDMDL
MODEL 6
REMARK VINA RESULT:      -8.6      4.447      7.239
REMARK  Name = 
REMARK  3 active torsions:
REMARK  status: ('A' for Active; 'I' for Inactive)
REMARK    1  A    between atoms: C_2  and  C_3
REMARK    2  A    between atoms: C_2  and  C_12
REMARK    3  A    between atoms: C_6  and  C_7
REMARK                            x       y       z     vdW  Elec       q    Type
REMARK                         _______ _______ _______ _____ _____    ______ ____
ROOT
ATOM      1  C   UNL     1       0.573   5.535  -5.202  0.00  0.00    -0.004 A 
ATOM      2  C   UNL     1       1.468   6.246  -5.991  0.00  0.00    -0.022 A 
ATOM      3  C   UNL     1       0.954   7.228  -6.978  0.00  0.00    +0.031 C 
ATOM      4  C   UNL     1       2.745   6.398  -5.490  0.00  0.00    -0.009 A 
ATOM      5  C   UNL     1       3.097   6.017  -4.209  0.00  0.00    -0.027 A 
ATOM      6  C   UNL     1       4.528   5.746  -3.898  0.00  0.00    +0.019 C 
ATOM      7  C   UNL     1       4.615   4.875  -2.658  0.00  0.00    +0.004 C 
ATOM      8  C   UNL     1       3.771   5.411  -1.534  0.00  0.00    +0.004 C 
ATOM      9  C   UNL     1       2.333   5.619  -1.916  0.00  0.00    +0.019 C 
ATOM     10  C   UNL     1       1.999   7.073  -1.608  0.00  0.00    +0.004 C 
ATOM     11  C   UNL     1       1.460   4.693  -1.113  0.00  0.00    +0.004 C 
ATOM     12  C   UNL     1       5.223   7.068  -3.651  0.00  0.00    +0.004 C 
ATOM     13  C   UNL     1       5.167   4.984  -5.043  0.00  0.00    +0.004 C 
ATOM     14  C   UNL     1       2.140   5.438  -3.390  0.00  0.00    -0.027 A 
ATOM     15  C   UNL     1       0.890   5.128  -3.915  0.00  0.00    -0.005 A 
ENDROOT
BRANCH   1  17
ATOM     16  C   UNL     1      -0.978   5.391  -6.980  0.00  0.00    -0.000 C 
ATOM     17  C   UNL     1      -0.819   5.522  -5.665  0.00  0.00    -0.000 C 
BRANCH  17  18
ATOM     18  C   UNL     1      -1.890   6.143  -4.875  0.00  0.00    -0.000 A 
ATOM     19  C   UNL     1      -1.844   7.487  -4.524  0.00  0.00    +0.000 A 
ATOM     20  C   UNL     1      -2.267   7.924  -3.273  0.00  0.00    +0.007 A 
ATOM     21  C   UNL     1      -2.705   7.009  -2.322  0.00  0.00    +0.080 A 
ATOM     22  C   UNL     1      -3.181   5.815  -2.849  0.00  0.00    +0.007 A 
ATOM     23  C   UNL     1      -2.735   5.370  -4.089  0.00  0.00    +0.000 A 
BRANCH  21  24
ATOM     24  C   UNL     1      -2.325   7.141  -0.908  0.00  0.00    +0.388 C 
ATOM     25  O   UNL     1      -1.582   8.287  -0.608  0.00  0.00    -0.241 OA
ATOM     26  O   UNL     1      -1.916   6.088  -0.332  0.00  0.00    -0.241 OA
ENDBRANCH  21  24
ENDBRANCH  17  18
ENDBRANCH   1  17
TORSDOF 3
ENDMDL
MODEL 7
REMARK VINA RESULT:      -8.5      3.311      8.532
REMARK  Name = 
REMARK  3 active torsions:
REMARK  status: ('A' for Active; 'I' for Inactive)
REMARK    1  A    between atoms: C_2  and  C_3
REMARK    2  A    between atoms: C_2  and  C_12
REMARK    3  A    between atoms: C_6  and  C_7
REMARK                            x       y       z     vdW  Elec       q    Type
REMARK                         _______ _______ _______ _____ _____    ______ ____
ROOT
ATOM      1  C   UNL     1       2.590   5.546 -10.343  0.00  0.00    -0.004 A 
ATOM      2  C   UNL     1       3.682   5.091  -9.614  0.00  0.00    -0.022 A 
ATOM      3  C   UNL     1       3.489   4.039  -8.586  0.00  0.00    +0.031 C 
ATOM      4  C   UNL     1       4.921   5.240 -10.203  0.00  0.00    -0.009 A 
ATOM      5  C   UNL     1       5.084   5.663 -11.509  0.00  0.00    -0.027 A 
ATOM      6  C   UNL     1       6.382   6.263 -11.923  0.00  0.00    +0.019 C 
ATOM      7  C   UNL     1       6.172   7.099 -13.173  0.00  0.00    +0.004 C 
ATOM      8  C   UNL     1       5.409   6.348 -14.229  0.00  0.00    +0.004 C 
ATOM      9  C   UNL     1       4.093   5.808 -13.745  0.00  0.00    +0.019 C 
ATOM     10  C   UNL     1       4.102   4.310 -14.018  0.00  0.00    +0.004 C 
ATOM     11  C   UNL     1       2.970   6.477 -14.490  0.00  0.00    +0.004 C 
ATOM     12  C   UNL     1       7.359   5.142 -12.210  0.00  0.00    +0.004 C 
ATOM     13  C   UNL     1       6.892   7.185 -10.832  0.00  0.00    +0.004 C 
ATOM     14  C   UNL     1       3.962   5.974 -12.263  0.00  0.00    -0.027 A 
ATOM     15  C   UNL     1       2.712   5.986 -11.652  0.00  0.00    -0.005 A 
ENDROOT
BRANCH   1  17
ATOM     16  C   UNL     1       0.429   4.628 -10.616  0.00  0.00    -0.000 C 
ATOM     17  C   UNL     1       1.270   5.234  -9.782  0.00  0.00    -0.000 C 
BRANCH  17  18
ATOM     18  C   UNL     1       0.728   5.992  -8.647  0.00  0.00    -0.000 A 
ATOM     19  C   UNL     1       1.471   6.983  -8.015  0.00  0.00    +0.000 A 
ATOM     20  C   UNL     1       1.433   7.148  -6.636  0.00  0.00    +0.007 A 
ATOM     21  C   UNL     1       0.679   6.286  -5.847  0.00  0.00    +0.080 A 
ATOM     22  C   UNL     1      -0.374   5.671  -6.511  0.00  0.00    +0.007 A 
ATOM     23  C   UNL     1      -0.320   5.486  -7.888  0.00  0.00    +0.000 A 
BRANCH  21  24
ATOM     24  C   UNL     1       1.193   5.781  -4.566  0.00  0.00    +0.388 C 
ATOM     25  O   UNL     1       2.452   5.176  -4.640  0.00  0.00    -0.241 OA
ATOM     26  O   UNL     1       0.364   5.171  -3.824  0.00  0.00    -0.241 OA
ENDBRANCH  21  24
ENDBRANCH  17  18
ENDBRANCH   1  17
TORSDOF 3
ENDMDL
MODEL 8
REMARK VINA RESULT:      -8.5      4.272      8.005
REMARK  Name = 
REMARK  3 active torsions:
REMARK  status: ('A' for Active; 'I' for Inactive)
REMARK    1  A    between atoms: C_2  and  C_3
REMARK    2  A    between atoms: C_2  and  C_12
REMARK    3  A    between atoms: C_6  and  C_7
REMARK                            x       y       z     vdW  Elec       q    Type
REMARK                         _______ _______ _______ _____ _____    ______ ____
ROOT
ATOM      1  C   UNL     1       0.676   5.685  -7.528  0.00  0.00    -0.004 A 
ATOM      2  C   UNL     1       1.868   4.995  -7.345  0.00  0.00    -0.022 A 
ATOM      3  C   UNL     1       1.921   3.869  -6.379  0.00  0.00    +0.031 C 
ATOM      4  C   UNL     1       2.766   5.029  -8.392  0.00  0.00    -0.009 A 
ATOM      5  C   UNL     1       2.459   5.572  -9.625  0.00  0.00    -0.027 A 
ATOM      6  C   UNL     1       3.564   6.021 -10.518  0.00  0.00    +0.019 C 
ATOM      7  C   UNL     1       3.020   7.018 -11.525  0.00  0.00    +0.004 C 
ATOM      8  C   UNL     1       1.772   6.515 -12.198  0.00  0.00    +0.004 C 
ATOM      9  C   UNL     1       0.692   6.120 -11.231  0.00  0.00    +0.019 C 
ATOM     10  C   UNL     1       0.318   4.678 -11.550  0.00  0.00    +0.004 C 
ATOM     11  C   UNL     1      -0.496   7.027 -11.406  0.00  0.00    +0.004 C 
ATOM     12  C   UNL     1       4.120   4.811 -11.238  0.00  0.00    +0.004 C 
ATOM     13  C   UNL     1       4.630   6.725  -9.701  0.00  0.00    +0.004 C 
ATOM     14  C   UNL     1       1.205   6.129  -9.825  0.00  0.00    -0.027 A 
ATOM     15  C   UNL     1       0.334   6.252  -8.747  0.00  0.00    -0.005 A 
ENDROOT
BRANCH   1  17
ATOM     16  C   UNL     1      -1.479   4.958  -6.884  0.00  0.00    -0.000 C 
ATOM     17  C   UNL     1      -0.335   5.507  -6.480  0.00  0.00    -0.000 C 
BRANCH  17  18
ATOM     18  C   UNL     1      -0.331   6.337  -5.269  0.00  0.00    -0.000 A 
ATOM     19  C   UNL     1       0.389   5.968  -4.139  0.00  0.00    +0.000 A 
ATOM     20  C   UNL     1      -0.118   6.166  -2.860  0.00  0.00    +0.007 A 
ATOM     21  C   UNL     1      -1.389   6.701  -2.685  0.00  0.00    +0.080 A 
ATOM     22  C   UNL     1      -1.841   7.472  -3.748  0.00  0.00    +0.007 A 
ATOM     23  C   UNL     1      -1.349   7.253  -5.030  0.00  0.00    +0.000 A 
BRANCH  21  24
ATOM     24  C   UNL     1      -2.303   6.170  -1.663  0.00  0.00    +0.388 C 
ATOM     25  O   UNL     1      -1.967   6.506  -0.348  0.00  0.00    -0.241 OA
ATOM     26  O   UNL     1      -2.684   4.970  -1.814  0.00  0.00    -0.241 OA
ENDBRANCH  21  24
ENDBRANCH  17  18
ENDBRANCH   1  17
TORSDOF 3
ENDMDL
MODEL 9
REMARK VINA RESULT:      -8.2      1.597      3.368
REMARK  Name = 
REMARK  3 active torsions:
REMARK  status: ('A' for Active; 'I' for Inactive)
REMARK    1  A    between atoms: C_2  and  C_3
REMARK    2  A    between atoms: C_2  and  C_12
REMARK    3  A    between atoms: C_6  and  C_7
REMARK                            x       y       z     vdW  Elec       q    Type
REMARK                         _______ _______ _______ _____ _____    ______ ____
ROOT
ATOM      1  C   UNL     1       2.319   6.780  -5.940  0.00  0.00    -0.004 A 
ATOM      2  C   UNL     1       1.231   5.928  -5.799  0.00  0.00    -0.022 A 
ATOM      3  C   UNL     1       0.835   5.053  -6.931  0.00  0.00    +0.031 C 
ATOM      4  C   UNL     1       0.902   5.556  -4.512  0.00  0.00    -0.009 A 
ATOM      5  C   UNL     1       1.689   5.865  -3.419  0.00  0.00    -0.027 A 
ATOM      6  C   UNL     1       1.075   5.884  -2.062  0.00  0.00    +0.019 C 
ATOM      7  C   UNL     1       1.935   6.722  -1.133  0.00  0.00    +0.004 C 
ATOM      8  C   UNL     1       3.387   6.335  -1.211  0.00  0.00    +0.004 C 
ATOM      9  C   UNL     1       3.942   6.381  -2.607  0.00  0.00    +0.019 C 
ATOM     10  C   UNL     1       4.530   5.005  -2.894  0.00  0.00    +0.004 C 
ATOM     11  C   UNL     1       5.007   7.440  -2.691  0.00  0.00    +0.004 C 
ATOM     12  C   UNL     1       0.999   4.460  -1.551  0.00  0.00    +0.004 C 
ATOM     13  C   UNL     1      -0.296   6.529  -2.127  0.00  0.00    +0.004 C 
ATOM     14  C   UNL     1       2.851   6.598  -3.608  0.00  0.00    -0.027 A 
ATOM     15  C   UNL     1       3.129   7.121  -4.867  0.00  0.00    -0.005 A 
ENDROOT
BRANCH   1  17
ATOM     16  C   UNL     1       2.020   7.909  -7.995  0.00  0.00    -0.000 C 
ATOM     17  C   UNL     1       2.760   7.036  -7.315  0.00  0.00    -0.000 C 
BRANCH  17  18
ATOM     18  C   UNL     1       3.557   6.049  -8.055  0.00  0.00    -0.000 A 
ATOM     19  C   UNL     1       4.658   5.427  -7.478  0.00  0.00    +0.000 A 
ATOM     20  C   UNL     1       5.813   5.174  -8.209  0.00  0.00    +0.007 A 
ATOM     21  C   UNL     1       5.908   5.584  -9.534  0.00  0.00    +0.080 A 
ATOM     22  C   UNL     1       4.686   5.737 -10.178  0.00  0.00    +0.007 A 
ATOM     23  C   UNL     1       3.539   6.015  -9.444  0.00  0.00    +0.000 A 
BRANCH  21  24
ATOM     24  C   UNL     1       7.146   6.175 -10.061  0.00  0.00    +0.388 C 
ATOM     25  O   UNL     1       6.980   7.415 -10.688  0.00  0.00    -0.241 OA
ATOM     26  O   UNL     1       7.937   5.388 -10.664  0.00  0.00    -0.241 OA
ENDBRANCH  21  24
ENDBRANCH  17  18
ENDBRANCH   1  17
TORSDOF 3
ENDMDL
