MODEL 1
REMARK VINA RESULT:      -4.1      0.000      0.000
REMARK  Name = 
REMARK  4 active torsions:
REMARK  status: ('A' for Active; 'I' for Inactive)
REMARK    1  A    between atoms: N_2  and  C_5
REMARK    2  A    between atoms: C_5  and  C_6
REMARK    3  A    between atoms: C_6  and  O_7
REMARK    4  A    between atoms: O_7  and  C_8
REMARK                            x       y       z     vdW  Elec       q    Type
REMARK                         _______ _______ _______ _____ _____    ______ ____
ROOT
ATOM      1  C   UNL     1       5.833   5.469  -9.328  0.00  0.00    +0.158 C 
ENDROOT
BRANCH   1   3
ATOM      2  C   UNL     1       3.726   6.630  -9.177  0.00  0.00    +0.171 C 
ATOM      3  N   UNL     1       4.421   5.441  -9.653  0.00  0.00    +0.313 N 
ATOM      4  C   UNL     1       3.843   4.258  -9.018  0.00  0.00    +0.171 C 
ATOM      5  C   UNL     1       4.282   5.352 -11.104  0.00  0.00    +0.171 C 
ENDBRANCH   1   3
BRANCH   1   6
ATOM      6  C   UNL     1       6.514   6.275 -10.427  0.00  0.00    +0.271 C 
BRANCH   6   7
ATOM      7  O   UNL     1       7.745   5.599 -10.678  0.00  0.00    -0.426 OA
BRANCH   7   8
ATOM      8  C   UNL     1       8.248   5.468 -11.976  0.00  0.00    +0.441 C 
ATOM      9  O   UNL     1       9.458   5.818 -12.118  0.00  0.00    -0.223 OA
ATOM     10  N   UNL     1       7.564   4.748 -13.000  0.00  0.00    -0.048 NA
ENDBRANCH   7   8
ENDBRANCH   6   7
ENDBRANCH   1   6
TORSDOF 4
ENDMDL
MODEL 2
REMARK VINA RESULT:      -3.9      8.442     10.285
REMARK  Name = 
REMARK  4 active torsions:
REMARK  status: ('A' for Active; 'I' for Inactive)
REMARK    1  A    between atoms: N_2  and  C_5
REMARK    2  A    between atoms: C_5  and  C_6
REMARK    3  A    between atoms: C_6  and  O_7
REMARK    4  A    between atoms: O_7  and  C_8
REMARK                            x       y       z     vdW  Elec       q    Type
REMARK                         _______ _______ _______ _____ _____    ______ ____
ROOT
ATOM      1  C   UNL     1      -0.378   6.997  -4.978  0.00  0.00    +0.158 C 
ENDROOT
BRANCH   1   3
ATOM      2  C   UNL     1      -0.878   5.389  -6.703  0.00  0.00    +0.171 C 
ATOM      3  N   UNL     1       0.161   6.008  -5.889  0.00  0.00    +0.313 N 
ATOM      4  C   UNL     1       0.821   4.979  -5.086  0.00  0.00    +0.171 C 
ATOM      5  C   UNL     1       1.130   6.663  -6.763  0.00  0.00    +0.171 C 
ENDBRANCH   1   3
BRANCH   1   6
ATOM      6  C   UNL     1      -1.839   6.627  -4.752  0.00  0.00    +0.271 C 
BRANCH   6   7
ATOM      7  O   UNL     1      -2.017   6.652  -3.337  0.00  0.00    -0.426 OA
BRANCH   7   8
ATOM      8  C   UNL     1      -1.960   5.477  -2.580  0.00  0.00    +0.441 C 
ATOM      9  O   UNL     1      -2.901   4.656  -2.797  0.00  0.00    -0.223 OA
ATOM     10  N   UNL     1      -0.809   5.097  -1.830  0.00  0.00    -0.048 NA
ENDBRANCH   7   8
ENDBRANCH   6   7
ENDBRANCH   1   6
TORSDOF 4
ENDMDL
MODEL 3
REMARK VINA RESULT:      -3.8      1.436      1.874
REMARK  Name = 
REMARK  4 active torsions:
REMARK  status: ('A' for Active; 'I' for Inactive)
REMARK    1  A    between atoms: N_2  and  C_5
REMARK    2  A    between atoms: C_5  and  C_6
REMARK    3  A    between atoms: C_6  and  O_7
REMARK    4  A    between atoms: O_7  and  C_8
REMARK                            x       y       z     vdW  Elec       q    Type
REMARK                         _______ _______ _______ _____ _____    ______ ____
ROOT
ATOM      1  C   UNL     1       4.498   5.281 -10.703  0.00  0.00    +0.158 C 
ENDROOT
BRANCH   1   3
ATOM      2  C   UNL     1       5.483   5.283  -8.503  0.00  0.00    +0.171 C 
ATOM      3  N   UNL     1       4.249   5.331  -9.276  0.00  0.00    +0.313 N 
ATOM      4  C   UNL     1       3.419   4.177  -8.930  0.00  0.00    +0.171 C 
ATOM      5  C   UNL     1       3.540   6.570  -8.972  0.00  0.00    +0.171 C 
ENDBRANCH   1   3
BRANCH   1   6
ATOM      6  C   UNL     1       5.333   6.511 -11.039  0.00  0.00    +0.271 C 
BRANCH   6   7
ATOM      7  O   UNL     1       6.112   6.135 -12.173  0.00  0.00    -0.426 OA
BRANCH   7   8
ATOM      8  C   UNL     1       7.236   5.315 -12.039  0.00  0.00    +0.441 C 
ATOM      9  O   UNL     1       7.527   4.635 -13.069  0.00  0.00    -0.223 OA
ATOM     10  N   UNL     1       8.148   5.426 -10.949  0.00  0.00    -0.048 NA
ENDBRANCH   7   8
ENDBRANCH   6   7
ENDBRANCH   1   6
TORSDOF 4
ENDMDL
MODEL 4
REMARK VINA RESULT:      -3.8      8.452     10.423
REMARK  Name = 
REMARK  4 active torsions:
REMARK  status: ('A' for Active; 'I' for Inactive)
REMARK    1  A    between atoms: N_2  and  C_5
REMARK    2  A    between atoms: C_5  and  C_6
REMARK    3  A    between atoms: C_6  and  O_7
REMARK    4  A    between atoms: O_7  and  C_8
REMARK                            x       y       z     vdW  Elec       q    Type
REMARK                         _______ _______ _______ _____ _____    ______ ____
ROOT
ATOM      1  C   UNL     1      -0.503   5.772  -4.917  0.00  0.00    +0.158 C 
ENDROOT
BRANCH   1   3
ATOM      2  C   UNL     1       1.041   6.684  -6.528  0.00  0.00    +0.171 C 
ATOM      3  N   UNL     1       0.204   5.548  -6.161  0.00  0.00    +0.313 N 
ATOM      4  C   UNL     1      -0.795   5.329  -7.206  0.00  0.00    +0.171 C 
ATOM      5  C   UNL     1       1.043   4.363  -6.011  0.00  0.00    +0.171 C 
ENDBRANCH   1   3
BRANCH   1   6
ATOM      6  C   UNL     1      -1.932   6.146  -5.293  0.00  0.00    +0.271 C 
BRANCH   6   7
ATOM      7  O   UNL     1      -2.760   5.359  -4.439  0.00  0.00    -0.426 OA
BRANCH   7   8
ATOM      8  C   UNL     1      -2.881   5.652  -3.077  0.00  0.00    +0.441 C 
ATOM      9  O   UNL     1      -2.632   4.683  -2.298  0.00  0.00    -0.223 OA
ATOM     10  N   UNL     1      -3.001   6.983  -2.581  0.00  0.00    -0.048 NA
ENDBRANCH   7   8
ENDBRANCH   6   7
ENDBRANCH   1   6
TORSDOF 4
ENDMDL
MODEL 5
REMARK VINA RESULT:      -3.7      6.542      8.201
REMARK  Name = 
REMARK  4 active torsions:
REMARK  status: ('A' for Active; 'I' for Inactive)
REMARK    1  A    between atoms: N_2  and  C_5
REMARK    2  A    between atoms: C_5  and  C_6
REMARK    3  A    between atoms: C_6  and  O_7
REMARK    4  A    between atoms: O_7  and  C_8
REMARK                            x       y       z     vdW  Elec       q    Type
REMARK                         _______ _______ _______ _____ _____    ______ ____
ROOT
ATOM      1  C   UNL     1      -0.477   5.716  -4.805  0.00  0.00    +0.158 C 
ENDROOT
BRANCH   1   3
ATOM      2  C   UNL     1      -2.401   5.657  -6.256  0.00  0.00    +0.171 C 
ATOM      3  N   UNL     1      -1.873   6.070  -4.962  0.00  0.00    +0.313 N 
ATOM      4  C   UNL     1      -1.978   7.524  -4.841  0.00  0.00    +0.171 C 
ATOM      5  C   UNL     1      -2.638   5.421  -3.901  0.00  0.00    +0.171 C 
ENDBRANCH   1   3
BRANCH   1   6
ATOM      6  C   UNL     1       0.328   6.959  -5.164  0.00  0.00    +0.271 C 
BRANCH   6   7
ATOM      7  O   UNL     1       1.212   6.544  -6.203  0.00  0.00    -0.426 OA
BRANCH   7   8
ATOM      8  C   UNL     1       2.209   7.396  -6.688  0.00  0.00    +0.441 C 
ATOM      9  O   UNL     1       3.311   7.339  -6.064  0.00  0.00    -0.223 OA
ATOM     10  N   UNL     1       2.106   8.072  -7.940  0.00  0.00    -0.048 NA
ENDBRANCH   7   8
ENDBRANCH   6   7
ENDBRANCH   1   6
TORSDOF 4
ENDMDL
MODEL 6
REMARK VINA RESULT:      -3.6      7.821      9.928
REMARK  Name = 
REMARK  4 active torsions:
REMARK  status: ('A' for Active; 'I' for Inactive)
REMARK    1  A    between atoms: N_2  and  C_5
REMARK    2  A    between atoms: C_5  and  C_6
REMARK    3  A    between atoms: C_6  and  O_7
REMARK    4  A    between atoms: O_7  and  C_8
REMARK                            x       y       z     vdW  Elec       q    Type
REMARK                         _______ _______ _______ _____ _____    ______ ____
ROOT
ATOM      1  C   UNL     1       0.865   5.205  -4.977  0.00  0.00    +0.158 C 
ENDROOT
BRANCH   1   3
ATOM      2  C   UNL     1       2.336   6.496  -6.384  0.00  0.00    +0.171 C 
ATOM      3  N   UNL     1       2.175   5.809  -5.109  0.00  0.00    +0.313 N 
ATOM      4  C   UNL     1       3.168   4.739  -5.010  0.00  0.00    +0.171 C 
ATOM      5  C   UNL     1       2.356   6.766  -4.021  0.00  0.00    +0.171 C 
ENDBRANCH   1   3
BRANCH   1   6
ATOM      6  C   UNL     1       0.004   6.203  -4.211  0.00  0.00    +0.271 C 
BRANCH   6   7
ATOM      7  O   UNL     1      -1.259   5.561  -4.051  0.00  0.00    -0.426 OA
BRANCH   7   8
ATOM      8  C   UNL     1      -1.748   5.233  -2.782  0.00  0.00    +0.441 C 
ATOM      9  O   UNL     1      -2.912   4.730  -2.772  0.00  0.00    -0.223 OA
ATOM     10  N   UNL     1      -0.922   5.201  -1.621  0.00  0.00    -0.048 NA
ENDBRANCH   7   8
ENDBRANCH   6   7
ENDBRANCH   1   6
TORSDOF 4
ENDMDL
MODEL 7
REMARK VINA RESULT:      -3.5      3.102      4.989
REMARK  Name = 
REMARK  4 active torsions:
REMARK  status: ('A' for Active; 'I' for Inactive)
REMARK    1  A    between atoms: N_2  and  C_5
REMARK    2  A    between atoms: C_5  and  C_6
REMARK    3  A    between atoms: C_6  and  O_7
REMARK    4  A    between atoms: O_7  and  C_8
REMARK                            x       y       z     vdW  Elec       q    Type
REMARK                         _______ _______ _______ _____ _____    ______ ____
ROOT
ATOM      1  C   UNL     1       5.040   5.886 -10.904  0.00  0.00    +0.158 C 
ENDROOT
BRANCH   1   3
ATOM      2  C   UNL     1       7.084   5.850  -9.628  0.00  0.00    +0.171 C 
ATOM      3  N   UNL     1       6.468   6.130 -10.918  0.00  0.00    +0.313 N 
ATOM      4  C   UNL     1       6.674   7.538 -11.255  0.00  0.00    +0.171 C 
ATOM      5  C   UNL     1       7.073   5.276 -11.935  0.00  0.00    +0.171 C 
ENDBRANCH   1   3
BRANCH   1   6
ATOM      6  C   UNL     1       4.402   7.093 -10.226  0.00  0.00    +0.271 C 
BRANCH   6   7
ATOM      7  O   UNL     1       3.253   6.580  -9.553  0.00  0.00    -0.426 OA
BRANCH   7   8
ATOM      8  C   UNL     1       2.957   6.954  -8.239  0.00  0.00    +0.441 C 
ATOM      9  O   UNL     1       3.611   6.336  -7.347  0.00  0.00    -0.223 OA
ATOM     10  N   UNL     1       2.194   8.116  -7.920  0.00  0.00    -0.048 NA
ENDBRANCH   7   8
ENDBRANCH   6   7
ENDBRANCH   1   6
TORSDOF 4
ENDMDL
MODEL 8
REMARK VINA RESULT:      -3.4      3.104      4.601
REMARK  Name = 
REMARK  4 active torsions:
REMARK  status: ('A' for Active; 'I' for Inactive)
REMARK    1  A    between atoms: N_2  and  C_5
REMARK    2  A    between atoms: C_5  and  C_6
REMARK    3  A    between atoms: C_6  and  O_7
REMARK    4  A    between atoms: O_7  and  C_8
REMARK                            x       y       z     vdW  Elec       q    Type
REMARK                         _______ _______ _______ _____ _____    ______ ____
ROOT
ATOM      1  C   UNL     1       2.371   4.179  -7.172  0.00  0.00    +0.158 C 
ENDROOT
BRANCH   1   3
ATOM      2  C   UNL     1       0.699   5.468  -8.336  0.00  0.00    +0.171 C 
ATOM      3  N   UNL     1       1.387   5.238  -7.072  0.00  0.00    +0.313 N 
ATOM      4  C   UNL     1       2.088   6.459  -6.676  0.00  0.00    +0.171 C 
ATOM      5  C   UNL     1       0.409   4.866  -6.054  0.00  0.00    +0.171 C 
ENDBRANCH   1   3
BRANCH   1   6
ATOM      6  C   UNL     1       2.476   3.824  -8.651  0.00  0.00    +0.271 C 
BRANCH   6   7
ATOM      7  O   UNL     1       3.866   3.911  -8.958  0.00  0.00    -0.426 OA
BRANCH   7   8
ATOM      8  C   UNL     1       4.418   5.079  -9.491  0.00  0.00    +0.441 C 
ATOM      9  O   UNL     1       5.497   5.459  -8.944  0.00  0.00    -0.223 OA
ATOM     10  N   UNL     1       3.974   5.653 -10.719  0.00  0.00    -0.048 NA
ENDBRANCH   7   8
ENDBRANCH   6   7
ENDBRANCH   1   6
TORSDOF 4
ENDMDL
MODEL 9
REMARK VINA RESULT:      -3.4      4.919      6.288
REMARK  Name = 
REMARK  4 active torsions:
REMARK  status: ('A' for Active; 'I' for Inactive)
REMARK    1  A    between atoms: N_2  and  C_5
REMARK    2  A    between atoms: C_5  and  C_6
REMARK    3  A    between atoms: C_6  and  O_7
REMARK    4  A    between atoms: O_7  and  C_8
REMARK                            x       y       z     vdW  Elec       q    Type
REMARK                         _______ _______ _______ _____ _____    ______ ____
ROOT
ATOM      1  C   UNL     1       0.867   4.676  -5.887  0.00  0.00    +0.158 C 
ENDROOT
BRANCH   1   3
ATOM      2  C   UNL     1       1.323   6.900  -6.694  0.00  0.00    +0.171 C 
ATOM      3  N   UNL     1       0.757   6.095  -5.620  0.00  0.00    +0.313 N 
ATOM      4  C   UNL     1       1.479   6.371  -4.378  0.00  0.00    +0.171 C 
ATOM      5  C   UNL     1      -0.656   6.428  -5.464  0.00  0.00    +0.171 C 
ENDBRANCH   1   3
BRANCH   1   6
ATOM      6  C   UNL     1       2.334   4.408  -6.201  0.00  0.00    +0.271 C 
BRANCH   6   7
ATOM      7  O   UNL     1       2.321   3.528  -7.324  0.00  0.00    -0.426 OA
BRANCH   7   8
ATOM      8  C   UNL     1       2.686   3.975  -8.598  0.00  0.00    +0.441 C 
ATOM      9  O   UNL     1       1.719   4.340  -9.332  0.00  0.00    -0.223 OA
ATOM     10  N   UNL     1       4.034   4.263  -8.959  0.00  0.00    -0.048 NA
ENDBRANCH   7   8
ENDBRANCH   6   7
ENDBRANCH   1   6
TORSDOF 4
ENDMDL
