MODEL 1
REMARK VINA RESULT:      -8.1      0.000      0.000
REMARK  Name = 
REMARK  2 active torsions:
REMARK  status: ('A' for Active; 'I' for Inactive)
REMARK    1  A    between atoms: O_2  and  C_3
REMARK    2  A    between atoms: C_6  and  C_7
REMARK                            x       y       z     vdW  Elec       q    Type
REMARK                         _______ _______ _______ _____ _____    ______ ____
ROOT
ATOM      1  C   UNL     1       4.118   6.081  -5.114  0.00  0.00    +0.149 A 
ATOM      2  O   UNL     1       4.783   5.441  -6.054  0.00  0.00    -0.453 OA
ATOM      3  C   UNL     1       4.471   5.529  -7.329  0.00  0.00    +0.155 A 
ATOM      4  C   UNL     1       3.336   6.226  -7.711  0.00  0.00    +0.113 A 
ATOM      5  C   UNL     1       3.018   6.317  -9.058  0.00  0.00    +0.205 A 
ATOM      6  C   UNL     1       3.936   5.872 -10.001  0.00  0.00    +0.084 A 
ATOM      7  C   UNL     1       5.192   5.438  -9.621  0.00  0.00    +0.202 A 
ATOM      8  O   UNL     1       6.253   5.691 -10.493  0.00  0.00    -0.286 OA
ATOM      9  O   UNL     1       1.845   6.962  -9.408  0.00  0.00    -0.286 OA
ATOM     10  C   UNL     1       2.723   7.047  -6.771  0.00  0.00    +0.205 A 
ATOM     11  O   UNL     1       1.940   7.967  -7.151  0.00  0.00    -0.286 OA
ATOM     12  C   UNL     1       5.360   5.098  -8.304  0.00  0.00    +0.080 A 
ATOM     13  C   UNL     1       3.332   7.143  -5.537  0.00  0.00    +0.080 A 
ENDROOT
BRANCH   1  18
ATOM     14  C   UNL     1       3.940   6.262  -1.013  0.00  0.00    +0.177 A 
ATOM     15  C   UNL     1       4.167   5.012  -1.577  0.00  0.00    +0.229 A 
ATOM     16  O   UNL     1       3.645   3.918  -0.891  0.00  0.00    -0.283 OA
ATOM     17  C   UNL     1       4.319   4.899  -2.955  0.00  0.00    +0.048 A 
ATOM     18  C   UNL     1       4.617   6.012  -3.733  0.00  0.00    +0.038 A 
ATOM     19  C   UNL     1       4.914   7.165  -3.015  0.00  0.00    +0.006 A 
ATOM     20  C   UNL     1       4.544   7.321  -1.685  0.00  0.00    +0.040 A 
BRANCH  14  22
ATOM     21  C   UNL     1       1.633   6.896  -0.406  0.00  0.00    +0.253 C 
ATOM     22  O   UNL     1       2.944   6.477  -0.057  0.00  0.00    -0.468 OA
ENDBRANCH  14  22
ENDBRANCH   1  18
TORSDOF 2
ENDMDL
MODEL 2
REMARK VINA RESULT:      -8.1      3.979      8.921
REMARK  Name = 
REMARK  2 active torsions:
REMARK  status: ('A' for Active; 'I' for Inactive)
REMARK    1  A    between atoms: O_2  and  C_3
REMARK    2  A    between atoms: C_6  and  C_7
REMARK                            x       y       z     vdW  Elec       q    Type
REMARK                         _______ _______ _______ _____ _____    ______ ____
ROOT
ATOM      1  C   UNL     1       0.522   6.034  -9.924  0.00  0.00    +0.149 A 
ATOM      2  O   UNL     1      -0.314   5.478  -9.072  0.00  0.00    -0.453 OA
ATOM      3  C   UNL     1      -0.157   5.560  -7.768  0.00  0.00    +0.155 A 
ATOM      4  C   UNL     1       0.982   6.152  -7.250  0.00  0.00    +0.113 A 
ATOM      5  C   UNL     1       1.136   6.237  -5.874  0.00  0.00    +0.205 A 
ATOM      6  C   UNL     1       0.068   5.899  -5.052  0.00  0.00    +0.084 A 
ATOM      7  C   UNL     1      -1.166   5.580  -5.586  0.00  0.00    +0.202 A 
ATOM      8  O   UNL     1      -2.299   5.949  -4.856  0.00  0.00    -0.286 OA
ATOM      9  O   UNL     1       2.313   6.775  -5.382  0.00  0.00    -0.286 OA
ATOM     10  C   UNL     1       1.785   6.894  -8.109  0.00  0.00    +0.205 A 
ATOM     11  O   UNL     1       2.599   7.743  -7.639  0.00  0.00    -0.286 OA
ATOM     12  C   UNL     1      -1.200   5.233  -6.911  0.00  0.00    +0.080 A 
ATOM     13  C   UNL     1       1.348   7.025  -9.412  0.00  0.00    +0.080 A 
ENDROOT
BRANCH   1  18
ATOM     14  C   UNL     1       1.242   5.993 -13.969  0.00  0.00    +0.177 A 
ATOM     15  C   UNL     1       0.732   4.827 -13.410  0.00  0.00    +0.229 A 
ATOM     16  O   UNL     1       1.136   3.629 -13.995  0.00  0.00    -0.283 OA
ATOM     17  C   UNL     1       0.390   4.806 -12.062  0.00  0.00    +0.048 A 
ATOM     18  C   UNL     1       0.196   5.988 -11.357  0.00  0.00    +0.038 A 
ATOM     19  C   UNL     1       0.198   7.140 -12.135  0.00  0.00    +0.006 A 
ATOM     20  C   UNL     1       0.753   7.168 -13.408  0.00  0.00    +0.040 A 
BRANCH  14  22
ATOM     21  C   UNL     1       3.690   5.889 -14.270  0.00  0.00    +0.253 C 
ATOM     22  O   UNL     1       2.373   5.990 -14.790  0.00  0.00    -0.468 OA
ENDBRANCH  14  22
ENDBRANCH   1  18
TORSDOF 2
ENDMDL
MODEL 3
REMARK VINA RESULT:      -8.0      2.806      7.146
REMARK  Name = 
REMARK  2 active torsions:
REMARK  status: ('A' for Active; 'I' for Inactive)
REMARK    1  A    between atoms: O_2  and  C_3
REMARK    2  A    between atoms: C_6  and  C_7
REMARK                            x       y       z     vdW  Elec       q    Type
REMARK                         _______ _______ _______ _____ _____    ______ ____
ROOT
ATOM      1  C   UNL     1       2.821   4.941  -7.352  0.00  0.00    +0.149 A 
ATOM      2  O   UNL     1       1.512   4.909  -7.483  0.00  0.00    -0.453 OA
ATOM      3  C   UNL     1       0.692   5.054  -6.464  0.00  0.00    +0.155 A 
ATOM      4  C   UNL     1       1.204   5.135  -5.179  0.00  0.00    +0.113 A 
ATOM      5  C   UNL     1       0.332   5.293  -4.111  0.00  0.00    +0.205 A 
ATOM      6  C   UNL     1      -1.009   5.553  -4.365  0.00  0.00    +0.084 A 
ATOM      7  C   UNL     1      -1.461   5.756  -5.655  0.00  0.00    +0.202 A 
ATOM      8  O   UNL     1      -2.506   6.665  -5.837  0.00  0.00    -0.286 OA
ATOM      9  O   UNL     1       0.863   5.305  -2.833  0.00  0.00    -0.286 OA
ATOM     10  C   UNL     1       2.569   5.346  -5.028  0.00  0.00    +0.205 A 
ATOM     11  O   UNL     1       3.023   5.794  -3.933  0.00  0.00    -0.286 OA
ATOM     12  C   UNL     1      -0.655   5.318  -6.673  0.00  0.00    +0.080 A 
ATOM     13  C   UNL     1       3.305   5.514  -6.184  0.00  0.00    +0.080 A 
ENDROOT
BRANCH   1  18
ATOM     14  C   UNL     1       5.127   6.394 -10.426  0.00  0.00    +0.177 A 
ATOM     15  C   UNL     1       5.770   5.609  -9.476  0.00  0.00    +0.229 A 
ATOM     16  O   UNL     1       7.101   5.921  -9.210  0.00  0.00    -0.283 OA
ATOM     17  C   UNL     1       5.028   5.021  -8.457  0.00  0.00    +0.048 A 
ATOM     18  C   UNL     1       3.648   4.888  -8.566  0.00  0.00    +0.038 A 
ATOM     19  C   UNL     1       3.125   5.219  -9.811  0.00  0.00    +0.006 A 
ATOM     20  C   UNL     1       3.826   6.001 -10.720  0.00  0.00    +0.040 A 
BRANCH  14  22
ATOM     21  C   UNL     1       6.429   7.820 -11.964  0.00  0.00    +0.253 C 
ATOM     22  O   UNL     1       5.618   7.644 -10.812  0.00  0.00    -0.468 OA
ENDBRANCH  14  22
ENDBRANCH   1  18
TORSDOF 2
ENDMDL
MODEL 4
REMARK VINA RESULT:      -7.9      3.337      7.861
REMARK  Name = 
REMARK  2 active torsions:
REMARK  status: ('A' for Active; 'I' for Inactive)
REMARK    1  A    between atoms: O_2  and  C_3
REMARK    2  A    between atoms: C_6  and  C_7
REMARK                            x       y       z     vdW  Elec       q    Type
REMARK                         _______ _______ _______ _____ _____    ______ ____
ROOT
ATOM      1  C   UNL     1       3.235   5.988  -9.239  0.00  0.00    +0.149 A 
ATOM      2  O   UNL     1       1.963   5.645  -9.232  0.00  0.00    -0.453 OA
ATOM      3  C   UNL     1       1.301   5.393  -8.124  0.00  0.00    +0.155 A 
ATOM      4  C   UNL     1       1.974   5.372  -6.913  0.00  0.00    +0.113 A 
ATOM      5  C   UNL     1       1.266   5.110  -5.749  0.00  0.00    +0.205 A 
ATOM      6  C   UNL     1      -0.121   5.060  -5.797  0.00  0.00    +0.084 A 
ATOM      7  C   UNL     1      -0.802   5.367  -6.960  0.00  0.00    +0.202 A 
ATOM      8  O   UNL     1      -2.044   5.996  -6.833  0.00  0.00    -0.286 OA
ATOM      9  O   UNL     1       1.973   5.030  -4.562  0.00  0.00    -0.286 OA
ATOM     10  C   UNL     1       3.261   5.895  -6.869  0.00  0.00    +0.205 A 
ATOM     11  O   UNL     1       3.765   6.242  -5.759  0.00  0.00    -0.286 OA
ATOM     12  C   UNL     1      -0.086   5.337  -8.128  0.00  0.00    +0.080 A 
ATOM     13  C   UNL     1       3.750   6.448  -8.035  0.00  0.00    +0.080 A 
ENDROOT
BRANCH   1  18
ATOM     14  C   UNL     1       5.972   5.862 -12.300  0.00  0.00    +0.177 A 
ATOM     15  C   UNL     1       4.681   5.439 -12.594  0.00  0.00    +0.229 A 
ATOM     16  O   UNL     1       4.561   4.428 -13.545  0.00  0.00    -0.283 OA
ATOM     17  C   UNL     1       3.690   5.535 -11.623  0.00  0.00    +0.048 A 
ATOM     18  C   UNL     1       3.853   6.364 -10.519  0.00  0.00    +0.038 A 
ATOM     19  C   UNL     1       4.971   7.188 -10.565  0.00  0.00    +0.006 A 
ATOM     20  C   UNL     1       6.045   6.926 -11.407  0.00  0.00    +0.040 A 
BRANCH  14  22
ATOM     21  C   UNL     1       8.420   5.566 -12.417  0.00  0.00    +0.253 C 
ATOM     22  O   UNL     1       7.096   5.094 -12.615  0.00  0.00    -0.468 OA
ENDBRANCH  14  22
ENDBRANCH   1  18
TORSDOF 2
ENDMDL
MODEL 5
REMARK VINA RESULT:      -7.9      2.768      4.330
REMARK  Name = 
REMARK  2 active torsions:
REMARK  status: ('A' for Active; 'I' for Inactive)
REMARK    1  A    between atoms: O_2  and  C_3
REMARK    2  A    between atoms: C_6  and  C_7
REMARK                            x       y       z     vdW  Elec       q    Type
REMARK                         _______ _______ _______ _____ _____    ______ ____
ROOT
ATOM      1  C   UNL     1       4.243   6.079  -8.900  0.00  0.00    +0.149 A 
ATOM      2  O   UNL     1       5.522   5.806  -9.059  0.00  0.00    -0.453 OA
ATOM      3  C   UNL     1       6.051   5.545 -10.235  0.00  0.00    +0.155 A 
ATOM      4  C   UNL     1       5.232   5.437 -11.347  0.00  0.00    +0.113 A 
ATOM      5  C   UNL     1       5.801   5.167 -12.583  0.00  0.00    +0.205 A 
ATOM      6  C   UNL     1       7.184   5.194 -12.713  0.00  0.00    +0.084 A 
ATOM      7  C   UNL     1       7.988   5.584 -11.659  0.00  0.00    +0.202 A 
ATOM      8  O   UNL     1       9.164   6.274 -11.966  0.00  0.00    -0.286 OA
ATOM      9  O   UNL     1       4.955   5.000 -13.666  0.00  0.00    -0.286 OA
ATOM     10  C   UNL     1       3.922   5.888 -11.242  0.00  0.00    +0.205 A 
ATOM     11  O   UNL     1       3.262   6.161 -12.289  0.00  0.00    -0.286 OA
ATOM     12  C   UNL     1       7.429   5.563 -10.408  0.00  0.00    +0.080 A 
ATOM     13  C   UNL     1       3.553   6.461 -10.042  0.00  0.00    +0.080 A 
ENDROOT
BRANCH   1  18
ATOM     14  C   UNL     1       1.982   5.883  -5.475  0.00  0.00    +0.177 A 
ATOM     15  C   UNL     1       3.339   5.605  -5.349  0.00  0.00    +0.229 A 
ATOM     16  O   UNL     1       3.694   4.672  -4.378  0.00  0.00    -0.283 OA
ATOM     17  C   UNL     1       4.171   5.736  -6.456  0.00  0.00    +0.048 A 
ATOM     18  C   UNL     1       3.772   6.473  -7.564  0.00  0.00    +0.038 A 
ATOM     19  C   UNL     1       2.591   7.187  -7.398  0.00  0.00    +0.006 A 
ATOM     20  C   UNL     1       1.676   6.876  -6.400  0.00  0.00    +0.040 A 
BRANCH  14  22
ATOM     21  C   UNL     1       0.237   5.352  -3.812  0.00  0.00    +0.253 C 
ATOM     22  O   UNL     1       0.999   5.030  -4.965  0.00  0.00    -0.468 OA
ENDBRANCH  14  22
ENDBRANCH   1  18
TORSDOF 2
ENDMDL
MODEL 6
REMARK VINA RESULT:      -7.8      2.100      7.104
REMARK  Name = 
REMARK  2 active torsions:
REMARK  status: ('A' for Active; 'I' for Inactive)
REMARK    1  A    between atoms: O_2  and  C_3
REMARK    2  A    between atoms: C_6  and  C_7
REMARK                            x       y       z     vdW  Elec       q    Type
REMARK                         _______ _______ _______ _____ _____    ______ ____
ROOT
ATOM      1  C   UNL     1       3.616   5.094  -7.248  0.00  0.00    +0.149 A 
ATOM      2  O   UNL     1       4.237   5.393  -6.126  0.00  0.00    -0.453 OA
ATOM      3  C   UNL     1       3.611   5.496  -4.973  0.00  0.00    +0.155 A 
ATOM      4  C   UNL     1       2.230   5.400  -4.932  0.00  0.00    +0.113 A 
ATOM      5  C   UNL     1       1.580   5.505  -3.711  0.00  0.00    +0.205 A 
ATOM      6  C   UNL     1       2.331   5.516  -2.543  0.00  0.00    +0.084 A 
ATOM      7  C   UNL     1       3.699   5.323  -2.577  0.00  0.00    +0.202 A 
ATOM      8  O   UNL     1       4.281   4.644  -1.503  0.00  0.00    -0.286 OA
ATOM      9  O   UNL     1       0.196   5.472  -3.706  0.00  0.00    -0.286 OA
ATOM     10  C   UNL     1       1.572   4.917  -6.057  0.00  0.00    +0.205 A 
ATOM     11  O   UNL     1       0.394   4.462  -5.954  0.00  0.00    -0.286 OA
ATOM     12  C   UNL     1       4.324   5.508  -3.782  0.00  0.00    +0.080 A 
ATOM     13  C   UNL     1       2.361   4.517  -7.117  0.00  0.00    +0.080 A 
ENDROOT
BRANCH   1  18
ATOM     14  C   UNL     1       5.597   6.124 -10.697  0.00  0.00    +0.177 A 
ATOM     15  C   UNL     1       6.377   5.699  -9.628  0.00  0.00    +0.229 A 
ATOM     16  O   UNL     1       7.641   6.273  -9.515  0.00  0.00    -0.283 OA
ATOM     17  C   UNL     1       5.760   5.259  -8.461  0.00  0.00    +0.048 A 
ATOM     18  C   UNL     1       4.420   4.887  -8.461  0.00  0.00    +0.038 A 
ATOM     19  C   UNL     1       3.829   4.826  -9.717  0.00  0.00    +0.006 A 
ATOM     20  C   UNL     1       4.374   5.472 -10.820  0.00  0.00    +0.040 A 
BRANCH  14  22
ATOM     21  C   UNL     1       6.460   7.320 -12.676  0.00  0.00    +0.253 C 
ATOM     22  O   UNL     1       5.865   7.309 -11.388  0.00  0.00    -0.468 OA
ENDBRANCH  14  22
ENDBRANCH   1  18
TORSDOF 2
ENDMDL
MODEL 7
REMARK VINA RESULT:      -7.8      3.467      7.887
REMARK  Name = 
REMARK  2 active torsions:
REMARK  status: ('A' for Active; 'I' for Inactive)
REMARK    1  A    between atoms: O_2  and  C_3
REMARK    2  A    between atoms: C_6  and  C_7
REMARK                            x       y       z     vdW  Elec       q    Type
REMARK                         _______ _______ _______ _____ _____    ______ ____
ROOT
ATOM      1  C   UNL     1       0.619   6.189  -5.958  0.00  0.00    +0.149 A 
ATOM      2  O   UNL     1      -0.645   5.922  -5.702  0.00  0.00    -0.453 OA
ATOM      3  C   UNL     1      -1.095   5.718  -4.483  0.00  0.00    +0.155 A 
ATOM      4  C   UNL     1      -0.205   5.667  -3.423  0.00  0.00    +0.113 A 
ATOM      5  C   UNL     1      -0.690   5.457  -2.140  0.00  0.00    +0.205 A 
ATOM      6  C   UNL     1      -2.061   5.488  -1.921  0.00  0.00    +0.084 A 
ATOM      7  C   UNL     1      -2.935   5.824  -2.938  0.00  0.00    +0.202 A 
ATOM      8  O   UNL     1      -4.092   6.526  -2.589  0.00  0.00    -0.286 OA
ATOM      9  O   UNL     1       0.226   5.345  -1.108  0.00  0.00    -0.286 OA
ATOM     10  C   UNL     1       1.094   6.115  -3.635  0.00  0.00    +0.205 A 
ATOM     11  O   UNL     1       1.819   6.440  -2.649  0.00  0.00    -0.286 OA
ATOM     12  C   UNL     1      -2.459   5.743  -4.220  0.00  0.00    +0.080 A 
ATOM     13  C   UNL     1       1.380   6.628  -4.884  0.00  0.00    +0.080 A 
ENDROOT
BRANCH   1  18
ATOM     14  C   UNL     1       2.691   5.863  -9.490  0.00  0.00    +0.177 A 
ATOM     15  C   UNL     1       1.341   5.533  -9.521  0.00  0.00    +0.229 A 
ATOM     16  O   UNL     1       0.967   4.531 -10.414  0.00  0.00    -0.283 OA
ATOM     17  C   UNL     1       0.567   5.701  -8.377  0.00  0.00    +0.048 A 
ATOM     18  C   UNL     1       1.000   6.518  -7.339  0.00  0.00    +0.038 A 
ATOM     19  C   UNL     1       2.142   7.260  -7.615  0.00  0.00    +0.006 A 
ATOM     20  C   UNL     1       3.011   6.921  -8.645  0.00  0.00    +0.040 A 
BRANCH  14  22
ATOM     21  C   UNL     1       4.616   5.445 -10.978  0.00  0.00    +0.253 C 
ATOM     22  O   UNL     1       3.675   5.016 -10.006  0.00  0.00    -0.468 OA
ENDBRANCH  14  22
ENDBRANCH   1  18
TORSDOF 2
ENDMDL
MODEL 8
REMARK VINA RESULT:      -7.6      3.978      5.503
REMARK  Name = 
REMARK  2 active torsions:
REMARK  status: ('A' for Active; 'I' for Inactive)
REMARK    1  A    between atoms: O_2  and  C_3
REMARK    2  A    between atoms: C_6  and  C_7
REMARK                            x       y       z     vdW  Elec       q    Type
REMARK                         _______ _______ _______ _____ _____    ______ ____
ROOT
ATOM      1  C   UNL     1       1.395   5.523  -8.695  0.00  0.00    +0.149 A 
ATOM      2  O   UNL     1       0.667   5.489  -9.792  0.00  0.00    -0.453 OA
ATOM      3  C   UNL     1       1.194   5.537 -10.996  0.00  0.00    +0.155 A 
ATOM      4  C   UNL     1       2.556   5.743 -11.141  0.00  0.00    +0.113 A 
ATOM      5  C   UNL     1       3.103   5.786 -12.415  0.00  0.00    +0.205 A 
ATOM      6  C   UNL     1       2.312   5.440 -13.504  0.00  0.00    +0.084 A 
ATOM      7  C   UNL     1       1.029   4.958 -13.324  0.00  0.00    +0.202 A 
ATOM      8  O   UNL     1       0.567   4.001 -14.232  0.00  0.00    -0.286 OA
ATOM      9  O   UNL     1       4.455   6.058 -12.534  0.00  0.00    -0.286 OA
ATOM     10  C   UNL     1       3.363   5.607 -10.018  0.00  0.00    +0.205 A 
ATOM     11  O   UNL     1       4.608   5.412 -10.153  0.00  0.00    -0.286 OA
ATOM     12  C   UNL     1       0.439   5.197 -12.111  0.00  0.00    +0.080 A 
ATOM     13  C   UNL     1       2.741   5.222  -8.847  0.00  0.00    +0.080 A 
ENDROOT
BRANCH   1  18
ATOM     14  C   UNL     1      -0.740   6.615  -5.359  0.00  0.00    +0.177 A 
ATOM     15  C   UNL     1      -1.367   5.754  -6.253  0.00  0.00    +0.229 A 
ATOM     16  O   UNL     1      -2.750   5.878  -6.367  0.00  0.00    -0.283 OA
ATOM     17  C   UNL     1      -0.666   5.283  -7.358  0.00  0.00    +0.048 A 
ATOM     18  C   UNL     1       0.722   5.345  -7.401  0.00  0.00    +0.038 A 
ATOM     19  C   UNL     1       1.327   5.737  -6.213  0.00  0.00    +0.006 A 
ATOM     20  C   UNL     1       0.628   6.407  -5.216  0.00  0.00    +0.040 A 
BRANCH  14  22
ATOM     21  C   UNL     1      -2.011   7.845  -3.638  0.00  0.00    +0.253 C 
ATOM     22  O   UNL     1      -1.355   7.781  -4.895  0.00  0.00    -0.468 OA
ENDBRANCH  14  22
ENDBRANCH   1  18
TORSDOF 2
ENDMDL
MODEL 9
REMARK VINA RESULT:      -7.6      3.788      5.088
REMARK  Name = 
REMARK  2 active torsions:
REMARK  status: ('A' for Active; 'I' for Inactive)
REMARK    1  A    between atoms: O_2  and  C_3
REMARK    2  A    between atoms: C_6  and  C_7
REMARK                            x       y       z     vdW  Elec       q    Type
REMARK                         _______ _______ _______ _____ _____    ______ ____
ROOT
ATOM      1  C   UNL     1       4.089   6.109  -8.826  0.00  0.00    +0.149 A 
ATOM      2  O   UNL     1       3.412   6.143  -9.955  0.00  0.00    -0.453 OA
ATOM      3  C   UNL     1       3.990   6.035 -11.132  0.00  0.00    +0.155 A 
ATOM      4  C   UNL     1       5.372   5.995 -11.217  0.00  0.00    +0.113 A 
ATOM      5  C   UNL     1       5.971   5.877 -12.462  0.00  0.00    +0.205 A 
ATOM      6  C   UNL     1       5.179   5.614 -13.573  0.00  0.00    +0.084 A 
ATOM      7  C   UNL     1       3.825   5.370 -13.437  0.00  0.00    +0.202 A 
ATOM      8  O   UNL     1       3.242   4.460 -14.322  0.00  0.00    -0.286 OA
ATOM      9  O   UNL     1       7.354   5.905 -12.525  0.00  0.00    -0.286 OA
ATOM     10  C   UNL     1       6.095   5.783 -10.049  0.00  0.00    +0.205 A 
ATOM     11  O   UNL     1       7.291   5.370 -10.112  0.00  0.00    -0.286 OA
ATOM     12  C   UNL     1       3.234   5.771 -12.267  0.00  0.00    +0.080 A 
ATOM     13  C   UNL     1       5.367   5.574  -8.895  0.00  0.00    +0.080 A 
ENDROOT
BRANCH   1  18
ATOM     14  C   UNL     1       0.795   5.930  -6.376  0.00  0.00    +0.177 A 
ATOM     15  C   UNL     1       1.697   4.875  -6.294  0.00  0.00    +0.229 A 
ATOM     16  O   UNL     1       1.163   3.623  -5.999  0.00  0.00    -0.283 OA
ATOM     17  C   UNL     1       2.872   4.918  -7.037  0.00  0.00    +0.048 A 
ATOM     18  C   UNL     1       3.340   6.118  -7.560  0.00  0.00    +0.038 A 
ATOM     19  C   UNL     1       2.652   7.250  -7.137  0.00  0.00    +0.006 A 
ATOM     20  C   UNL     1       1.375   7.175  -6.594  0.00  0.00    +0.040 A 
BRANCH  14  22
ATOM     21  C   UNL     1      -1.503   5.846  -5.479  0.00  0.00    +0.253 C 
ATOM     22  O   UNL     1      -0.577   5.722  -6.547  0.00  0.00    -0.468 OA
ENDBRANCH  14  22
ENDBRANCH   1  18
TORSDOF 2
ENDMDL
