MODEL 1
REMARK VINA RESULT:      -7.5      0.000      0.000
REMARK  Name = 
REMARK  6 active torsions:
REMARK  status: ('A' for Active; 'I' for Inactive)
REMARK    1  A    between atoms: N_2  and  C_4
REMARK    2  A    between atoms: C_4  and  C_5
REMARK    3  A    between atoms: C_5  and  C_6
REMARK    4  A    between atoms: C_6  and  C_7
REMARK    5  A    between atoms: C_7  and  C_8
REMARK    6  A    between atoms: C_19  and  C_20
REMARK                            x       y       z     vdW  Elec       q    Type
REMARK                         _______ _______ _______ _____ _____    ______ ____
ROOT
ATOM      1  C   UNL     1       2.059   6.107  -6.424  0.00  0.00    +0.130 C 
ATOM      2  C   UNL     1       2.550   5.582  -7.736  0.00  0.00    +0.004 A 
ATOM      3  C   UNL     1       2.545   6.701  -8.560  0.00  0.00    +0.006 A 
ATOM      4  C   UNL     1       2.862   6.484  -9.888  0.00  0.00    +0.008 A 
ATOM      5  C   UNL     1       3.669   5.434 -10.302  0.00  0.00    +0.068 A 
ATOM      6  C   UNL     1       3.939   4.463  -9.372  0.00  0.00    +0.010 A 
ATOM      7  C   UNL     1       2.362   7.913  -7.703  0.00  0.00    +0.169 C 
ATOM      8  C   UNL     1       3.350   4.511  -8.114  0.00  0.00    -0.001 A 
ATOM      9  O   UNL     1       2.638   7.385  -6.432  0.00  0.00    -0.346 OA
ENDROOT
BRANCH   1  10
ATOM     10  C   UNL     1       0.590   6.244  -6.391  0.00  0.00    +0.006 A 
ATOM     11  C   UNL     1      -0.212   5.411  -7.155  0.00  0.00    +0.001 A 
ATOM     12  C   UNL     1      -1.529   5.156  -6.801  0.00  0.00    +0.029 A 
ATOM     13  C   UNL     1      -2.042   5.733  -5.647  0.00  0.00    +0.140 A 
ATOM     14  F   UNL     1      -3.157   5.207  -5.063  0.00  0.00    -0.204 F 
ATOM     15  C   UNL     1      -1.383   6.818  -5.106  0.00  0.00    +0.029 A 
ATOM     16  C   UNL     1      -0.034   6.917  -5.349  0.00  0.00    +0.001 A 
ENDBRANCH   1  10
BRANCH   5  17
ATOM     17  C   UNL     1       4.461   5.488 -11.497  0.00  0.00    +0.100 C 
ATOM     18  N   UNL     1       5.134   5.235 -12.415  0.00  0.00    -0.191 NA
ENDBRANCH   5  17
BRANCH   1  19
ATOM     19  C   UNL     1       2.604   5.333  -5.258  0.00  0.00    +0.037 C 
BRANCH  19  20
ATOM     20  C   UNL     1       3.965   5.921  -4.928  0.00  0.00    +0.020 C 
BRANCH  20  21
ATOM     21  C   UNL     1       4.172   5.954  -3.430  0.00  0.00    +0.072 C 
BRANCH  21  23
ATOM     22  C   UNL     1       5.425   7.757  -4.206  0.00  0.00    +0.090 C 
ATOM     23  N   UNL     1       4.823   7.189  -3.008  0.00  0.00    -0.270 NA
ATOM     24  C   UNL     1       3.782   8.061  -2.479  0.00  0.00    +0.090 C 
ENDBRANCH  21  23
ENDBRANCH  20  21
ENDBRANCH  19  20
ENDBRANCH   1  19
TORSDOF 6
ENDMDL
MODEL 2
REMARK VINA RESULT:      -7.5      3.528      7.284
REMARK  Name = 
REMARK  6 active torsions:
REMARK  status: ('A' for Active; 'I' for Inactive)
REMARK    1  A    between atoms: N_2  and  C_4
REMARK    2  A    between atoms: C_4  and  C_5
REMARK    3  A    between atoms: C_5  and  C_6
REMARK    4  A    between atoms: C_6  and  C_7
REMARK    5  A    between atoms: C_7  and  C_8
REMARK    6  A    between atoms: C_19  and  C_20
REMARK                            x       y       z     vdW  Elec       q    Type
REMARK                         _______ _______ _______ _____ _____    ______ ____
ROOT
ATOM      1  C   UNL     1       2.583   5.884  -8.941  0.00  0.00    +0.130 C 
ATOM      2  C   UNL     1       2.343   5.484  -7.520  0.00  0.00    +0.004 A 
ATOM      3  C   UNL     1       2.273   6.697  -6.844  0.00  0.00    +0.006 A 
ATOM      4  C   UNL     1       2.158   6.626  -5.470  0.00  0.00    +0.008 A 
ATOM      5  C   UNL     1       1.581   5.542  -4.823  0.00  0.00    +0.068 A 
ATOM      6  C   UNL     1       1.356   4.422  -5.582  0.00  0.00    +0.010 A 
ATOM      7  C   UNL     1       2.159   7.791  -7.858  0.00  0.00    +0.169 C 
ATOM      8  C   UNL     1       1.772   4.376  -6.907  0.00  0.00    -0.001 A 
ATOM      9  O   UNL     1       1.817   7.058  -9.005  0.00  0.00    -0.346 OA
ENDROOT
BRANCH   1  10
ATOM     10  C   UNL     1       3.998   6.218  -9.197  0.00  0.00    +0.006 A 
ATOM     11  C   UNL     1       5.012   5.542  -8.536  0.00  0.00    +0.001 A 
ATOM     12  C   UNL     1       6.287   5.451  -9.074  0.00  0.00    +0.029 A 
ATOM     13  C   UNL     1       6.541   6.033 -10.309  0.00  0.00    +0.140 A 
ATOM     14  F   UNL     1       7.625   5.635 -11.036  0.00  0.00    -0.204 F 
ATOM     15  C   UNL     1       5.664   6.989 -10.779  0.00  0.00    +0.029 A 
ATOM     16  C   UNL     1       4.364   6.916 -10.341  0.00  0.00    +0.001 A 
ENDBRANCH   1  10
BRANCH   5  17
ATOM     17  C   UNL     1       0.941   5.652  -3.543  0.00  0.00    +0.100 C 
ATOM     18  N   UNL     1       0.328   5.460  -2.570  0.00  0.00    -0.191 NA
ENDBRANCH   5  17
BRANCH   1  19
ATOM     19  C   UNL     1       2.029   4.887  -9.918  0.00  0.00    +0.037 C 
BRANCH  19  20
ATOM     20  C   UNL     1       0.615   5.331 -10.256  0.00  0.00    +0.020 C 
BRANCH  20  21
ATOM     21  C   UNL     1       0.274   4.950 -11.679  0.00  0.00    +0.072 C 
BRANCH  21  23
ATOM     22  C   UNL     1       1.065   4.745 -13.860  0.00  0.00    +0.090 C 
ATOM     23  N   UNL     1       1.245   5.492 -12.624  0.00  0.00    -0.270 NA
ATOM     24  C   UNL     1       0.918   6.900 -12.809  0.00  0.00    +0.090 C 
ENDBRANCH  21  23
ENDBRANCH  20  21
ENDBRANCH  19  20
ENDBRANCH   1  19
TORSDOF 6
ENDMDL
MODEL 3
REMARK VINA RESULT:      -7.3      3.360      5.714
REMARK  Name = 
REMARK  6 active torsions:
REMARK  status: ('A' for Active; 'I' for Inactive)
REMARK    1  A    between atoms: N_2  and  C_4
REMARK    2  A    between atoms: C_4  and  C_5
REMARK    3  A    between atoms: C_5  and  C_6
REMARK    4  A    between atoms: C_6  and  C_7
REMARK    5  A    between atoms: C_7  and  C_8
REMARK    6  A    between atoms: C_19  and  C_20
REMARK                            x       y       z     vdW  Elec       q    Type
REMARK                         _______ _______ _______ _____ _____    ______ ____
ROOT
ATOM      1  C   UNL     1       3.272   5.717  -6.162  0.00  0.00    +0.130 C 
ATOM      2  C   UNL     1       1.849   6.085  -5.884  0.00  0.00    +0.004 A 
ATOM      3  C   UNL     1       1.147   4.919  -6.168  0.00  0.00    +0.006 A 
ATOM      4  C   UNL     1      -0.230   5.002  -6.096  0.00  0.00    +0.008 A 
ATOM      5  C   UNL     1      -0.883   5.915  -5.280  0.00  0.00    +0.068 A 
ATOM      6  C   UNL     1      -0.113   6.910  -4.732  0.00  0.00    +0.010 A 
ATOM      7  C   UNL     1       2.131   3.802  -6.307  0.00  0.00    +0.169 C 
ATOM      8  C   UNL     1       1.232   7.022  -5.065  0.00  0.00    -0.001 A 
ATOM      9  O   UNL     1       3.274   4.380  -5.734  0.00  0.00    -0.346 OA
ENDROOT
BRANCH   1  10
ATOM     10  C   UNL     1       3.590   5.762  -7.602  0.00  0.00    +0.006 A 
ATOM     11  C   UNL     1       2.893   6.606  -8.452  0.00  0.00    +0.001 A 
ATOM     12  C   UNL     1       3.449   7.050  -9.642  0.00  0.00    +0.029 A 
ATOM     13  C   UNL     1       4.739   6.656  -9.973  0.00  0.00    +0.140 A 
ATOM     14  F   UNL     1       5.450   7.367 -10.896  0.00  0.00    -0.204 F 
ATOM     15  C   UNL     1       5.276   5.558  -9.332  0.00  0.00    +0.029 A 
ATOM     16  C   UNL     1       4.803   5.274  -8.074  0.00  0.00    +0.001 A 
ENDBRANCH   1  10
BRANCH   5  17
ATOM     17  C   UNL     1      -2.194   5.682  -4.746  0.00  0.00    +0.100 C 
ATOM     18  N   UNL     1      -3.104   5.339  -4.102  0.00  0.00    -0.191 NA
ENDBRANCH   5  17
BRANCH   1  19
ATOM     19  C   UNL     1       4.240   6.499  -5.321  0.00  0.00    +0.037 C 
BRANCH  19  20
ATOM     20  C   UNL     1       4.709   5.579  -4.206  0.00  0.00    +0.020 C 
BRANCH  20  21
ATOM     21  C   UNL     1       4.327   6.153  -2.860  0.00  0.00    +0.072 C 
BRANCH  21  23
ATOM     22  C   UNL     1       3.914   4.598  -1.177  0.00  0.00    +0.090 C 
ATOM     23  N   UNL     1       3.270   5.371  -2.228  0.00  0.00    -0.270 NA
ATOM     24  C   UNL     1       2.314   6.320  -1.670  0.00  0.00    +0.090 C 
ENDBRANCH  21  23
ENDBRANCH  20  21
ENDBRANCH  19  20
ENDBRANCH   1  19
TORSDOF 6
ENDMDL
MODEL 4
REMARK VINA RESULT:      -7.3      2.907      5.230
REMARK  Name = 
REMARK  6 active torsions:
REMARK  status: ('A' for Active; 'I' for Inactive)
REMARK    1  A    between atoms: N_2  and  C_4
REMARK    2  A    between atoms: C_4  and  C_5
REMARK    3  A    between atoms: C_5  and  C_6
REMARK    4  A    between atoms: C_6  and  C_7
REMARK    5  A    between atoms: C_7  and  C_8
REMARK    6  A    between atoms: C_19  and  C_20
REMARK                            x       y       z     vdW  Elec       q    Type
REMARK                         _______ _______ _______ _____ _____    ______ ____
ROOT
ATOM      1  C   UNL     1       1.419   5.544  -9.097  0.00  0.00    +0.130 C 
ATOM      2  C   UNL     1       2.863   5.931  -9.173  0.00  0.00    +0.004 A 
ATOM      3  C   UNL     1       3.528   4.813  -8.685  0.00  0.00    +0.006 A 
ATOM      4  C   UNL     1       4.898   4.930  -8.543  0.00  0.00    +0.008 A 
ATOM      5  C   UNL     1       5.658   5.794  -9.317  0.00  0.00    +0.068 A 
ATOM      6  C   UNL     1       4.971   6.719 -10.061  0.00  0.00    +0.010 A 
ATOM      7  C   UNL     1       2.553   3.681  -8.613  0.00  0.00    +0.169 C 
ATOM      8  C   UNL     1       3.589   6.818  -9.958  0.00  0.00    -0.001 A 
ATOM      9  O   UNL     1       1.508   4.179  -9.408  0.00  0.00    -0.346 OA
ENDROOT
BRANCH   1  10
ATOM     10  C   UNL     1       0.872   5.694  -7.735  0.00  0.00    +0.006 A 
ATOM     11  C   UNL     1       1.438   6.590  -6.842  0.00  0.00    +0.001 A 
ATOM     12  C   UNL     1       0.704   7.122  -5.792  0.00  0.00    +0.029 A 
ATOM     13  C   UNL     1      -0.629   6.764  -5.651  0.00  0.00    +0.140 A 
ATOM     14  F   UNL     1      -1.467   7.544  -4.908  0.00  0.00    -0.204 F 
ATOM     15  C   UNL     1      -1.077   5.628  -6.295  0.00  0.00    +0.029 A 
ATOM     16  C   UNL     1      -0.411   5.252  -7.436  0.00  0.00    +0.001 A 
ENDBRANCH   1  10
BRANCH   5  17
ATOM     17  C   UNL     1       7.042   5.558  -9.613  0.00  0.00    +0.100 C 
ATOM     18  N   UNL     1       8.187   5.342  -9.551  0.00  0.00    -0.191 NA
ENDBRANCH   5  17
BRANCH   1  19
ATOM     19  C   UNL     1       0.587   6.229 -10.143  0.00  0.00    +0.037 C 
BRANCH  19  20
ATOM     20  C   UNL     1      -0.021   5.141 -11.013  0.00  0.00    +0.020 C 
BRANCH  20  21
ATOM     21  C   UNL     1       0.518   5.236 -12.422  0.00  0.00    +0.072 C 
BRANCH  21  23
ATOM     22  C   UNL     1       2.508   6.054 -13.314  0.00  0.00    +0.090 C 
ATOM     23  N   UNL     1       1.296   6.456 -12.615  0.00  0.00    -0.270 NA
ATOM     24  C   UNL     1       0.489   7.351 -13.435  0.00  0.00    +0.090 C 
ENDBRANCH  21  23
ENDBRANCH  20  21
ENDBRANCH  19  20
ENDBRANCH   1  19
TORSDOF 6
ENDMDL
MODEL 5
REMARK VINA RESULT:      -7.2      2.947      5.045
REMARK  Name = 
REMARK  6 active torsions:
REMARK  status: ('A' for Active; 'I' for Inactive)
REMARK    1  A    between atoms: N_2  and  C_4
REMARK    2  A    between atoms: C_4  and  C_5
REMARK    3  A    between atoms: C_5  and  C_6
REMARK    4  A    between atoms: C_6  and  C_7
REMARK    5  A    between atoms: C_7  and  C_8
REMARK    6  A    between atoms: C_19  and  C_20
REMARK                            x       y       z     vdW  Elec       q    Type
REMARK                         _______ _______ _______ _____ _____    ______ ____
ROOT
ATOM      1  C   UNL     1       1.982   6.047  -4.934  0.00  0.00    +0.130 C 
ATOM      2  C   UNL     1       2.355   6.495  -6.312  0.00  0.00    +0.004 A 
ATOM      3  C   UNL     1       3.038   5.404  -6.839  0.00  0.00    +0.006 A 
ATOM      4  C   UNL     1       3.598   5.580  -8.089  0.00  0.00    +0.008 A 
ATOM      5  C   UNL     1       3.090   6.477  -9.017  0.00  0.00    +0.068 A 
ATOM      6  C   UNL     1       2.159   7.375  -8.558  0.00  0.00    +0.010 A 
ATOM      7  C   UNL     1       2.814   4.232  -5.937  0.00  0.00    +0.169 C 
ATOM      8  C   UNL     1       1.826   7.414  -7.209  0.00  0.00    -0.001 A 
ATOM      9  O   UNL     1       1.728   4.688  -5.172  0.00  0.00    -0.346 OA
ENDROOT
BRANCH   1  10
ATOM     10  C   UNL     1       3.105   6.169  -3.984  0.00  0.00    +0.006 A 
ATOM     11  C   UNL     1       3.956   7.261  -4.035  0.00  0.00    +0.001 A 
ATOM     12  C   UNL     1       4.669   7.672  -2.918  0.00  0.00    +0.029 A 
ATOM     13  C   UNL     1       4.506   6.985  -1.723  0.00  0.00    +0.140 A 
ATOM     14  F   UNL     1       4.859   7.578  -0.546  0.00  0.00    -0.204 F 
ATOM     15  C   UNL     1       3.963   5.717  -1.763  0.00  0.00    +0.029 A 
ATOM     16  C   UNL     1       3.119   5.429  -2.808  0.00  0.00    +0.001 A 
ENDBRANCH   1  10
BRANCH   5  17
ATOM     17  C   UNL     1       3.242   6.301 -10.433  0.00  0.00    +0.100 C 
ATOM     18  N   UNL     1       3.327   5.866 -11.512  0.00  0.00    -0.191 NA
ENDBRANCH   5  17
BRANCH   1  19
ATOM     19  C   UNL     1       0.722   6.699  -4.442  0.00  0.00    +0.037 C 
BRANCH  19  20
ATOM     20  C   UNL     1      -0.291   5.592  -4.206  0.00  0.00    +0.020 C 
BRANCH  20  21
ATOM     21  C   UNL     1      -0.561   5.437  -2.726  0.00  0.00    +0.072 C 
BRANCH  21  23
ATOM     22  C   UNL     1      -2.380   5.749  -1.305  0.00  0.00    +0.090 C 
ATOM     23  N   UNL     1      -1.934   5.009  -2.476  0.00  0.00    -0.270 NA
ATOM     24  C   UNL     1      -2.713   5.369  -3.654  0.00  0.00    +0.090 C 
ENDBRANCH  21  23
ENDBRANCH  20  21
ENDBRANCH  19  20
ENDBRANCH   1  19
TORSDOF 6
ENDMDL
MODEL 6
REMARK VINA RESULT:      -7.2      3.115      6.315
REMARK  Name = 
REMARK  6 active torsions:
REMARK  status: ('A' for Active; 'I' for Inactive)
REMARK    1  A    between atoms: N_2  and  C_4
REMARK    2  A    between atoms: C_4  and  C_5
REMARK    3  A    between atoms: C_5  and  C_6
REMARK    4  A    between atoms: C_6  and  C_7
REMARK    5  A    between atoms: C_7  and  C_8
REMARK    6  A    between atoms: C_19  and  C_20
REMARK                            x       y       z     vdW  Elec       q    Type
REMARK                         _______ _______ _______ _____ _____    ______ ____
ROOT
ATOM      1  C   UNL     1       2.918   5.960  -9.483  0.00  0.00    +0.130 C 
ATOM      2  C   UNL     1       2.337   6.175  -8.121  0.00  0.00    +0.004 A 
ATOM      3  C   UNL     1       1.828   4.927  -7.780  0.00  0.00    +0.006 A 
ATOM      4  C   UNL     1       1.129   4.856  -6.591  0.00  0.00    +0.008 A 
ATOM      5  C   UNL     1       1.367   5.720  -5.531  0.00  0.00    +0.068 A 
ATOM      6  C   UNL     1       2.148   6.816  -5.796  0.00  0.00    +0.010 A 
ATOM      7  C   UNL     1       2.355   3.924  -8.756  0.00  0.00    +0.169 C 
ATOM      8  C   UNL     1       2.594   7.067  -7.088  0.00  0.00    -0.001 A 
ATOM      9  O   UNL     1       3.402   4.650  -9.346  0.00  0.00    -0.346 OA
ENDROOT
BRANCH   1  10
ATOM     10  C   UNL     1       1.888   5.985 -10.540  0.00  0.00    +0.006 A 
ATOM     11  C   UNL     1       0.698   6.669 -10.348  0.00  0.00    +0.001 A 
ATOM     12  C   UNL     1      -0.045   7.137 -11.422  0.00  0.00    +0.029 A 
ATOM     13  C   UNL     1       0.428   6.932 -12.711  0.00  0.00    +0.140 A 
ATOM     14  F   UNL     1      -0.042   7.700 -13.736  0.00  0.00    -0.204 F 
ATOM     15  C   UNL     1       1.389   5.962 -12.911  0.00  0.00    +0.029 A 
ATOM     16  C   UNL     1       2.213   5.669 -11.853  0.00  0.00    +0.001 A 
ENDBRANCH   1  10
BRANCH   5  17
ATOM     17  C   UNL     1       1.117   5.360  -4.165  0.00  0.00    +0.100 C 
ATOM     18  N   UNL     1       0.821   5.356  -3.037  0.00  0.00    -0.191 NA
ENDBRANCH   5  17
BRANCH   1  19
ATOM     19  C   UNL     1       4.071   6.879  -9.766  0.00  0.00    +0.037 C 
BRANCH  19  20
ATOM     20  C   UNL     1       5.313   6.012  -9.888  0.00  0.00    +0.020 C 
BRANCH  20  21
ATOM     21  C   UNL     1       6.139   6.446 -11.079  0.00  0.00    +0.072 C 
BRANCH  21  23
ATOM     22  C   UNL     1       7.665   5.573  -9.552  0.00  0.00    +0.090 C 
ATOM     23  N   UNL     1       7.562   6.214 -10.855  0.00  0.00    -0.270 NA
ATOM     24  C   UNL     1       8.020   5.325 -11.915  0.00  0.00    +0.090 C 
ENDBRANCH  21  23
ENDBRANCH  20  21
ENDBRANCH  19  20
ENDBRANCH   1  19
TORSDOF 6
ENDMDL
MODEL 7
REMARK VINA RESULT:      -7.0      2.887      4.953
REMARK  Name = 
REMARK  6 active torsions:
REMARK  status: ('A' for Active; 'I' for Inactive)
REMARK    1  A    between atoms: N_2  and  C_4
REMARK    2  A    between atoms: C_4  and  C_5
REMARK    3  A    between atoms: C_5  and  C_6
REMARK    4  A    between atoms: C_6  and  C_7
REMARK    5  A    between atoms: C_7  and  C_8
REMARK    6  A    between atoms: C_19  and  C_20
REMARK                            x       y       z     vdW  Elec       q    Type
REMARK                         _______ _______ _______ _____ _____    ______ ____
ROOT
ATOM      1  C   UNL     1       1.710   5.931  -5.611  0.00  0.00    +0.130 C 
ATOM      2  C   UNL     1       1.932   6.214  -7.063  0.00  0.00    +0.004 A 
ATOM      3  C   UNL     1       2.412   5.009  -7.563  0.00  0.00    +0.006 A 
ATOM      4  C   UNL     1       2.806   5.010  -8.887  0.00  0.00    +0.008 A 
ATOM      5  C   UNL     1       2.273   5.883  -9.825  0.00  0.00    +0.068 A 
ATOM      6  C   UNL     1       1.520   6.921  -9.340  0.00  0.00    +0.010 A 
ATOM      7  C   UNL     1       2.191   3.952  -6.528  0.00  0.00    +0.169 C 
ATOM      8  C   UNL     1       1.386   7.113  -7.970  0.00  0.00    -0.001 A 
ATOM      9  O   UNL     1       1.280   4.597  -5.677  0.00  0.00    -0.346 OA
ENDROOT
BRANCH   1  10
ATOM     10  C   UNL     1       2.962   5.995  -4.831  0.00  0.00    +0.006 A 
ATOM     11  C   UNL     1       3.920   6.956  -5.113  0.00  0.00    +0.001 A 
ATOM     12  C   UNL     1       4.826   7.375  -4.150  0.00  0.00    +0.029 A 
ATOM     13  C   UNL     1       4.754   6.832  -2.874  0.00  0.00    +0.140 A 
ATOM     14  F   UNL     1       5.335   7.484  -1.826  0.00  0.00    -0.204 F 
ATOM     15  C   UNL     1       4.065   5.648  -2.701  0.00  0.00    +0.029 A 
ATOM     16  C   UNL     1       3.055   5.375  -3.591  0.00  0.00    +0.001 A 
ENDBRANCH   1  10
BRANCH   5  17
ATOM     17  C   UNL     1       2.205   5.572 -11.224  0.00  0.00    +0.100 C 
ATOM     18  N   UNL     1       2.297   5.583 -12.387  0.00  0.00    -0.191 NA
ENDBRANCH   5  17
BRANCH   1  19
ATOM     19  C   UNL     1       0.610   6.770  -5.026  0.00  0.00    +0.037 C 
BRANCH  19  20
ATOM     20  C   UNL     1      -0.604   5.869  -4.871  0.00  0.00    +0.020 C 
BRANCH  20  21
ATOM     21  C   UNL     1      -1.873   6.658  -5.102  0.00  0.00    +0.072 C 
BRANCH  21  23
ATOM     22  C   UNL     1      -2.740   5.215  -3.493  0.00  0.00    +0.090 C 
ATOM     23  N   UNL     1      -2.757   6.600  -3.943  0.00  0.00    -0.270 NA
ATOM     24  C   UNL     1      -2.193   7.486  -2.933  0.00  0.00    +0.090 C 
ENDBRANCH  21  23
ENDBRANCH  20  21
ENDBRANCH  19  20
ENDBRANCH   1  19
TORSDOF 6
ENDMDL
MODEL 8
REMARK VINA RESULT:      -7.0      1.436      5.598
REMARK  Name = 
REMARK  6 active torsions:
REMARK  status: ('A' for Active; 'I' for Inactive)
REMARK    1  A    between atoms: N_2  and  C_4
REMARK    2  A    between atoms: C_4  and  C_5
REMARK    3  A    between atoms: C_5  and  C_6
REMARK    4  A    between atoms: C_6  and  C_7
REMARK    5  A    between atoms: C_7  and  C_8
REMARK    6  A    between atoms: C_19  and  C_20
REMARK                            x       y       z     vdW  Elec       q    Type
REMARK                         _______ _______ _______ _____ _____    ______ ____
ROOT
ATOM      1  C   UNL     1       2.137   6.441  -6.089  0.00  0.00    +0.130 C 
ATOM      2  C   UNL     1       2.597   6.732  -4.695  0.00  0.00    +0.004 A 
ATOM      3  C   UNL     1       2.424   5.522  -4.032  0.00  0.00    +0.006 A 
ATOM      4  C   UNL     1       2.678   5.527  -2.675  0.00  0.00    +0.008 A 
ATOM      5  C   UNL     1       3.563   6.417  -2.082  0.00  0.00    +0.068 A 
ATOM      6  C   UNL     1       3.990   7.465  -2.857  0.00  0.00    +0.010 A 
ATOM      7  C   UNL     1       2.169   4.460  -5.055  0.00  0.00    +0.169 C 
ATOM      8  C   UNL     1       3.479   7.648  -4.137  0.00  0.00    -0.001 A 
ATOM      9  O   UNL     1       2.578   5.116  -6.227  0.00  0.00    -0.346 OA
ENDROOT
BRANCH   1  10
ATOM     10  C   UNL     1       0.667   6.475  -6.210  0.00  0.00    +0.006 A 
ATOM     11  C   UNL     1       0.012   5.623  -7.086  0.00  0.00    +0.001 A 
ATOM     12  C   UNL     1      -1.312   5.263  -6.886  0.00  0.00    +0.029 A 
ATOM     13  C   UNL     1      -1.984   5.751  -5.774  0.00  0.00    +0.140 A 
ATOM     14  F   UNL     1      -3.114   5.124  -5.334  0.00  0.00    -0.204 F 
ATOM     15  C   UNL     1      -1.467   6.854  -5.125  0.00  0.00    +0.029 A 
ATOM     16  C   UNL     1      -0.112   7.057  -5.217  0.00  0.00    +0.001 A 
ENDBRANCH   1  10
BRANCH   5  17
ATOM     17  C   UNL     1       4.269   6.119  -0.870  0.00  0.00    +0.100 C 
ATOM     18  N   UNL     1       4.600   6.006   0.243  0.00  0.00    -0.191 NA
ENDBRANCH   5  17
BRANCH   1  19
ATOM     19  C   UNL     1       2.831   7.295  -7.111  0.00  0.00    +0.037 C 
BRANCH  19  20
ATOM     20  C   UNL     1       3.694   6.370  -7.953  0.00  0.00    +0.020 C 
BRANCH  20  21
ATOM     21  C   UNL     1       3.347   6.523  -9.418  0.00  0.00    +0.072 C 
BRANCH  21  23
ATOM     22  C   UNL     1       4.643   5.482 -11.049  0.00  0.00    +0.090 C 
ATOM     23  N   UNL     1       3.524   5.269 -10.142  0.00  0.00    -0.270 NA
ATOM     24  C   UNL     1       3.839   4.246  -9.151  0.00  0.00    +0.090 C 
ENDBRANCH  21  23
ENDBRANCH  20  21
ENDBRANCH  19  20
ENDBRANCH   1  19
TORSDOF 6
ENDMDL
MODEL 9
REMARK VINA RESULT:      -6.9      2.807      5.356
REMARK  Name = 
REMARK  6 active torsions:
REMARK  status: ('A' for Active; 'I' for Inactive)
REMARK    1  A    between atoms: N_2  and  C_4
REMARK    2  A    between atoms: C_4  and  C_5
REMARK    3  A    between atoms: C_5  and  C_6
REMARK    4  A    between atoms: C_6  and  C_7
REMARK    5  A    between atoms: C_7  and  C_8
REMARK    6  A    between atoms: C_19  and  C_20
REMARK                            x       y       z     vdW  Elec       q    Type
REMARK                         _______ _______ _______ _____ _____    ______ ____
ROOT
ATOM      1  C   UNL     1       2.417   6.231  -6.582  0.00  0.00    +0.130 C 
ATOM      2  C   UNL     1       1.032   6.419  -6.048  0.00  0.00    +0.004 A 
ATOM      3  C   UNL     1       0.446   5.168  -6.205  0.00  0.00    +0.006 A 
ATOM      4  C   UNL     1      -0.894   5.077  -5.884  0.00  0.00    +0.008 A 
ATOM      5  C   UNL     1      -1.500   5.914  -4.958  0.00  0.00    +0.068 A 
ATOM      6  C   UNL     1      -0.778   7.009  -4.555  0.00  0.00    +0.010 A 
ATOM      7  C   UNL     1       1.525   4.183  -6.526  0.00  0.00    +0.169 C 
ATOM      8  C   UNL     1       0.458   7.285  -5.127  0.00  0.00    -0.001 A 
ATOM      9  O   UNL     1       2.669   4.914  -6.168  0.00  0.00    -0.346 OA
ENDROOT
BRANCH   1  10
ATOM     10  C   UNL     1       2.461   6.288  -8.056  0.00  0.00    +0.006 A 
ATOM     11  C   UNL     1       3.300   5.447  -8.770  0.00  0.00    +0.001 A 
ATOM     12  C   UNL     1       3.030   5.108 -10.087  0.00  0.00    +0.029 A 
ATOM     13  C   UNL     1       1.884   5.608 -10.692  0.00  0.00    +0.140 A 
ATOM     14  F   UNL     1       1.384   5.000 -11.806  0.00  0.00    -0.204 F 
ATOM     15  C   UNL     1       1.265   6.703 -10.123  0.00  0.00    +0.029 A 
ATOM     16  C   UNL     1       1.429   6.883  -8.771  0.00  0.00    +0.001 A 
ENDBRANCH   1  10
BRANCH   5  17
ATOM     17  C   UNL     1      -2.652   5.525  -4.196  0.00  0.00    +0.100 C 
ATOM     18  N   UNL     1      -3.378   5.099  -3.388  0.00  0.00    -0.191 NA
ENDBRANCH   5  17
BRANCH   1  19
ATOM     19  C   UNL     1       3.412   7.146  -5.928  0.00  0.00    +0.037 C 
BRANCH  19  20
ATOM     20  C   UNL     1       4.491   6.268  -5.315  0.00  0.00    +0.020 C 
BRANCH  20  21
ATOM     21  C   UNL     1       4.746   6.679  -3.882  0.00  0.00    +0.072 C 
BRANCH  21  23
ATOM     22  C   UNL     1       2.965   6.051  -2.520  0.00  0.00    +0.090 C 
ATOM     23  N   UNL     1       3.532   7.178  -3.245  0.00  0.00    -0.270 NA
ATOM     24  C   UNL     1       3.936   8.240  -2.333  0.00  0.00    +0.090 C 
ENDBRANCH  21  23
ENDBRANCH  20  21
ENDBRANCH  19  20
ENDBRANCH   1  19
TORSDOF 6
ENDMDL
