MODEL 1
REMARK VINA RESULT:      -4.8      0.000      0.000
REMARK  Name = 
REMARK  5 active torsions:
REMARK  status: ('A' for Active; 'I' for Inactive)
REMARK    1  A    between atoms: C_2  and  C_4
REMARK    2  A    between atoms: C_4  and  C_5
REMARK    3  A    between atoms: C_5  and  C_7
REMARK    4  A    between atoms: C_5  and  C_11
REMARK    5  A    between atoms: C_7  and  C_8
REMARK                            x       y       z     vdW  Elec       q    Type
REMARK                         _______ _______ _______ _____ _____    ______ ____
ROOT
ATOM      1  C   UNL     1       0.326   6.095  -5.987  0.00  0.00    +0.240 C 
ATOM      2  O   UNL     1       0.471   7.267  -5.276  0.00  0.00    -0.213 OA
ENDROOT
BRANCH   1   3
ATOM      3  C   UNL     1       0.977   4.965  -5.259  0.00  0.00    +0.393 C 
ATOM      4  O   UNL     1       1.241   3.815  -5.970  0.00  0.00    -0.243 OA
ATOM      5  O   UNL     1       0.922   5.026  -3.999  0.00  0.00    -0.243 OA
ENDBRANCH   1   3
BRANCH   1   6
ATOM      6  C   UNL     1       1.101   6.268  -7.284  0.00  0.00    +0.156 C 
BRANCH   6   8
ATOM      7  O   UNL     1       2.012   8.376  -7.843  0.00  0.00    -0.246 OA
ATOM      8  C   UNL     1       2.108   7.332  -7.129  0.00  0.00    +0.368 C 
ATOM      9  O   UNL     1       3.173   7.286  -6.254  0.00  0.00    -0.246 OA
ENDBRANCH   6   8
ENDBRANCH   1   6
BRANCH   1  10
ATOM     10  C   UNL     1      -1.087   5.764  -6.359  0.00  0.00    +0.156 C 
BRANCH  10  11
ATOM     11  C   UNL     1      -2.089   6.270  -5.404  0.00  0.00    +0.368 C 
ATOM     12  O   UNL     1      -2.609   5.360  -4.484  0.00  0.00    -0.246 OA
ATOM     13  O   UNL     1      -2.808   7.290  -5.627  0.00  0.00    -0.246 OA
ENDBRANCH  10  11
ENDBRANCH   1  10
TORSDOF 5
ENDMDL
MODEL 2
REMARK VINA RESULT:      -4.6      6.044      8.799
REMARK  Name = 
REMARK  5 active torsions:
REMARK  status: ('A' for Active; 'I' for Inactive)
REMARK    1  A    between atoms: C_2  and  C_4
REMARK    2  A    between atoms: C_4  and  C_5
REMARK    3  A    between atoms: C_5  and  C_7
REMARK    4  A    between atoms: C_5  and  C_11
REMARK    5  A    between atoms: C_7  and  C_8
REMARK                            x       y       z     vdW  Elec       q    Type
REMARK                         _______ _______ _______ _____ _____    ______ ____
ROOT
ATOM      1  C   UNL     1       5.804   6.322 -10.864  0.00  0.00    +0.240 C 
ATOM      2  O   UNL     1       6.064   5.543  -9.756  0.00  0.00    -0.213 OA
ENDROOT
BRANCH   1   3
ATOM      3  C   UNL     1       6.827   7.403 -10.985  0.00  0.00    +0.393 C 
ATOM      4  O   UNL     1       7.951   7.311 -10.194  0.00  0.00    -0.243 OA
ATOM      5  O   UNL     1       6.431   8.468 -11.537  0.00  0.00    -0.243 OA
ENDBRANCH   1   3
BRANCH   1   6
ATOM      6  C   UNL     1       4.477   7.019 -10.610  0.00  0.00    +0.156 C 
BRANCH   6   8
ATOM      7  O   UNL     1       2.612   6.229 -11.828  0.00  0.00    -0.246 OA
ATOM      8  C   UNL     1       3.366   6.075 -10.820  0.00  0.00    +0.368 C 
ATOM      9  O   UNL     1       3.068   5.014  -9.991  0.00  0.00    -0.246 OA
ENDBRANCH   6   8
ENDBRANCH   1   6
BRANCH   1  10
ATOM     10  C   UNL     1       5.663   5.557 -12.144  0.00  0.00    +0.156 C 
BRANCH  10  11
ATOM     11  C   UNL     1       6.933   5.369 -12.869  0.00  0.00    +0.368 C 
ATOM     12  O   UNL     1       6.977   5.795 -14.196  0.00  0.00    -0.246 OA
ATOM     13  O   UNL     1       7.794   4.496 -12.548  0.00  0.00    -0.246 OA
ENDBRANCH  10  11
ENDBRANCH   1  10
TORSDOF 5
ENDMDL
MODEL 3
REMARK VINA RESULT:      -4.6      6.282      7.885
REMARK  Name = 
REMARK  5 active torsions:
REMARK  status: ('A' for Active; 'I' for Inactive)
REMARK    1  A    between atoms: C_2  and  C_4
REMARK    2  A    between atoms: C_4  and  C_5
REMARK    3  A    between atoms: C_5  and  C_7
REMARK    4  A    between atoms: C_5  and  C_11
REMARK    5  A    between atoms: C_7  and  C_8
REMARK                            x       y       z     vdW  Elec       q    Type
REMARK                         _______ _______ _______ _____ _____    ______ ____
ROOT
ATOM      1  C   UNL     1       5.797   6.425 -11.003  0.00  0.00    +0.240 C 
ATOM      2  O   UNL     1       5.242   7.661 -10.750  0.00  0.00    -0.213 OA
ENDROOT
BRANCH   1   3
ATOM      3  C   UNL     1       6.477   5.905  -9.779  0.00  0.00    +0.393 C 
ATOM      4  O   UNL     1       5.700   5.262  -8.840  0.00  0.00    -0.243 OA
ATOM      5  O   UNL     1       7.621   6.386  -9.545  0.00  0.00    -0.243 OA
ENDBRANCH   1   3
BRANCH   1   6
ATOM      6  C   UNL     1       6.891   6.638 -12.038  0.00  0.00    +0.156 C 
BRANCH   6   8
ATOM      7  O   UNL     1       7.850   4.525 -12.489  0.00  0.00    -0.246 OA
ATOM      8  C   UNL     1       7.042   5.427 -12.864  0.00  0.00    +0.368 C 
ATOM      9  O   UNL     1       6.363   5.188 -14.040  0.00  0.00    -0.246 OA
ENDBRANCH   6   8
ENDBRANCH   1   6
BRANCH   1  10
ATOM     10  C   UNL     1       4.845   5.418 -11.569  0.00  0.00    +0.156 C 
BRANCH  10  11
ATOM     11  C   UNL     1       3.443   5.873 -11.597  0.00  0.00    +0.368 C 
ATOM     12  O   UNL     1       2.640   5.531 -10.509  0.00  0.00    -0.246 OA
ATOM     13  O   UNL     1       2.822   6.146 -12.668  0.00  0.00    -0.246 OA
ENDBRANCH  10  11
ENDBRANCH   1  10
TORSDOF 5
ENDMDL
MODEL 4
REMARK VINA RESULT:      -4.5      2.490      4.355
REMARK  Name = 
REMARK  5 active torsions:
REMARK  status: ('A' for Active; 'I' for Inactive)
REMARK    1  A    between atoms: C_2  and  C_4
REMARK    2  A    between atoms: C_4  and  C_5
REMARK    3  A    between atoms: C_5  and  C_7
REMARK    4  A    between atoms: C_5  and  C_11
REMARK    5  A    between atoms: C_7  and  C_8
REMARK                            x       y       z     vdW  Elec       q    Type
REMARK                         _______ _______ _______ _____ _____    ______ ____
ROOT
ATOM      1  C   UNL     1       1.880   5.048  -8.177  0.00  0.00    +0.240 C 
ATOM      2  O   UNL     1       2.182   3.937  -8.935  0.00  0.00    -0.213 OA
ENDROOT
BRANCH   1   3
ATOM      3  C   UNL     1       1.515   4.641  -6.787  0.00  0.00    +0.393 C 
ATOM      4  O   UNL     1       2.388   3.817  -6.112  0.00  0.00    -0.243 OA
ATOM      5  O   UNL     1       0.302   4.800  -6.474  0.00  0.00    -0.243 OA
ENDBRANCH   1   3
BRANCH   1   6
ATOM      6  C   UNL     1       0.629   5.666  -8.781  0.00  0.00    +0.156 C 
BRANCH   6   8
ATOM      7  O   UNL     1       1.235   6.167 -11.010  0.00  0.00    -0.246 OA
ATOM      8  C   UNL     1       0.589   5.404 -10.230  0.00  0.00    +0.368 C 
ATOM      9  O   UNL     1      -0.111   4.375 -10.824  0.00  0.00    -0.246 OA
ENDBRANCH   6   8
ENDBRANCH   1   6
BRANCH   1  10
ATOM     10  C   UNL     1       2.938   6.108  -8.176  0.00  0.00    +0.156 C 
BRANCH  10  11
ATOM     11  C   UNL     1       2.639   7.248  -7.290  0.00  0.00    +0.368 C 
ATOM     12  O   UNL     1       2.116   8.396  -7.885  0.00  0.00    -0.246 OA
ATOM     13  O   UNL     1       3.203   7.424  -6.169  0.00  0.00    -0.246 OA
ENDBRANCH  10  11
ENDBRANCH   1  10
TORSDOF 5
ENDMDL
MODEL 5
REMARK VINA RESULT:      -4.5      1.831      2.922
REMARK  Name = 
REMARK  5 active torsions:
REMARK  status: ('A' for Active; 'I' for Inactive)
REMARK    1  A    between atoms: C_2  and  C_4
REMARK    2  A    between atoms: C_4  and  C_5
REMARK    3  A    between atoms: C_5  and  C_7
REMARK    4  A    between atoms: C_5  and  C_11
REMARK    5  A    between atoms: C_7  and  C_8
REMARK                            x       y       z     vdW  Elec       q    Type
REMARK                         _______ _______ _______ _____ _____    ______ ____
ROOT
ATOM      1  C   UNL     1      -0.508   5.836  -5.224  0.00  0.00    +0.240 C 
ATOM      2  O   UNL     1       0.281   4.738  -4.964  0.00  0.00    -0.213 OA
ENDROOT
BRANCH   1   3
ATOM      3  C   UNL     1      -1.340   5.598  -6.442  0.00  0.00    +0.393 C 
ATOM      4  O   UNL     1      -2.690   5.391  -6.264  0.00  0.00    -0.243 OA
ATOM      5  O   UNL     1      -0.701   5.270  -7.481  0.00  0.00    -0.243 OA
ENDBRANCH   1   3
BRANCH   1   6
ATOM      6  C   UNL     1       0.430   6.983  -5.569  0.00  0.00    +0.156 C 
BRANCH   6   8
ATOM      7  O   UNL     1       2.719   6.434  -5.779  0.00  0.00    -0.246 OA
ATOM      8  C   UNL     1       1.764   6.727  -4.998  0.00  0.00    +0.368 C 
ATOM      9  O   UNL     1       2.068   6.779  -3.654  0.00  0.00    -0.246 OA
ENDBRANCH   6   8
ENDBRANCH   1   6
BRANCH   1  10
ATOM     10  C   UNL     1      -1.348   6.288  -4.069  0.00  0.00    +0.156 C 
BRANCH  10  11
ATOM     11  C   UNL     1      -1.517   5.266  -3.020  0.00  0.00    +0.368 C 
ATOM     12  O   UNL     1      -2.785   4.703  -2.877  0.00  0.00    -0.246 OA
ATOM     13  O   UNL     1      -0.767   5.185  -2.001  0.00  0.00    -0.246 OA
ENDBRANCH  10  11
ENDBRANCH   1  10
TORSDOF 5
ENDMDL
MODEL 6
REMARK VINA RESULT:      -4.5      1.220      4.236
REMARK  Name = 
REMARK  5 active torsions:
REMARK  status: ('A' for Active; 'I' for Inactive)
REMARK    1  A    between atoms: C_2  and  C_4
REMARK    2  A    between atoms: C_4  and  C_5
REMARK    3  A    between atoms: C_5  and  C_7
REMARK    4  A    between atoms: C_5  and  C_11
REMARK    5  A    between atoms: C_7  and  C_8
REMARK                            x       y       z     vdW  Elec       q    Type
REMARK                         _______ _______ _______ _____ _____    ______ ____
ROOT
ATOM      1  C   UNL     1       0.149   6.190  -5.878  0.00  0.00    +0.240 C 
ATOM      2  O   UNL     1       0.107   7.293  -5.053  0.00  0.00    -0.213 OA
ENDROOT
BRANCH   1   3
ATOM      3  C   UNL     1      -1.229   5.828  -6.326  0.00  0.00    +0.393 C 
ATOM      4  O   UNL     1      -2.289   6.381  -5.642  0.00  0.00    -0.243 OA
ATOM      5  O   UNL     1      -1.312   4.802  -7.058  0.00  0.00    -0.243 OA
ENDBRANCH   1   3
BRANCH   1   6
ATOM      6  C   UNL     1       0.639   5.025  -5.031  0.00  0.00    +0.156 C 
BRANCH   6   8
ATOM      7  O   UNL     1       1.398   5.824  -2.941  0.00  0.00    -0.246 OA
ATOM      8  C   UNL     1       0.439   5.323  -3.603  0.00  0.00    +0.368 C 
ATOM      9  O   UNL     1      -0.730   5.097  -2.908  0.00  0.00    -0.246 OA
ENDBRANCH   6   8
ENDBRANCH   1   6
BRANCH   1  10
ATOM     10  C   UNL     1       1.087   6.316  -7.039  0.00  0.00    +0.156 C 
BRANCH  10  11
ATOM     11  C   UNL     1       2.053   7.422  -6.908  0.00  0.00    +0.368 C 
ATOM     12  O   UNL     1       2.069   8.377  -7.925  0.00  0.00    -0.246 OA
ATOM     13  O   UNL     1       3.114   7.340  -6.220  0.00  0.00    -0.246 OA
ENDBRANCH  10  11
ENDBRANCH   1  10
TORSDOF 5
ENDMDL
MODEL 7
REMARK VINA RESULT:      -4.4      2.588      3.949
REMARK  Name = 
REMARK  5 active torsions:
REMARK  status: ('A' for Active; 'I' for Inactive)
REMARK    1  A    between atoms: C_2  and  C_4
REMARK    2  A    between atoms: C_4  and  C_5
REMARK    3  A    between atoms: C_5  and  C_7
REMARK    4  A    between atoms: C_5  and  C_11
REMARK    5  A    between atoms: C_7  and  C_8
REMARK                            x       y       z     vdW  Elec       q    Type
REMARK                         _______ _______ _______ _____ _____    ______ ____
ROOT
ATOM      1  C   UNL     1       3.021   5.821  -5.809  0.00  0.00    +0.240 C 
ATOM      2  O   UNL     1       2.641   6.827  -4.948  0.00  0.00    -0.213 OA
ENDROOT
BRANCH   1   3
ATOM      3  C   UNL     1       2.107   4.648  -5.667  0.00  0.00    +0.393 C 
ATOM      4  O   UNL     1       2.202   3.647  -6.608  0.00  0.00    -0.243 OA
ATOM      5  O   UNL     1       1.110   4.823  -4.912  0.00  0.00    -0.243 OA
ENDBRANCH   1   3
BRANCH   1   6
ATOM      6  C   UNL     1       4.394   5.347  -5.355  0.00  0.00    +0.156 C 
BRANCH   6   8
ATOM      7  O   UNL     1       5.265   6.706  -3.629  0.00  0.00    -0.246 OA
ATOM      8  C   UNL     1       4.592   5.675  -3.933  0.00  0.00    +0.368 C 
ATOM      9  O   UNL     1       4.098   4.936  -2.879  0.00  0.00    -0.246 OA
ENDBRANCH   6   8
ENDBRANCH   1   6
BRANCH   1  10
ATOM     10  C   UNL     1       3.152   6.241  -7.241  0.00  0.00    +0.156 C 
BRANCH  10  11
ATOM     11  C   UNL     1       2.039   7.083  -7.719  0.00  0.00    +0.368 C 
ATOM     12  O   UNL     1       1.048   6.459  -8.475  0.00  0.00    -0.246 OA
ATOM     13  O   UNL     1       2.134   8.338  -7.873  0.00  0.00    -0.246 OA
ENDBRANCH  10  11
ENDBRANCH   1  10
TORSDOF 5
ENDMDL
MODEL 8
REMARK VINA RESULT:      -4.4      2.064      4.608
REMARK  Name = 
REMARK  5 active torsions:
REMARK  status: ('A' for Active; 'I' for Inactive)
REMARK    1  A    between atoms: C_2  and  C_4
REMARK    2  A    between atoms: C_4  and  C_5
REMARK    3  A    between atoms: C_5  and  C_7
REMARK    4  A    between atoms: C_5  and  C_11
REMARK    5  A    between atoms: C_7  and  C_8
REMARK                            x       y       z     vdW  Elec       q    Type
REMARK                         _______ _______ _______ _____ _____    ______ ____
ROOT
ATOM      1  C   UNL     1      -0.902   6.099  -4.936  0.00  0.00    +0.240 C 
ATOM      2  O   UNL     1      -0.815   7.471  -4.834  0.00  0.00    -0.213 OA
ENDROOT
BRANCH   1   3
ATOM      3  C   UNL     1      -0.522   5.660  -6.312  0.00  0.00    +0.393 C 
ATOM      4  O   UNL     1       0.578   6.253  -6.891  0.00  0.00    -0.243 OA
ATOM      5  O   UNL     1      -1.419   5.044  -6.953  0.00  0.00    -0.243 OA
ENDBRANCH   1   3
BRANCH   1   6
ATOM      6  C   UNL     1      -2.369   5.736  -4.763  0.00  0.00    +0.156 C 
BRANCH   6   8
ATOM      7  O   UNL     1      -2.899   4.662  -2.727  0.00  0.00    -0.246 OA
ATOM      8  C   UNL     1      -2.728   5.761  -3.335  0.00  0.00    +0.368 C 
ATOM      9  O   UNL     1      -2.899   6.906  -2.586  0.00  0.00    -0.246 OA
ENDBRANCH   6   8
ENDBRANCH   1   6
BRANCH   1  10
ATOM     10  C   UNL     1      -0.137   5.347  -3.891  0.00  0.00    +0.156 C 
BRANCH  10  11
ATOM     11  C   UNL     1       0.924   6.140  -3.242  0.00  0.00    +0.368 C 
ATOM     12  O   UNL     1       2.164   6.187  -3.877  0.00  0.00    -0.246 OA
ATOM     13  O   UNL     1       0.937   6.398  -2.000  0.00  0.00    -0.246 OA
ENDBRANCH  10  11
ENDBRANCH   1  10
TORSDOF 5
ENDMDL
MODEL 9
REMARK VINA RESULT:      -4.4      2.373      4.080
REMARK  Name = 
REMARK  5 active torsions:
REMARK  status: ('A' for Active; 'I' for Inactive)
REMARK    1  A    between atoms: C_2  and  C_4
REMARK    2  A    between atoms: C_4  and  C_5
REMARK    3  A    between atoms: C_5  and  C_7
REMARK    4  A    between atoms: C_5  and  C_11
REMARK    5  A    between atoms: C_7  and  C_8
REMARK                            x       y       z     vdW  Elec       q    Type
REMARK                         _______ _______ _______ _____ _____    ______ ____
ROOT
ATOM      1  C   UNL     1       2.655   5.830  -5.795  0.00  0.00    +0.240 C 
ATOM      2  O   UNL     1       3.514   5.731  -6.868  0.00  0.00    -0.213 OA
ENDROOT
BRANCH   1   3
ATOM      3  C   UNL     1       1.839   4.585  -5.671  0.00  0.00    +0.393 C 
ATOM      4  O   UNL     1       2.149   3.533  -6.505  0.00  0.00    -0.243 OA
ATOM      5  O   UNL     1       0.738   4.714  -5.067  0.00  0.00    -0.243 OA
ENDBRANCH   1   3
BRANCH   1   6
ATOM      6  C   UNL     1       1.676   6.949  -6.117  0.00  0.00    +0.156 C 
BRANCH   6   8
ATOM      7  O   UNL     1       2.244   8.323  -7.953  0.00  0.00    -0.246 OA
ATOM      8  C   UNL     1       1.708   7.244  -7.560  0.00  0.00    +0.368 C 
ATOM      9  O   UNL     1       1.188   6.427  -8.542  0.00  0.00    -0.246 OA
ENDBRANCH   6   8
ENDBRANCH   1   6
BRANCH   1  10
ATOM     10  C   UNL     1       3.315   6.183  -4.498  0.00  0.00    +0.156 C 
BRANCH  10  11
ATOM     11  C   UNL     1       4.026   5.056  -3.866  0.00  0.00    +0.368 C 
ATOM     12  O   UNL     1       3.723   4.780  -2.533  0.00  0.00    -0.246 OA
ATOM     13  O   UNL     1       5.149   4.628  -4.270  0.00  0.00    -0.246 OA
ENDBRANCH  10  11
ENDBRANCH   1  10
TORSDOF 5
ENDMDL
