MODEL 1
REMARK VINA RESULT:      -8.0      0.000      0.000
REMARK  Name = 
REMARK  1 active torsions:
REMARK  status: ('A' for Active; 'I' for Inactive)
REMARK    1  A    between atoms: N_10  and  C_11
REMARK                            x       y       z     vdW  Elec       q    Type
REMARK                         _______ _______ _______ _____ _____    ______ ____
ROOT
ATOM      1  C   UNL     1       2.873   7.335  -8.583  0.00  0.00    +0.120 C 
ATOM      2  N   UNL     1       2.074   6.286  -7.955  0.00  0.00    -0.255 N 
ATOM      3  C   UNL     1       0.819   6.046  -8.599  0.00  0.00    +0.239 C 
ATOM      4  O   UNL     1       0.638   6.541  -9.749  0.00  0.00    -0.274 OA
ATOM      5  C   UNL     1      -0.300   5.133  -8.210  0.00  0.00    +0.171 C 
ATOM      6  C   UNL     1      -0.802   5.443  -6.841  0.00  0.00    +0.242 C 
ATOM      7  O   UNL     1      -2.035   5.204  -6.690  0.00  0.00    -0.274 OA
ATOM      8  N   UNL     1      -0.059   5.613  -5.631  0.00  0.00    -0.236 N 
ATOM      9  C   UNL     1       1.348   5.859  -5.540  0.00  0.00    +0.073 A 
ATOM     10  C   UNL     1       1.744   5.859  -4.225  0.00  0.00    +0.028 A 
ATOM     11  C   UNL     1       3.106   5.740  -3.981  0.00  0.00    +0.059 A 
ATOM     12 CL   UNL     1       3.696   4.987  -2.502  0.00  0.00    -0.082 Cl
ATOM     13  C   UNL     1       3.975   6.232  -4.943  0.00  0.00    +0.013 A 
ATOM     14  C   UNL     1       3.598   6.369  -6.273  0.00  0.00    +0.017 A 
ATOM     15  C   UNL     1       2.274   6.093  -6.550  0.00  0.00    +0.068 A 
ENDROOT
BRANCH   8  16
ATOM     16  C   UNL     1      -0.807   6.243  -4.581  0.00  0.00    +0.058 A 
ATOM     17  C   UNL     1      -1.179   5.421  -3.523  0.00  0.00    +0.015 A 
ATOM     18  C   UNL     1      -2.112   5.846  -2.587  0.00  0.00    +0.001 A 
ATOM     19  C   UNL     1      -2.629   7.110  -2.783  0.00  0.00    +0.000 A 
ATOM     20  C   UNL     1      -1.965   8.040  -3.575  0.00  0.00    +0.001 A 
ATOM     21  C   UNL     1      -1.239   7.543  -4.646  0.00  0.00    +0.015 A 
ENDBRANCH   8  16
TORSDOF 1
ENDMDL
MODEL 2
REMARK VINA RESULT:      -7.9      4.498      8.165
REMARK  Name = 
REMARK  1 active torsions:
REMARK  status: ('A' for Active; 'I' for Inactive)
REMARK    1  A    between atoms: N_10  and  C_11
REMARK                            x       y       z     vdW  Elec       q    Type
REMARK                         _______ _______ _______ _____ _____    ______ ____
ROOT
ATOM      1  C   UNL     1       1.729   7.659  -7.340  0.00  0.00    +0.120 C 
ATOM      2  N   UNL     1       2.468   6.513  -7.862  0.00  0.00    -0.255 N 
ATOM      3  C   UNL     1       3.652   6.199  -7.121  0.00  0.00    +0.239 C 
ATOM      4  O   UNL     1       3.802   6.737  -5.987  0.00  0.00    -0.274 OA
ATOM      5  C   UNL     1       4.706   5.173  -7.389  0.00  0.00    +0.171 C 
ATOM      6  C   UNL     1       5.322   5.365  -8.733  0.00  0.00    +0.242 C 
ATOM      7  O   UNL     1       6.536   5.011  -8.786  0.00  0.00    -0.274 OA
ATOM      8  N   UNL     1       4.678   5.535  -9.998  0.00  0.00    -0.236 N 
ATOM      9  C   UNL     1       3.308   5.897 -10.197  0.00  0.00    +0.073 A 
ATOM     10  C   UNL     1       2.999   5.861 -11.536  0.00  0.00    +0.028 A 
ATOM     11  C   UNL     1       1.651   5.849 -11.867  0.00  0.00    +0.059 A 
ATOM     12 CL   UNL     1       1.092   5.073 -13.346  0.00  0.00    -0.082 Cl
ATOM     13  C   UNL     1       0.769   6.466 -10.992  0.00  0.00    +0.013 A 
ATOM     14  C   UNL     1       1.070   6.639  -9.647  0.00  0.00    +0.017 A 
ATOM     15  C   UNL     1       2.344   6.264  -9.266  0.00  0.00    +0.068 A 
ENDROOT
BRANCH   8  16
ATOM     16  C   UNL     1       5.546   6.040 -11.022  0.00  0.00    +0.058 A 
ATOM     17  C   UNL     1       5.855   7.393 -10.944  0.00  0.00    +0.015 A 
ATOM     18  C   UNL     1       6.467   8.044 -12.007  0.00  0.00    +0.001 A 
ATOM     19  C   UNL     1       6.734   7.268 -13.116  0.00  0.00    +0.000 A 
ATOM     20  C   UNL     1       6.795   5.882 -13.021  0.00  0.00    +0.001 A 
ATOM     21  C   UNL     1       5.967   5.284 -12.086  0.00  0.00    +0.015 A 
ENDBRANCH   8  16
TORSDOF 1
ENDMDL
MODEL 3
REMARK VINA RESULT:      -7.9      2.872      5.335
REMARK  Name = 
REMARK  1 active torsions:
REMARK  status: ('A' for Active; 'I' for Inactive)
REMARK    1  A    between atoms: N_10  and  C_11
REMARK                            x       y       z     vdW  Elec       q    Type
REMARK                         _______ _______ _______ _____ _____    ______ ____
ROOT
ATOM      1  C   UNL     1      -2.335   7.157  -5.239  0.00  0.00    +0.120 C 
ATOM      2  N   UNL     1      -1.511   6.095  -4.668  0.00  0.00    -0.255 N 
ATOM      3  C   UNL     1      -1.499   6.074  -3.237  0.00  0.00    +0.239 C 
ATOM      4  O   UNL     1      -2.367   6.763  -2.626  0.00  0.00    -0.274 OA
ATOM      5  C   UNL     1      -0.717   5.213  -2.297  0.00  0.00    +0.171 C 
ATOM      6  C   UNL     1       0.749   5.342  -2.536  0.00  0.00    +0.242 C 
ATOM      7  O   UNL     1       1.445   5.191  -1.490  0.00  0.00    -0.274 OA
ATOM      8  N   UNL     1       1.468   5.248  -3.768  0.00  0.00    -0.236 N 
ATOM      9  C   UNL     1       0.901   5.350  -5.078  0.00  0.00    +0.073 A 
ATOM     10  C   UNL     1       1.860   5.102  -6.030  0.00  0.00    +0.028 A 
ATOM     11  C   UNL     1       1.411   4.825  -7.314  0.00  0.00    +0.059 A 
ATOM     12 CL   UNL     1       2.344   3.794  -8.394  0.00  0.00    -0.082 Cl
ATOM     13  C   UNL     1       0.205   5.388  -7.708  0.00  0.00    +0.013 A 
ATOM     14  C   UNL     1      -0.762   5.770  -6.787  0.00  0.00    +0.017 A 
ATOM     15  C   UNL     1      -0.399   5.661  -5.459  0.00  0.00    +0.068 A 
ENDROOT
BRANCH   8  16
ATOM     16  C   UNL     1       2.804   5.763  -3.695  0.00  0.00    +0.058 A 
ATOM     17  C   UNL     1       2.921   7.148  -3.656  0.00  0.00    +0.015 A 
ATOM     18  C   UNL     1       4.152   7.762  -3.843  0.00  0.00    +0.001 A 
ATOM     19  C   UNL     1       5.220   6.918  -4.066  0.00  0.00    +0.000 A 
ATOM     20  C   UNL     1       5.160   5.577  -3.701  0.00  0.00    +0.001 A 
ATOM     21  C   UNL     1       3.919   4.966  -3.772  0.00  0.00    +0.015 A 
ENDBRANCH   8  16
TORSDOF 1
ENDMDL
MODEL 4
REMARK VINA RESULT:      -7.4      3.542      4.801
REMARK  Name = 
REMARK  1 active torsions:
REMARK  status: ('A' for Active; 'I' for Inactive)
REMARK    1  A    between atoms: N_10  and  C_11
REMARK                            x       y       z     vdW  Elec       q    Type
REMARK                         _______ _______ _______ _____ _____    ______ ____
ROOT
ATOM      1  C   UNL     1       1.194   6.759 -10.276  0.00  0.00    +0.120 C 
ATOM      2  N   UNL     1       1.678   5.730  -9.359  0.00  0.00    -0.255 N 
ATOM      3  C   UNL     1       0.723   5.340  -8.367  0.00  0.00    +0.239 C 
ATOM      4  O   UNL     1      -0.479   5.699  -8.527  0.00  0.00    -0.274 OA
ATOM      5  C   UNL     1       0.870   4.400  -7.213  0.00  0.00    +0.171 C 
ATOM      6  C   UNL     1       1.979   4.818  -6.309  0.00  0.00    +0.242 C 
ATOM      7  O   UNL     1       1.785   4.513  -5.097  0.00  0.00    -0.274 OA
ATOM      8  N   UNL     1       3.325   5.164  -6.645  0.00  0.00    -0.236 N 
ATOM      9  C   UNL     1       3.800   5.512  -7.949  0.00  0.00    +0.073 A 
ATOM     10  C   UNL     1       5.164   5.677  -7.928  0.00  0.00    +0.028 A 
ATOM     11  C   UNL     1       5.814   5.676  -9.155  0.00  0.00    +0.059 A 
ATOM     12 CL   UNL     1       7.481   5.124  -9.294  0.00  0.00    -0.082 Cl
ATOM     13  C   UNL     1       5.102   6.122 -10.259  0.00  0.00    +0.013 A 
ATOM     14  C   UNL     1       3.713   6.093 -10.298  0.00  0.00    +0.017 A 
ATOM     15  C   UNL     1       3.091   5.700  -9.129  0.00  0.00    +0.068 A 
ENDROOT
BRANCH   8  16
ATOM     16  C   UNL     1       4.022   5.848  -5.594  0.00  0.00    +0.058 A 
ATOM     17  C   UNL     1       4.707   5.041  -4.693  0.00  0.00    +0.015 A 
ATOM     18  C   UNL     1       5.197   5.562  -3.503  0.00  0.00    +0.001 A 
ATOM     19  C   UNL     1       4.956   6.903  -3.288  0.00  0.00    +0.000 A 
ATOM     20  C   UNL     1       4.647   7.753  -4.344  0.00  0.00    +0.001 A 
ATOM     21  C   UNL     1       3.939   7.204  -5.400  0.00  0.00    +0.015 A 
ENDBRANCH   8  16
TORSDOF 1
ENDMDL
MODEL 5
REMARK VINA RESULT:      -7.4      2.515      3.458
REMARK  Name = 
REMARK  1 active torsions:
REMARK  status: ('A' for Active; 'I' for Inactive)
REMARK    1  A    between atoms: N_10  and  C_11
REMARK                            x       y       z     vdW  Elec       q    Type
REMARK                         _______ _______ _______ _____ _____    ______ ____
ROOT
ATOM      1  C   UNL     1       5.051   7.486  -4.356  0.00  0.00    +0.120 C 
ATOM      2  N   UNL     1       4.136   6.365  -4.162  0.00  0.00    -0.255 N 
ATOM      3  C   UNL     1       3.874   5.615  -5.352  0.00  0.00    +0.239 C 
ATOM      4  O   UNL     1       4.624   5.808  -6.352  0.00  0.00    -0.274 OA
ATOM      5  C   UNL     1       2.936   4.473  -5.579  0.00  0.00    +0.171 C 
ATOM      6  C   UNL     1       1.535   4.843  -5.229  0.00  0.00    +0.242 C 
ATOM      7  O   UNL     1       0.666   4.244  -5.927  0.00  0.00    -0.274 OA
ATOM      8  N   UNL     1       1.042   5.462  -4.039  0.00  0.00    -0.236 N 
ATOM      9  C   UNL     1       1.830   6.167  -3.074  0.00  0.00    +0.073 A 
ATOM     10  C   UNL     1       1.051   6.534  -2.003  0.00  0.00    +0.028 A 
ATOM     11  C   UNL     1       1.716   6.913  -0.846  0.00  0.00    +0.059 A 
ATOM     12 CL   UNL     1       0.981   6.675   0.737  0.00  0.00    -0.082 Cl
ATOM     13  C   UNL     1       2.974   7.482  -0.985  0.00  0.00    +0.013 A 
ATOM     14  C   UNL     1       3.767   7.245  -2.101  0.00  0.00    +0.017 A 
ATOM     15  C   UNL     1       3.178   6.505  -3.107  0.00  0.00    +0.068 A 
ENDROOT
BRANCH   8  16
ATOM     16  C   UNL     1      -0.285   5.990  -4.172  0.00  0.00    +0.058 A 
ATOM     17  C   UNL     1      -0.391   7.208  -4.835  0.00  0.00    +0.015 A 
ATOM     18  C   UNL     1      -1.573   7.935  -4.801  0.00  0.00    +0.001 A 
ATOM     19  C   UNL     1      -2.605   7.374  -4.076  0.00  0.00    +0.000 A 
ATOM     20  C   UNL     1      -2.615   6.015  -3.781  0.00  0.00    +0.001 A 
ATOM     21  C   UNL     1      -1.384   5.408  -3.593  0.00  0.00    +0.015 A 
ENDBRANCH   8  16
TORSDOF 1
ENDMDL
MODEL 6
REMARK VINA RESULT:      -7.2      2.149      5.062
REMARK  Name = 
REMARK  1 active torsions:
REMARK  status: ('A' for Active; 'I' for Inactive)
REMARK    1  A    between atoms: N_10  and  C_11
REMARK                            x       y       z     vdW  Elec       q    Type
REMARK                         _______ _______ _______ _____ _____    ______ ____
ROOT
ATOM      1  C   UNL     1       0.991   4.631  -1.172  0.00  0.00    +0.120 C 
ATOM      2  N   UNL     1       0.841   5.620  -2.237  0.00  0.00    -0.255 N 
ATOM      3  C   UNL     1      -0.444   5.605  -2.867  0.00  0.00    +0.239 C 
ATOM      4  O   UNL     1      -1.375   4.963  -2.301  0.00  0.00    -0.274 OA
ATOM      5  C   UNL     1      -0.946   6.387  -4.039  0.00  0.00    +0.171 C 
ATOM      6  C   UNL     1      -0.098   6.164  -5.244  0.00  0.00    +0.242 C 
ATOM      7  O   UNL     1      -0.739   6.241  -6.332  0.00  0.00    -0.274 OA
ATOM      8  N   UNL     1       1.324   6.238  -5.365  0.00  0.00    -0.236 N 
ATOM      9  C   UNL     1       2.259   6.207  -4.282  0.00  0.00    +0.073 A 
ATOM     10  C   UNL     1       3.534   6.412  -4.751  0.00  0.00    +0.028 A 
ATOM     11  C   UNL     1       4.500   6.749  -3.814  0.00  0.00    +0.059 A 
ATOM     12 CL   UNL     1       5.886   7.740  -4.261  0.00  0.00    -0.082 Cl
ATOM     13  C   UNL     1       4.330   6.281  -2.519  0.00  0.00    +0.013 A 
ATOM     14  C   UNL     1       3.078   5.943  -2.019  0.00  0.00    +0.017 A 
ATOM     15  C   UNL     1       2.038   5.995  -2.927  0.00  0.00    +0.068 A 
ENDROOT
BRANCH   8  16
ATOM     16  C   UNL     1       1.832   5.631  -6.561  0.00  0.00    +0.058 A 
ATOM     17  C   UNL     1       2.076   6.493  -7.624  0.00  0.00    +0.015 A 
ATOM     18  C   UNL     1       2.319   5.999  -8.899  0.00  0.00    +0.001 A 
ATOM     19  C   UNL     1       2.298   4.626  -9.027  0.00  0.00    +0.000 A 
ATOM     20  C   UNL     1       2.459   3.802  -7.919  0.00  0.00    +0.001 A 
ATOM     21  C   UNL     1       1.969   4.275  -6.712  0.00  0.00    +0.015 A 
ENDBRANCH   8  16
TORSDOF 1
ENDMDL
MODEL 7
REMARK VINA RESULT:      -7.1      3.660      6.058
REMARK  Name = 
REMARK  1 active torsions:
REMARK  status: ('A' for Active; 'I' for Inactive)
REMARK    1  A    between atoms: N_10  and  C_11
REMARK                            x       y       z     vdW  Elec       q    Type
REMARK                         _______ _______ _______ _____ _____    ______ ____
ROOT
ATOM      1  C   UNL     1       2.190   7.702   0.022  0.00  0.00    +0.120 C 
ATOM      2  N   UNL     1       2.246   6.448  -0.725  0.00  0.00    -0.255 N 
ATOM      3  C   UNL     1       3.573   6.020  -1.044  0.00  0.00    +0.239 C 
ATOM      4  O   UNL     1       4.537   6.585  -0.452  0.00  0.00    -0.274 OA
ATOM      5  C   UNL     1       4.035   4.857  -1.864  0.00  0.00    +0.171 C 
ATOM      6  C   UNL     1       3.474   4.909  -3.244  0.00  0.00    +0.242 C 
ATOM      7  O   UNL     1       4.236   4.402  -4.117  0.00  0.00    -0.274 OA
ATOM      8  N   UNL     1       2.118   5.103  -3.654  0.00  0.00    -0.236 N 
ATOM      9  C   UNL     1       1.064   5.627  -2.840  0.00  0.00    +0.073 A 
ATOM     10  C   UNL     1      -0.130   5.571  -3.516  0.00  0.00    +0.028 A 
ATOM     11  C   UNL     1      -1.285   5.715  -2.761  0.00  0.00    +0.059 A 
ATOM     12 CL   UNL     1      -2.792   4.951  -3.261  0.00  0.00    -0.082 Cl
ATOM     13  C   UNL     1      -1.206   6.477  -1.605  0.00  0.00    +0.013 A 
ATOM     14  C   UNL     1      -0.005   6.671  -0.934  0.00  0.00    +0.017 A 
ATOM     15  C   UNL     1       1.116   6.155  -1.555  0.00  0.00    +0.068 A 
ENDROOT
BRANCH   8  16
ATOM     16  C   UNL     1       1.980   5.447  -5.039  0.00  0.00    +0.058 A 
ATOM     17  C   UNL     1       2.325   6.750  -5.379  0.00  0.00    +0.015 A 
ATOM     18  C   UNL     1       1.993   7.272  -6.623  0.00  0.00    +0.001 A 
ATOM     19  C   UNL     1       1.312   6.422  -7.470  0.00  0.00    +0.000 A 
ATOM     20  C   UNL     1       1.341   5.046  -7.278  0.00  0.00    +0.001 A 
ATOM     21  C   UNL     1       1.436   4.599  -5.970  0.00  0.00    +0.015 A 
ENDBRANCH   8  16
TORSDOF 1
ENDMDL
MODEL 8
REMARK VINA RESULT:      -7.1      2.363      4.392
REMARK  Name = 
REMARK  1 active torsions:
REMARK  status: ('A' for Active; 'I' for Inactive)
REMARK    1  A    between atoms: N_10  and  C_11
REMARK                            x       y       z     vdW  Elec       q    Type
REMARK                         _______ _______ _______ _____ _____    ______ ____
ROOT
ATOM      1  C   UNL     1       0.168   4.906  -9.263  0.00  0.00    +0.120 C 
ATOM      2  N   UNL     1       0.557   5.990  -8.365  0.00  0.00    -0.255 N 
ATOM      3  C   UNL     1       1.851   6.535  -8.637  0.00  0.00    +0.239 C 
ATOM      4  O   UNL     1       2.402   6.237  -9.735  0.00  0.00    -0.274 OA
ATOM      5  C   UNL     1       2.629   7.576  -7.895  0.00  0.00    +0.171 C 
ATOM      6  C   UNL     1       2.841   7.184  -6.473  0.00  0.00    +0.242 C 
ATOM      7  O   UNL     1       3.924   7.620  -5.986  0.00  0.00    -0.274 OA
ATOM      8  N   UNL     1       1.881   6.725  -5.518  0.00  0.00    -0.236 N 
ATOM      9  C   UNL     1       0.577   6.219  -5.818  0.00  0.00    +0.073 A 
ATOM     10  C   UNL     1      -0.116   5.975  -4.656  0.00  0.00    +0.028 A 
ATOM     11  C   UNL     1      -1.490   5.813  -4.768  0.00  0.00    +0.059 A 
ATOM     12 CL   UNL     1      -2.561   6.246  -3.439  0.00  0.00    -0.082 Cl
ATOM     13  C   UNL     1      -1.981   5.303  -5.961  0.00  0.00    +0.013 A 
ATOM     14  C   UNL     1      -1.275   5.413  -7.153  0.00  0.00    +0.017 A 
ATOM     15  C   UNL     1      -0.010   5.957  -7.050  0.00  0.00    +0.068 A 
ENDROOT
BRANCH   8  16
ATOM     16  C   UNL     1       2.469   6.109  -4.363  0.00  0.00    +0.058 A 
ATOM     17  C   UNL     1       2.278   6.772  -3.156  0.00  0.00    +0.015 A 
ATOM     18  C   UNL     1       3.004   6.417  -2.028  0.00  0.00    +0.001 A 
ATOM     19  C   UNL     1       3.908   5.388  -2.192  0.00  0.00    +0.000 A 
ATOM     20  C   UNL     1       3.793   4.497  -3.253  0.00  0.00    +0.001 A 
ATOM     21  C   UNL     1       3.270   4.998  -4.434  0.00  0.00    +0.015 A 
ENDBRANCH   8  16
TORSDOF 1
ENDMDL
MODEL 9
REMARK VINA RESULT:      -7.0      4.384      6.692
REMARK  Name = 
REMARK  1 active torsions:
REMARK  status: ('A' for Active; 'I' for Inactive)
REMARK    1  A    between atoms: N_10  and  C_11
REMARK                            x       y       z     vdW  Elec       q    Type
REMARK                         _______ _______ _______ _____ _____    ______ ____
ROOT
ATOM      1  C   UNL     1       4.350   4.648 -13.840  0.00  0.00    +0.120 C 
ATOM      2  N   UNL     1       4.361   5.612 -12.743  0.00  0.00    -0.255 N 
ATOM      3  C   UNL     1       5.550   5.573 -11.947  0.00  0.00    +0.239 C 
ATOM      4  O   UNL     1       6.545   4.936 -12.398  0.00  0.00    -0.274 OA
ATOM      5  C   UNL     1       5.895   6.326 -10.701  0.00  0.00    +0.171 C 
ATOM      6  C   UNL     1       4.891   6.084  -9.626  0.00  0.00    +0.242 C 
ATOM      7  O   UNL     1       5.381   6.132  -8.460  0.00  0.00    -0.274 OA
ATOM      8  N   UNL     1       3.466   6.167  -9.695  0.00  0.00    -0.236 N 
ATOM      9  C   UNL     1       2.684   6.166 -10.894  0.00  0.00    +0.073 A 
ATOM     10  C   UNL     1       1.359   6.371 -10.595  0.00  0.00    +0.028 A 
ATOM     11  C   UNL     1       0.529   6.737 -11.646  0.00  0.00    +0.059 A 
ATOM     12 CL   UNL     1      -0.899   7.729 -11.366  0.00  0.00    -0.082 Cl
ATOM     13  C   UNL     1       0.870   6.296 -12.916  0.00  0.00    +0.013 A 
ATOM     14  C   UNL     1       2.175   5.959 -13.252  0.00  0.00    +0.017 A 
ATOM     15  C   UNL     1       3.084   5.982 -12.212  0.00  0.00    +0.068 A 
ENDROOT
BRANCH   8  16
ATOM     16  C   UNL     1       2.799   5.538  -8.592  0.00  0.00    +0.058 A 
ATOM     17  C   UNL     1       2.239   6.395  -7.652  0.00  0.00    +0.015 A 
ATOM     18  C   UNL     1       1.799   5.916  -6.425  0.00  0.00    +0.001 A 
ATOM     19  C   UNL     1       1.959   4.562  -6.216  0.00  0.00    +0.000 A 
ATOM     20  C   UNL     1       2.131   3.688  -7.283  0.00  0.00    +0.001 A 
ATOM     21  C   UNL     1       2.799   4.181  -8.392  0.00  0.00    +0.015 A 
ENDBRANCH   8  16
TORSDOF 1
ENDMDL
