MODEL 1
REMARK VINA RESULT:      -6.2      0.000      0.000
REMARK  Name = 
REMARK  9 active torsions:
REMARK  status: ('A' for Active; 'I' for Inactive)
REMARK    1  A    between atoms: O_2  and  C_3
REMARK    2  A    between atoms: C_3  and  C_4
REMARK    3  A    between atoms: C_4  and  C_5
REMARK    4  A    between atoms: C_8  and  O_9
REMARK    5  A    between atoms: O_9  and  C_10
REMARK    6  A    between atoms: C_10  and  C_11
REMARK    7  A    between atoms: C_11  and  C_13
REMARK    8  A    between atoms: C_13  and  N_14
REMARK    9  A    between atoms: N_14  and  C_15
REMARK                            x       y       z     vdW  Elec       q    Type
REMARK                         _______ _______ _______ _____ _____    ______ ____
ROOT
ATOM      1  C   UNL     1      -2.050   6.640  -5.081  0.00  0.00    -0.019 A 
ATOM      2  C   UNL     1      -0.772   7.178  -4.998  0.00  0.00    -0.001 A 
ATOM      3  C   UNL     1       0.243   6.639  -5.773  0.00  0.00    +0.037 A 
ATOM      4  C   UNL     1       0.007   5.582  -6.633  0.00  0.00    +0.139 A 
ATOM      5  C   UNL     1      -1.306   5.229  -6.915  0.00  0.00    +0.037 A 
ATOM      6  C   UNL     1      -2.311   5.852  -6.185  0.00  0.00    -0.001 A 
ENDROOT
BRANCH   4   7
ATOM      7  O   UNL     1       1.020   4.707  -6.946  0.00  0.00    -0.473 OA
BRANCH   7   8
ATOM      8  C   UNL     1       2.318   5.099  -7.333  0.00  0.00    +0.240 C 
BRANCH   8   9
ATOM      9  C   UNL     1       2.597   4.282  -8.751  0.00  0.00    +0.213 C 
ATOM     10  O   UNL     1       2.047   5.443  -9.579  0.00  0.00    -0.218 OA
BRANCH   9  11
ATOM     11  C   UNL     1       4.143   4.876  -8.854  0.00  0.00    +0.125 C 
BRANCH  11  12
ATOM     12  N   UNL     1       4.370   4.917 -10.293  0.00  0.00    -0.217 NA
BRANCH  12  13
ATOM     13  C   UNL     1       5.520   5.772 -10.579  0.00  0.00    +0.073 C 
ATOM     14  C   UNL     1       6.437   5.712  -9.364  0.00  0.00    +0.019 C 
ATOM     15  C   UNL     1       4.962   7.184 -10.699  0.00  0.00    +0.019 C 
ENDBRANCH  12  13
ENDBRANCH  11  12
ENDBRANCH   9  11
ENDBRANCH   8   9
ENDBRANCH   7   8
ENDBRANCH   4   7
BRANCH   1  16
ATOM     16  C   UNL     1      -2.951   6.568  -3.890  0.00  0.00    +0.058 C 
BRANCH  16  17
ATOM     17  C   UNL     1      -2.853   5.208  -3.251  0.00  0.00    +0.147 C 
BRANCH  17  19
ATOM     18  C   UNL     1      -2.295   5.353  -1.758  0.00  0.00    +0.174 C 
ATOM     19  O   UNL     1      -2.488   5.377  -1.908  0.00  0.00    -0.351 OA
ENDBRANCH  17  19
ENDBRANCH  16  17
ENDBRANCH   1  16
TORSDOF 9
ENDMDL
MODEL 2
REMARK VINA RESULT:      -6.1      2.716      8.669
REMARK  Name = 
REMARK  9 active torsions:
REMARK  status: ('A' for Active; 'I' for Inactive)
REMARK    1  A    between atoms: O_2  and  C_3
REMARK    2  A    between atoms: C_3  and  C_4
REMARK    3  A    between atoms: C_4  and  C_5
REMARK    4  A    between atoms: C_8  and  O_9
REMARK    5  A    between atoms: O_9  and  C_10
REMARK    6  A    between atoms: C_10  and  C_11
REMARK    7  A    between atoms: C_11  and  C_13
REMARK    8  A    between atoms: C_13  and  N_14
REMARK    9  A    between atoms: N_14  and  C_15
REMARK                            x       y       z     vdW  Elec       q    Type
REMARK                         _______ _______ _______ _____ _____    ______ ____
ROOT
ATOM      1  C   UNL     1       5.956   6.229 -10.126  0.00  0.00    -0.019 A 
ATOM      2  C   UNL     1       6.085   5.403  -9.016  0.00  0.00    -0.001 A 
ATOM      3  C   UNL     1       5.064   5.362  -8.079  0.00  0.00    +0.037 A 
ATOM      4  C   UNL     1       3.918   6.120  -8.229  0.00  0.00    +0.139 A 
ATOM      5  C   UNL     1       3.674   6.726  -9.455  0.00  0.00    +0.037 A 
ATOM      6  C   UNL     1       4.681   6.675 -10.411  0.00  0.00    -0.001 A 
ENDROOT
BRANCH   4   7
ATOM      7  O   UNL     1       3.209   6.527  -7.125  0.00  0.00    -0.473 OA
BRANCH   7   8
ATOM      8  C   UNL     1       2.573   5.651  -6.221  0.00  0.00    +0.240 C 
BRANCH   8   9
ATOM      9  C   UNL     1       1.589   4.712  -7.173  0.00  0.00    +0.213 C 
ATOM     10  O   UNL     1       1.261   3.789  -6.000  0.00  0.00    -0.218 OA
BRANCH   9  11
ATOM     11  C   UNL     1       0.271   5.669  -6.853  0.00  0.00    +0.125 C 
BRANCH  11  12
ATOM     12  N   UNL     1      -0.001   5.372  -5.452  0.00  0.00    -0.217 NA
BRANCH  12  13
ATOM     13  C   UNL     1      -1.311   5.908  -5.088  0.00  0.00    +0.073 C 
ATOM     14  C   UNL     1      -2.215   5.749  -6.304  0.00  0.00    +0.019 C 
ATOM     15  C   UNL     1      -1.090   7.394  -4.837  0.00  0.00    +0.019 C 
ENDBRANCH  12  13
ENDBRANCH  11  12
ENDBRANCH   9  11
ENDBRANCH   8   9
ENDBRANCH   7   8
ENDBRANCH   4   7
BRANCH   1  16
ATOM     16  C   UNL     1       7.135   6.922 -10.731  0.00  0.00    +0.058 C 
BRANCH  16  17
ATOM     17  C   UNL     1       7.415   6.364 -12.101  0.00  0.00    +0.147 C 
BRANCH  17  19
ATOM     18  C   UNL     1       8.947   5.907 -12.160  0.00  0.00    +0.174 C 
ATOM     19  O   UNL     1       8.716   5.843 -12.108  0.00  0.00    -0.351 OA
ENDBRANCH  17  19
ENDBRANCH  16  17
ENDBRANCH   1  16
TORSDOF 9
ENDMDL
MODEL 3
REMARK VINA RESULT:      -6.1      2.401      3.158
REMARK  Name = 
REMARK  9 active torsions:
REMARK  status: ('A' for Active; 'I' for Inactive)
REMARK    1  A    between atoms: O_2  and  C_3
REMARK    2  A    between atoms: C_3  and  C_4
REMARK    3  A    between atoms: C_4  and  C_5
REMARK    4  A    between atoms: C_8  and  O_9
REMARK    5  A    between atoms: O_9  and  C_10
REMARK    6  A    between atoms: C_10  and  C_11
REMARK    7  A    between atoms: C_11  and  C_13
REMARK    8  A    between atoms: C_13  and  N_14
REMARK    9  A    between atoms: N_14  and  C_15
REMARK                            x       y       z     vdW  Elec       q    Type
REMARK                         _______ _______ _______ _____ _____    ______ ____
ROOT
ATOM      1  C   UNL     1      -2.179   6.721  -4.933  0.00  0.00    -0.019 A 
ATOM      2  C   UNL     1      -0.962   7.384  -4.827  0.00  0.00    -0.001 A 
ATOM      3  C   UNL     1       0.103   6.975  -5.613  0.00  0.00    +0.037 A 
ATOM      4  C   UNL     1      -0.021   5.927  -6.506  0.00  0.00    +0.139 A 
ATOM      5  C   UNL     1      -1.291   5.450  -6.804  0.00  0.00    +0.037 A 
ATOM      6  C   UNL     1      -2.355   5.944  -6.061  0.00  0.00    -0.001 A 
ENDROOT
BRANCH   4   7
ATOM      7  O   UNL     1       1.077   5.171  -6.841  0.00  0.00    -0.473 OA
BRANCH   7   8
ATOM      8  C   UNL     1       2.148   4.893  -5.967  0.00  0.00    +0.240 C 
BRANCH   8   9
ATOM      9  C   UNL     1       3.508   5.091  -6.897  0.00  0.00    +0.213 C 
ATOM     10  O   UNL     1       3.057   6.484  -7.338  0.00  0.00    -0.218 OA
BRANCH   9  11
ATOM     11  C   UNL     1       4.360   5.718  -5.617  0.00  0.00    +0.125 C 
BRANCH  11  12
ATOM     12  N   UNL     1       3.844   7.078  -5.530  0.00  0.00    -0.217 NA
BRANCH  12  13
ATOM     13  C   UNL     1       4.240   7.667  -4.253  0.00  0.00    +0.073 C 
ATOM     14  C   UNL     1       5.685   7.256  -3.999  0.00  0.00    +0.019 C 
ATOM     15  C   UNL     1       3.355   7.007  -3.204  0.00  0.00    +0.019 C 
ENDBRANCH  12  13
ENDBRANCH  11  12
ENDBRANCH   9  11
ENDBRANCH   8   9
ENDBRANCH   7   8
ENDBRANCH   4   7
BRANCH   1  16
ATOM     16  C   UNL     1      -3.070   6.519  -3.749  0.00  0.00    +0.058 C 
BRANCH  16  17
ATOM     17  C   UNL     1      -2.867   5.141  -3.178  0.00  0.00    +0.147 C 
BRANCH  17  19
ATOM     18  C   UNL     1      -2.323   5.404  -1.696  0.00  0.00    +0.174 C 
ATOM     19  O   UNL     1      -2.472   5.271  -1.840  0.00  0.00    -0.351 OA
ENDBRANCH  17  19
ENDBRANCH  16  17
ENDBRANCH   1  16
TORSDOF 9
ENDMDL
MODEL 4
REMARK VINA RESULT:      -6.1      2.722      8.977
REMARK  Name = 
REMARK  9 active torsions:
REMARK  status: ('A' for Active; 'I' for Inactive)
REMARK    1  A    between atoms: O_2  and  C_3
REMARK    2  A    between atoms: C_3  and  C_4
REMARK    3  A    between atoms: C_4  and  C_5
REMARK    4  A    between atoms: C_8  and  O_9
REMARK    5  A    between atoms: O_9  and  C_10
REMARK    6  A    between atoms: C_10  and  C_11
REMARK    7  A    between atoms: C_11  and  C_13
REMARK    8  A    between atoms: C_13  and  N_14
REMARK    9  A    between atoms: N_14  and  C_15
REMARK                            x       y       z     vdW  Elec       q    Type
REMARK                         _______ _______ _______ _____ _____    ______ ____
ROOT
ATOM      1  C   UNL     1       6.988   6.593 -10.607  0.00  0.00    -0.019 A 
ATOM      2  C   UNL     1       5.834   7.304 -10.913  0.00  0.00    -0.001 A 
ATOM      3  C   UNL     1       4.640   6.952 -10.306  0.00  0.00    +0.037 A 
ATOM      4  C   UNL     1       4.573   5.913  -9.396  0.00  0.00    +0.139 A 
ATOM      5  C   UNL     1       5.757   5.389  -8.892  0.00  0.00    +0.037 A 
ATOM      6  C   UNL     1       6.948   5.827  -9.458  0.00  0.00    -0.001 A 
ENDROOT
BRANCH   4   7
ATOM      7  O   UNL     1       3.404   5.208  -9.236  0.00  0.00    -0.473 OA
BRANCH   7   8
ATOM      8  C   UNL     1       2.972   4.653  -8.014  0.00  0.00    +0.240 C 
BRANCH   8   9
ATOM      9  C   UNL     1       2.270   5.921  -7.204  0.00  0.00    +0.213 C 
ATOM     10  O   UNL     1       1.313   6.189  -8.365  0.00  0.00    -0.218 OA
BRANCH   9  11
ATOM     11  C   UNL     1       1.174   4.917  -6.467  0.00  0.00    +0.125 C 
BRANCH  11  12
ATOM     12  N   UNL     1      -0.103   5.473  -6.897  0.00  0.00    -0.217 NA
BRANCH  12  13
ATOM     13  C   UNL     1      -0.989   5.605  -5.742  0.00  0.00    +0.073 C 
ATOM     14  C   UNL     1      -2.417   5.623  -6.273  0.00  0.00    +0.019 C 
ATOM     15  C   UNL     1      -0.676   6.968  -5.139  0.00  0.00    +0.019 C 
ENDBRANCH  12  13
ENDBRANCH  11  12
ENDBRANCH   9  11
ENDBRANCH   8   9
ENDBRANCH   7   8
ENDBRANCH   4   7
BRANCH   1  16
ATOM     16  C   UNL     1       8.049   6.337 -11.630  0.00  0.00    +0.058 C 
BRANCH  16  17
ATOM     17  C   UNL     1       7.780   5.035 -12.337  0.00  0.00    +0.147 C 
BRANCH  17  19
ATOM     18  C   UNL     1       7.168   5.342 -13.783  0.00  0.00    +0.174 C 
ATOM     19  O   UNL     1       7.123   5.315 -13.543  0.00  0.00    -0.351 OA
ENDBRANCH  17  19
ENDBRANCH  16  17
ENDBRANCH   1  16
TORSDOF 9
ENDMDL
MODEL 5
REMARK VINA RESULT:      -6.0      4.287      8.540
REMARK  Name = 
REMARK  9 active torsions:
REMARK  status: ('A' for Active; 'I' for Inactive)
REMARK    1  A    between atoms: O_2  and  C_3
REMARK    2  A    between atoms: C_3  and  C_4
REMARK    3  A    between atoms: C_4  and  C_5
REMARK    4  A    between atoms: C_8  and  O_9
REMARK    5  A    between atoms: O_9  and  C_10
REMARK    6  A    between atoms: C_10  and  C_11
REMARK    7  A    between atoms: C_11  and  C_13
REMARK    8  A    between atoms: C_13  and  N_14
REMARK    9  A    between atoms: N_14  and  C_15
REMARK                            x       y       z     vdW  Elec       q    Type
REMARK                         _______ _______ _______ _____ _____    ______ ____
ROOT
ATOM      1  C   UNL     1       6.827   6.688 -10.668  0.00  0.00    -0.019 A 
ATOM      2  C   UNL     1       5.664   7.392 -10.955  0.00  0.00    -0.001 A 
ATOM      3  C   UNL     1       4.475   7.009 -10.355  0.00  0.00    +0.037 A 
ATOM      4  C   UNL     1       4.423   5.946  -9.472  0.00  0.00    +0.139 A 
ATOM      5  C   UNL     1       5.614   5.424  -8.984  0.00  0.00    +0.037 A 
ATOM      6  C   UNL     1       6.798   5.892  -9.540  0.00  0.00    -0.001 A 
ENDROOT
BRANCH   4   7
ATOM      7  O   UNL     1       3.263   5.222  -9.329  0.00  0.00    -0.473 OA
BRANCH   7   8
ATOM      8  C   UNL     1       2.145   5.652  -8.587  0.00  0.00    +0.240 C 
BRANCH   8   9
ATOM      9  C   UNL     1       0.838   5.038  -9.407  0.00  0.00    +0.213 C 
ATOM     10  O   UNL     1      -0.133   5.605  -8.373  0.00  0.00    -0.218 OA
BRANCH   9  11
ATOM     11  C   UNL     1       0.715   6.402 -10.344  0.00  0.00    +0.125 C 
BRANCH  11  12
ATOM     12  N   UNL     1       0.710   5.858 -11.696  0.00  0.00    -0.217 NA
BRANCH  12  13
ATOM     13  C   UNL     1       1.569   6.674 -12.552  0.00  0.00    +0.073 C 
ATOM     14  C   UNL     1       0.664   7.374 -13.558  0.00  0.00    +0.019 C 
ATOM     15  C   UNL     1       2.458   5.689 -13.300  0.00  0.00    +0.019 C 
ENDBRANCH  12  13
ENDBRANCH  11  12
ENDBRANCH   9  11
ENDBRANCH   8   9
ENDBRANCH   7   8
ENDBRANCH   4   7
BRANCH   1  16
ATOM     16  C   UNL     1       7.889   6.473 -11.699  0.00  0.00    +0.058 C 
BRANCH  16  17
ATOM     17  C   UNL     1       7.828   5.060 -12.215  0.00  0.00    +0.147 C 
BRANCH  17  19
ATOM     18  C   UNL     1       7.306   5.252 -13.716  0.00  0.00    +0.174 C 
ATOM     19  O   UNL     1       7.366   5.093 -13.538  0.00  0.00    -0.351 OA
ENDBRANCH  17  19
ENDBRANCH  16  17
ENDBRANCH   1  16
TORSDOF 9
ENDMDL
MODEL 6
REMARK VINA RESULT:      -6.0      3.492      8.225
REMARK  Name = 
REMARK  9 active torsions:
REMARK  status: ('A' for Active; 'I' for Inactive)
REMARK    1  A    between atoms: O_2  and  C_3
REMARK    2  A    between atoms: C_3  and  C_4
REMARK    3  A    between atoms: C_4  and  C_5
REMARK    4  A    between atoms: C_8  and  O_9
REMARK    5  A    between atoms: O_9  and  C_10
REMARK    6  A    between atoms: C_10  and  C_11
REMARK    7  A    between atoms: C_11  and  C_13
REMARK    8  A    between atoms: C_13  and  N_14
REMARK    9  A    between atoms: N_14  and  C_15
REMARK                            x       y       z     vdW  Elec       q    Type
REMARK                         _______ _______ _______ _____ _____    ______ ____
ROOT
ATOM      1  C   UNL     1       6.041   6.327 -10.250  0.00  0.00    -0.019 A 
ATOM      2  C   UNL     1       6.075   5.448  -9.174  0.00  0.00    -0.001 A 
ATOM      3  C   UNL     1       4.997   5.396  -8.306  0.00  0.00    +0.037 A 
ATOM      4  C   UNL     1       3.884   6.195  -8.491  0.00  0.00    +0.139 A 
ATOM      5  C   UNL     1       3.735   6.864  -9.699  0.00  0.00    +0.037 A 
ATOM      6  C   UNL     1       4.799   6.825 -10.592  0.00  0.00    -0.001 A 
ENDROOT
BRANCH   4   7
ATOM      7  O   UNL     1       3.117   6.573  -7.415  0.00  0.00    -0.473 OA
BRANCH   7   8
ATOM      8  C   UNL     1       1.716   6.725  -7.451  0.00  0.00    +0.240 C 
BRANCH   8   9
ATOM      9  C   UNL     1       1.133   5.182  -7.636  0.00  0.00    +0.213 C 
ATOM     10  O   UNL     1       0.023   5.433  -6.615  0.00  0.00    -0.218 OA
BRANCH   9  11
ATOM     11  C   UNL     1       0.150   5.645  -8.891  0.00  0.00    +0.125 C 
BRANCH  11  12
ATOM     12  N   UNL     1       0.630   4.817  -9.990  0.00  0.00    -0.217 NA
BRANCH  12  13
ATOM     13  C   UNL     1       0.777   5.639 -11.189  0.00  0.00    +0.073 C 
ATOM     14  C   UNL     1      -0.235   6.773 -11.082  0.00  0.00    +0.019 C 
ATOM     15  C   UNL     1       0.379   4.741 -12.353  0.00  0.00    +0.019 C 
ENDBRANCH  12  13
ENDBRANCH  11  12
ENDBRANCH   9  11
ENDBRANCH   8   9
ENDBRANCH   7   8
ENDBRANCH   4   7
BRANCH   1  16
ATOM     16  C   UNL     1       7.275   7.010 -10.747  0.00  0.00    +0.058 C 
BRANCH  16  17
ATOM     17  C   UNL     1       7.573   6.575 -12.156  0.00  0.00    +0.147 C 
BRANCH  17  19
ATOM     18  C   UNL     1       8.996   5.843 -12.184  0.00  0.00    +0.174 C 
ATOM     19  O   UNL     1       8.755   5.821 -12.144  0.00  0.00    -0.351 OA
ENDBRANCH  17  19
ENDBRANCH  16  17
ENDBRANCH   1  16
TORSDOF 9
ENDMDL
MODEL 7
REMARK VINA RESULT:      -5.9      3.332      8.438
REMARK  Name = 
REMARK  9 active torsions:
REMARK  status: ('A' for Active; 'I' for Inactive)
REMARK    1  A    between atoms: O_2  and  C_3
REMARK    2  A    between atoms: C_3  and  C_4
REMARK    3  A    between atoms: C_4  and  C_5
REMARK    4  A    between atoms: C_8  and  O_9
REMARK    5  A    between atoms: O_9  and  C_10
REMARK    6  A    between atoms: C_10  and  C_11
REMARK    7  A    between atoms: C_11  and  C_13
REMARK    8  A    between atoms: C_13  and  N_14
REMARK    9  A    between atoms: N_14  and  C_15
REMARK                            x       y       z     vdW  Elec       q    Type
REMARK                         _______ _______ _______ _____ _____    ______ ____
ROOT
ATOM      1  C   UNL     1       6.075   6.253 -10.101  0.00  0.00    -0.019 A 
ATOM      2  C   UNL     1       6.099   5.426  -8.985  0.00  0.00    -0.001 A 
ATOM      3  C   UNL     1       4.987   5.369  -8.159  0.00  0.00    +0.037 A 
ATOM      4  C   UNL     1       3.853   6.113  -8.426  0.00  0.00    +0.139 A 
ATOM      5  C   UNL     1       3.729   6.720  -9.669  0.00  0.00    +0.037 A 
ATOM      6  C   UNL     1       4.830   6.684 -10.516  0.00  0.00    -0.001 A 
ENDROOT
BRANCH   4   7
ATOM      7  O   UNL     1       3.028   6.508  -7.400  0.00  0.00    -0.473 OA
BRANCH   7   8
ATOM      8  C   UNL     1       1.944   5.748  -6.915  0.00  0.00    +0.240 C 
BRANCH   8   9
ATOM      9  C   UNL     1       1.419   6.578  -5.576  0.00  0.00    +0.213 C 
ATOM     10  O   UNL     1       0.294   5.570  -5.339  0.00  0.00    -0.218 OA
BRANCH   9  11
ATOM     11  C   UNL     1       2.449   5.738  -4.582  0.00  0.00    +0.125 C 
BRANCH  11  12
ATOM     12  N   UNL     1       3.159   6.806  -3.889  0.00  0.00    -0.217 NA
BRANCH  12  13
ATOM     13  C   UNL     1       4.535   6.387  -3.633  0.00  0.00    +0.073 C 
ATOM     14  C   UNL     1       5.447   7.423  -4.278  0.00  0.00    +0.019 C 
ATOM     15  C   UNL     1       4.705   5.064  -4.368  0.00  0.00    +0.019 C 
ENDBRANCH  12  13
ENDBRANCH  11  12
ENDBRANCH   9  11
ENDBRANCH   8   9
ENDBRANCH   7   8
ENDBRANCH   4   7
BRANCH   1  16
ATOM     16  C   UNL     1       7.302   6.962 -10.579  0.00  0.00    +0.058 C 
BRANCH  16  17
ATOM     17  C   UNL     1       7.569   6.616 -12.020  0.00  0.00    +0.147 C 
BRANCH  17  19
ATOM     18  C   UNL     1       8.944   5.823 -12.223  0.00  0.00    +0.174 C 
ATOM     19  O   UNL     1       8.747   5.860 -12.080  0.00  0.00    -0.351 OA
ENDBRANCH  17  19
ENDBRANCH  16  17
ENDBRANCH   1  16
TORSDOF 9
ENDMDL
MODEL 8
REMARK VINA RESULT:      -5.9      2.043      2.916
REMARK  Name = 
REMARK  9 active torsions:
REMARK  status: ('A' for Active; 'I' for Inactive)
REMARK    1  A    between atoms: O_2  and  C_3
REMARK    2  A    between atoms: C_3  and  C_4
REMARK    3  A    between atoms: C_4  and  C_5
REMARK    4  A    between atoms: C_8  and  O_9
REMARK    5  A    between atoms: O_9  and  C_10
REMARK    6  A    between atoms: C_10  and  C_11
REMARK    7  A    between atoms: C_11  and  C_13
REMARK    8  A    between atoms: C_13  and  N_14
REMARK    9  A    between atoms: N_14  and  C_15
REMARK                            x       y       z     vdW  Elec       q    Type
REMARK                         _______ _______ _______ _____ _____    ______ ____
ROOT
ATOM      1  C   UNL     1      -1.708   6.233  -4.961  0.00  0.00    -0.019 A 
ATOM      2  C   UNL     1      -2.129   5.801  -6.213  0.00  0.00    -0.001 A 
ATOM      3  C   UNL     1      -1.200   5.268  -7.093  0.00  0.00    +0.037 A 
ATOM      4  C   UNL     1       0.134   5.152  -6.750  0.00  0.00    +0.139 A 
ATOM      5  C   UNL     1       0.500   5.328  -5.422  0.00  0.00    +0.037 A 
ATOM      6  C   UNL     1      -0.474   5.777  -4.539  0.00  0.00    -0.001 A 
ENDROOT
BRANCH   4   7
ATOM      7  O   UNL     1       1.103   5.181  -7.724  0.00  0.00    -0.473 OA
BRANCH   7   8
ATOM      8  C   UNL     1       2.462   4.876  -7.503  0.00  0.00    +0.240 C 
BRANCH   8   9
ATOM      9  C   UNL     1       3.234   5.389  -8.880  0.00  0.00    +0.213 C 
ATOM     10  O   UNL     1       3.910   4.029  -9.059  0.00  0.00    -0.218 OA
BRANCH   9  11
ATOM     11  C   UNL     1       1.954   4.933  -9.834  0.00  0.00    +0.125 C 
BRANCH  11  12
ATOM     12  N   UNL     1       1.930   5.978 -10.851  0.00  0.00    -0.217 NA
BRANCH  12  13
ATOM     13  C   UNL     1       0.679   5.898 -11.600  0.00  0.00    +0.073 C 
ATOM     14  C   UNL     1      -0.155   7.112 -11.210  0.00  0.00    +0.019 C 
ATOM     15  C   UNL     1      -0.023   4.644 -11.095  0.00  0.00    +0.019 C 
ENDBRANCH  12  13
ENDBRANCH  11  12
ENDBRANCH   9  11
ENDBRANCH   8   9
ENDBRANCH   7   8
ENDBRANCH   4   7
BRANCH   1  16
ATOM     16  C   UNL     1      -2.329   7.416  -4.289  0.00  0.00    +0.058 C 
BRANCH  16  17
ATOM     17  C   UNL     1      -2.148   7.316  -2.798  0.00  0.00    +0.147 C 
BRANCH  17  19
ATOM     18  C   UNL     1      -3.515   6.659  -2.285  0.00  0.00    +0.174 C 
ATOM     19  O   UNL     1      -3.270   6.670  -2.260  0.00  0.00    -0.351 OA
ENDBRANCH  17  19
ENDBRANCH  16  17
ENDBRANCH   1  16
TORSDOF 9
ENDMDL
MODEL 9
REMARK VINA RESULT:      -5.8      1.512      2.107
REMARK  Name = 
REMARK  9 active torsions:
REMARK  status: ('A' for Active; 'I' for Inactive)
REMARK    1  A    between atoms: O_2  and  C_3
REMARK    2  A    between atoms: C_3  and  C_4
REMARK    3  A    between atoms: C_4  and  C_5
REMARK    4  A    between atoms: C_8  and  O_9
REMARK    5  A    between atoms: O_9  and  C_10
REMARK    6  A    between atoms: C_10  and  C_11
REMARK    7  A    between atoms: C_11  and  C_13
REMARK    8  A    between atoms: C_13  and  N_14
REMARK    9  A    between atoms: N_14  and  C_15
REMARK                            x       y       z     vdW  Elec       q    Type
REMARK                         _______ _______ _______ _____ _____    ______ ____
ROOT
ATOM      1  C   UNL     1      -1.221   6.157  -5.757  0.00  0.00    -0.019 A 
ATOM      2  C   UNL     1      -1.268   5.316  -6.862  0.00  0.00    -0.001 A 
ATOM      3  C   UNL     1      -0.222   5.332  -7.771  0.00  0.00    +0.037 A 
ATOM      4  C   UNL     1       0.870   6.162  -7.598  0.00  0.00    +0.139 A 
ATOM      5  C   UNL     1       1.043   6.792  -6.372  0.00  0.00    +0.037 A 
ATOM      6  C   UNL     1       0.016   6.684  -5.442  0.00  0.00    -0.001 A 
ENDROOT
BRANCH   4   7
ATOM      7  O   UNL     1       1.582   6.605  -8.687  0.00  0.00    -0.473 OA
BRANCH   7   8
ATOM      8  C   UNL     1       2.233   5.759  -9.608  0.00  0.00    +0.240 C 
BRANCH   8   9
ATOM      9  C   UNL     1       3.789   5.643  -9.041  0.00  0.00    +0.213 C 
ATOM     10  O   UNL     1       3.681   4.122  -8.930  0.00  0.00    -0.218 OA
BRANCH   9  11
ATOM     11  C   UNL     1       4.402   5.537 -10.580  0.00  0.00    +0.125 C 
BRANCH  11  12
ATOM     12  N   UNL     1       5.832   5.715 -10.364  0.00  0.00    -0.217 NA
BRANCH  12  13
ATOM     13  C   UNL     1       6.421   6.370 -11.529  0.00  0.00    +0.073 C 
ATOM     14  C   UNL     1       7.833   5.819 -11.686  0.00  0.00    +0.019 C 
ATOM     15  C   UNL     1       6.512   7.847 -11.168  0.00  0.00    +0.019 C 
ENDBRANCH  12  13
ENDBRANCH  11  12
ENDBRANCH   9  11
ENDBRANCH   8   9
ENDBRANCH   7   8
ENDBRANCH   4   7
BRANCH   1  16
ATOM     16  C   UNL     1      -2.457   6.779  -5.189  0.00  0.00    +0.058 C 
BRANCH  16  17
ATOM     17  C   UNL     1      -2.236   7.141  -3.745  0.00  0.00    +0.147 C 
BRANCH  17  19
ATOM     18  C   UNL     1      -3.386   6.614  -2.765  0.00  0.00    +0.174 C 
ATOM     19  O   UNL     1      -3.288   6.605  -2.990  0.00  0.00    -0.351 OA
ENDBRANCH  17  19
ENDBRANCH  16  17
ENDBRANCH   1  16
TORSDOF 9
ENDMDL
