MODEL 1
REMARK VINA RESULT:      -7.9      0.000      0.000
REMARK  Name = 
REMARK  5 active torsions:
REMARK  status: ('A' for Active; 'I' for Inactive)
REMARK    1  A    between atoms: C_4  and  C_5
REMARK    2  A    between atoms: C_4  and  C_11
REMARK    3  A    between atoms: N_19  and  C_20
REMARK    4  A    between atoms: C_20  and  O_21
REMARK    5  A    between atoms: O_21  and  P_22
REMARK                            x       y       z     vdW  Elec       q    Type
REMARK                         _______ _______ _______ _____ _____    ______ ____
ROOT
ATOM      1  O   UNL     1       2.337   7.980  -8.145  0.00  0.00    -0.250 OA
ATOM      2  C   UNL     1       1.767   7.212  -7.314  0.00  0.00    +0.332 C 
ATOM      3  N   UNL     1       1.257   5.903  -7.490  0.00  0.00    -0.183 N 
ATOM      4  C   UNL     1       1.471   5.244  -6.236  0.00  0.00    +0.260 C 
ATOM      5  O   UNL     1       1.090   4.052  -6.035  0.00  0.00    -0.272 OA
ATOM      6  C   UNL     1       1.396   6.308  -5.208  0.00  0.00    +0.186 C 
ATOM      7  N   UNL     1       1.528   7.560  -5.947  0.00  0.00    -0.174 NA
ENDROOT
BRANCH   6   8
ATOM      8  C   UNL     1       0.064   6.281  -4.575  0.00  0.00    +0.008 A 
ATOM      9  C   UNL     1      -0.209   5.505  -3.463  0.00  0.00    -0.002 A 
ATOM     10  C   UNL     1      -1.510   5.455  -2.985  0.00  0.00    -0.000 A 
ATOM     11  C   UNL     1      -2.457   6.344  -3.477  0.00  0.00    -0.000 A 
ATOM     12  C   UNL     1      -1.960   7.457  -4.133  0.00  0.00    -0.000 A 
ATOM     13  C   UNL     1      -0.810   7.316  -4.866  0.00  0.00    -0.002 A 
ENDBRANCH   6   8
BRANCH   6  14
ATOM     14  C   UNL     1       2.470   6.171  -4.177  0.00  0.00    +0.008 A 
ATOM     15  C   UNL     1       2.832   7.284  -3.428  0.00  0.00    -0.002 A 
ATOM     16  C   UNL     1       4.123   7.447  -2.939  0.00  0.00    -0.000 A 
ATOM     17  C   UNL     1       5.141   6.641  -3.436  0.00  0.00    -0.000 A 
ATOM     18  C   UNL     1       4.745   5.378  -3.862  0.00  0.00    -0.000 A 
ATOM     19  C   UNL     1       3.429   5.172  -4.259  0.00  0.00    -0.002 A 
ENDBRANCH   6  14
BRANCH   3  20
ATOM     20  C   UNL     1       0.939   5.347  -8.779  0.00  0.00    +0.260 C 
BRANCH  20  21
ATOM     21  O   UNL     1      -0.147   5.940  -9.391  0.00  0.00    -0.248 OA
BRANCH  21  22
ATOM     22  P   UNL     1       0.274   6.188 -11.020  0.00  0.00    +0.534 P 
ATOM     23  O   UNL     1       1.953   6.437 -11.109  0.00  0.00    -0.115 OA
ATOM     24  O   UNL     1      -0.489   7.580 -11.626  0.00  0.00    -0.115 OA
ATOM     25  O   UNL     1      -0.112   4.955 -11.809  0.00  0.00    -0.222 OA
ENDBRANCH  21  22
ENDBRANCH  20  21
ENDBRANCH   3  20
TORSDOF 5
ENDMDL
MODEL 2
REMARK VINA RESULT:      -7.8      2.385      4.775
REMARK  Name = 
REMARK  5 active torsions:
REMARK  status: ('A' for Active; 'I' for Inactive)
REMARK    1  A    between atoms: C_4  and  C_5
REMARK    2  A    between atoms: C_4  and  C_11
REMARK    3  A    between atoms: N_19  and  C_20
REMARK    4  A    between atoms: C_20  and  O_21
REMARK    5  A    between atoms: O_21  and  P_22
REMARK                            x       y       z     vdW  Elec       q    Type
REMARK                         _______ _______ _______ _____ _____    ______ ____
ROOT
ATOM      1  O   UNL     1       2.643   3.682  -8.531  0.00  0.00    -0.250 OA
ATOM      2  C   UNL     1       2.595   4.742  -7.838  0.00  0.00    +0.332 C 
ATOM      3  N   UNL     1       2.772   6.091  -8.230  0.00  0.00    -0.183 N 
ATOM      4  C   UNL     1       1.895   6.846  -7.386  0.00  0.00    +0.260 C 
ATOM      5  O   UNL     1       1.833   8.110  -7.449  0.00  0.00    -0.272 OA
ATOM      6  C   UNL     1       1.810   6.088  -6.117  0.00  0.00    +0.186 C 
ATOM      7  N   UNL     1       2.327   4.759  -6.433  0.00  0.00    -0.174 NA
ENDROOT
BRANCH   6   8
ATOM      8  C   UNL     1       2.702   6.707  -5.119  0.00  0.00    +0.008 A 
ATOM      9  C   UNL     1       2.436   6.659  -3.762  0.00  0.00    -0.002 A 
ATOM     10  C   UNL     1       3.268   7.350  -2.892  0.00  0.00    -0.000 A 
ATOM     11  C   UNL     1       4.463   7.880  -3.361  0.00  0.00    -0.000 A 
ATOM     12  C   UNL     1       4.922   7.369  -4.563  0.00  0.00    -0.000 A 
ATOM     13  C   UNL     1       3.996   7.010  -5.509  0.00  0.00    -0.002 A 
ENDBRANCH   6   8
BRANCH   6  14
ATOM     14  C   UNL     1       0.411   6.014  -5.596  0.00  0.00    +0.008 A 
ATOM     15  C   UNL     1      -0.509   5.198  -6.244  0.00  0.00    -0.002 A 
ATOM     16  C   UNL     1      -1.866   5.497  -6.261  0.00  0.00    -0.000 A 
ATOM     17  C   UNL     1      -2.283   6.766  -5.877  0.00  0.00    -0.000 A 
ATOM     18  C   UNL     1      -1.474   7.401  -4.942  0.00  0.00    -0.000 A 
ATOM     19  C   UNL     1      -0.136   7.042  -4.841  0.00  0.00    -0.002 A 
ENDBRANCH   6  14
BRANCH   3  20
ATOM     20  C   UNL     1       3.440   6.478  -9.445  0.00  0.00    +0.260 C 
BRANCH  20  21
ATOM     21  O   UNL     1       4.788   6.183  -9.461  0.00  0.00    -0.248 OA
BRANCH  21  22
ATOM     22  P   UNL     1       5.337   6.451 -11.048  0.00  0.00    +0.534 P 
ATOM     23  O   UNL     1       5.889   8.054 -11.163  0.00  0.00    -0.115 OA
ATOM     24  O   UNL     1       4.062   6.260 -12.157  0.00  0.00    -0.115 OA
ATOM     25  O   UNL     1       6.469   5.488 -11.334  0.00  0.00    -0.222 OA
ENDBRANCH  21  22
ENDBRANCH  20  21
ENDBRANCH   3  20
TORSDOF 5
ENDMDL
MODEL 3
REMARK VINA RESULT:      -7.7      4.346      7.767
REMARK  Name = 
REMARK  5 active torsions:
REMARK  status: ('A' for Active; 'I' for Inactive)
REMARK    1  A    between atoms: C_4  and  C_5
REMARK    2  A    between atoms: C_4  and  C_11
REMARK    3  A    between atoms: N_19  and  C_20
REMARK    4  A    between atoms: C_20  and  O_21
REMARK    5  A    between atoms: O_21  and  P_22
REMARK                            x       y       z     vdW  Elec       q    Type
REMARK                         _______ _______ _______ _____ _____    ______ ____
ROOT
ATOM      1  O   UNL     1       2.514   7.733  -6.983  0.00  0.00    -0.250 OA
ATOM      2  C   UNL     1       3.107   7.013  -7.841  0.00  0.00    +0.332 C 
ATOM      3  N   UNL     1       3.830   5.808  -7.671  0.00  0.00    -0.183 N 
ATOM      4  C   UNL     1       3.591   5.054  -8.866  0.00  0.00    +0.260 C 
ATOM      5  O   UNL     1       4.130   3.923  -9.060  0.00  0.00    -0.272 OA
ATOM      6  C   UNL     1       3.390   6.056  -9.938  0.00  0.00    +0.186 C 
ATOM      7  N   UNL     1       3.142   7.314  -9.239  0.00  0.00    -0.174 NA
ENDROOT
BRANCH   6   8
ATOM      8  C   UNL     1       4.635   6.195 -10.715  0.00  0.00    +0.008 A 
ATOM      9  C   UNL     1       4.980   5.307 -11.720  0.00  0.00    -0.002 A 
ATOM     10  C   UNL     1       6.214   5.445 -12.339  0.00  0.00    -0.000 A 
ATOM     11  C   UNL     1       6.976   6.583 -12.108  0.00  0.00    -0.000 A 
ATOM     12  C   UNL     1       6.299   7.667 -11.575  0.00  0.00    -0.000 A 
ATOM     13  C   UNL     1       5.276   7.422 -10.695  0.00  0.00    -0.002 A 
ENDBRANCH   6   8
BRANCH   6  14
ATOM     14  C   UNL     1       2.248   5.700 -10.834  0.00  0.00    +0.008 A 
ATOM     15  C   UNL     1       1.914   6.557 -11.875  0.00  0.00    -0.002 A 
ATOM     16  C   UNL     1       0.609   6.668 -12.341  0.00  0.00    -0.000 A 
ATOM     17  C   UNL     1      -0.427   6.138 -11.581  0.00  0.00    -0.000 A 
ATOM     18  C   UNL     1      -0.090   5.037 -10.801  0.00  0.00    -0.000 A 
ATOM     19  C   UNL     1       1.231   4.856 -10.411  0.00  0.00    -0.002 A 
ENDBRANCH   6  14
BRANCH   3  20
ATOM     20  C   UNL     1       4.366   5.382  -6.405  0.00  0.00    +0.260 C 
BRANCH  20  21
ATOM     21  O   UNL     1       3.406   4.966  -5.504  0.00  0.00    -0.248 OA
BRANCH  21  22
ATOM     22  P   UNL     1       3.651   5.852  -4.073  0.00  0.00    +0.534 P 
ATOM     23  O   UNL     1       2.147   6.431  -3.535  0.00  0.00    -0.115 OA
ATOM     24  O   UNL     1       4.648   7.196  -4.370  0.00  0.00    -0.115 OA
ATOM     25  O   UNL     1       4.257   4.931  -3.035  0.00  0.00    -0.222 OA
ENDBRANCH  21  22
ENDBRANCH  20  21
ENDBRANCH   3  20
TORSDOF 5
ENDMDL
MODEL 4
REMARK VINA RESULT:      -7.7      3.216      5.837
REMARK  Name = 
REMARK  5 active torsions:
REMARK  status: ('A' for Active; 'I' for Inactive)
REMARK    1  A    between atoms: C_4  and  C_5
REMARK    2  A    between atoms: C_4  and  C_11
REMARK    3  A    between atoms: N_19  and  C_20
REMARK    4  A    between atoms: C_20  and  O_21
REMARK    5  A    between atoms: O_21  and  P_22
REMARK                            x       y       z     vdW  Elec       q    Type
REMARK                         _______ _______ _______ _____ _____    ______ ____
ROOT
ATOM      1  O   UNL     1       2.678   3.819  -5.586  0.00  0.00    -0.250 OA
ATOM      2  C   UNL     1       2.496   4.565  -6.594  0.00  0.00    +0.332 C 
ATOM      3  N   UNL     1       2.187   5.945  -6.658  0.00  0.00    -0.183 N 
ATOM      4  C   UNL     1       2.845   6.423  -7.838  0.00  0.00    +0.260 C 
ATOM      5  O   UNL     1       2.742   7.629  -8.217  0.00  0.00    -0.272 OA
ATOM      6  C   UNL     1       2.877   5.275  -8.772  0.00  0.00    +0.186 C 
ATOM      7  N   UNL     1       2.588   4.106  -7.946  0.00  0.00    -0.174 NA
ENDROOT
BRANCH   6   8
ATOM      8  C   UNL     1       1.795   5.422  -9.763  0.00  0.00    +0.008 A 
ATOM      9  C   UNL     1       0.975   4.367 -10.121  0.00  0.00    -0.002 A 
ATOM     10  C   UNL     1       0.045   4.557 -11.133  0.00  0.00    -0.000 A 
ATOM     11  C   UNL     1      -0.203   5.839 -11.607  0.00  0.00    -0.000 A 
ATOM     12  C   UNL     1       0.214   6.878 -10.791  0.00  0.00    -0.000 A 
ATOM     13  C   UNL     1       1.360   6.704 -10.058  0.00  0.00    -0.002 A 
ENDBRANCH   6   8
BRANCH   6  14
ATOM     14  C   UNL     1       4.200   5.141  -9.455  0.00  0.00    +0.008 A 
ATOM     15  C   UNL     1       5.362   5.209  -8.696  0.00  0.00    -0.002 A 
ATOM     16  C   UNL     1       6.552   5.697  -9.223  0.00  0.00    -0.000 A 
ATOM     17  C   UNL     1       6.523   6.392 -10.426  0.00  0.00    -0.000 A 
ATOM     18  C   UNL     1       5.510   6.021 -11.303  0.00  0.00    -0.000 A 
ATOM     19  C   UNL     1       4.353   5.437 -10.802  0.00  0.00    -0.002 A 
ENDBRANCH   6  14
BRANCH   3  20
ATOM     20  C   UNL     1       1.625   6.679  -5.555  0.00  0.00    +0.260 C 
BRANCH  20  21
ATOM     21  O   UNL     1       0.411   7.272  -5.839  0.00  0.00    -0.248 OA
BRANCH  21  22
ATOM     22  P   UNL     1      -0.795   6.122  -5.496  0.00  0.00    +0.534 P 
ATOM     23  O   UNL     1      -1.068   5.195  -6.894  0.00  0.00    -0.115 OA
ATOM     24  O   UNL     1      -2.254   6.894  -5.092  0.00  0.00    -0.115 OA
ATOM     25  O   UNL     1      -0.306   5.235  -4.370  0.00  0.00    -0.222 OA
ENDBRANCH  21  22
ENDBRANCH  20  21
ENDBRANCH   3  20
TORSDOF 5
ENDMDL
MODEL 5
REMARK VINA RESULT:      -7.4      4.165      6.987
REMARK  Name = 
REMARK  5 active torsions:
REMARK  status: ('A' for Active; 'I' for Inactive)
REMARK    1  A    between atoms: C_4  and  C_5
REMARK    2  A    between atoms: C_4  and  C_11
REMARK    3  A    between atoms: N_19  and  C_20
REMARK    4  A    between atoms: C_20  and  O_21
REMARK    5  A    between atoms: O_21  and  P_22
REMARK                            x       y       z     vdW  Elec       q    Type
REMARK                         _______ _______ _______ _____ _____    ______ ____
ROOT
ATOM      1  O   UNL     1       4.994   4.728  -6.859  0.00  0.00    -0.250 OA
ATOM      2  C   UNL     1       4.204   5.246  -7.704  0.00  0.00    +0.332 C 
ATOM      3  N   UNL     1       3.294   6.321  -7.555  0.00  0.00    -0.183 N 
ATOM      4  C   UNL     1       3.281   6.981  -8.827  0.00  0.00    +0.260 C 
ATOM      5  O   UNL     1       2.532   7.978  -9.053  0.00  0.00    -0.272 OA
ATOM      6  C   UNL     1       3.559   5.926  -9.828  0.00  0.00    +0.186 C 
ATOM      7  N   UNL     1       4.093   4.805  -9.060  0.00  0.00    -0.174 NA
ENDROOT
BRANCH   6   8
ATOM      8  C   UNL     1       2.292   5.499 -10.451  0.00  0.00    +0.008 A 
ATOM      9  C   UNL     1       1.377   4.701  -9.788  0.00  0.00    -0.002 A 
ATOM     10  C   UNL     1       0.255   4.258 -10.474  0.00  0.00    -0.000 A 
ATOM     11  C   UNL     1      -0.046   4.796 -11.719  0.00  0.00    -0.000 A 
ATOM     12  C   UNL     1       0.576   5.995 -12.027  0.00  0.00    -0.000 A 
ATOM     13  C   UNL     1       1.848   6.203 -11.558  0.00  0.00    -0.002 A 
ENDBRANCH   6   8
BRANCH   6  14
ATOM     14  C   UNL     1       4.530   6.379 -10.870  0.00  0.00    +0.008 A 
ATOM     15  C   UNL     1       5.134   5.433 -11.689  0.00  0.00    -0.002 A 
ATOM     16  C   UNL     1       6.407   5.625 -12.212  0.00  0.00    -0.000 A 
ATOM     17  C   UNL     1       7.207   6.634 -11.690  0.00  0.00    -0.000 A 
ATOM     18  C   UNL     1       6.522   7.734 -11.184  0.00  0.00    -0.000 A 
ATOM     19  C   UNL     1       5.211   7.582 -10.750  0.00  0.00    -0.002 A 
ENDBRANCH   6  14
BRANCH   3  20
ATOM     20  C   UNL     1       2.812   6.774  -6.278  0.00  0.00    +0.260 C 
BRANCH  20  21
ATOM     21  O   UNL     1       3.707   7.571  -5.592  0.00  0.00    -0.248 OA
BRANCH  21  22
ATOM     22  P   UNL     1       3.874   6.905  -4.036  0.00  0.00    +0.534 P 
ATOM     23  O   UNL     1       2.691   5.701  -3.837  0.00  0.00    -0.115 OA
ATOM     24  O   UNL     1       3.609   8.093  -2.850  0.00  0.00    -0.115 OA
ATOM     25  O   UNL     1       5.257   6.302  -3.918  0.00  0.00    -0.222 OA
ENDBRANCH  21  22
ENDBRANCH  20  21
ENDBRANCH   3  20
TORSDOF 5
ENDMDL
MODEL 6
REMARK VINA RESULT:      -7.4      1.368      2.025
REMARK  Name = 
REMARK  5 active torsions:
REMARK  status: ('A' for Active; 'I' for Inactive)
REMARK    1  A    between atoms: C_4  and  C_5
REMARK    2  A    between atoms: C_4  and  C_11
REMARK    3  A    between atoms: N_19  and  C_20
REMARK    4  A    between atoms: C_20  and  O_21
REMARK    5  A    between atoms: O_21  and  P_22
REMARK                            x       y       z     vdW  Elec       q    Type
REMARK                         _______ _______ _______ _____ _____    ______ ____
ROOT
ATOM      1  O   UNL     1       3.479   7.070  -8.648  0.00  0.00    -0.250 OA
ATOM      2  C   UNL     1       2.637   6.513  -7.881  0.00  0.00    +0.332 C 
ATOM      3  N   UNL     1       2.059   5.223  -7.953  0.00  0.00    -0.183 N 
ATOM      4  C   UNL     1       1.872   4.819  -6.591  0.00  0.00    +0.260 C 
ATOM      5  O   UNL     1       1.333   3.712  -6.292  0.00  0.00    -0.272 OA
ATOM      6  C   UNL     1       1.644   6.069  -5.831  0.00  0.00    +0.186 C 
ATOM      7  N   UNL     1       2.091   7.140  -6.718  0.00  0.00    -0.174 NA
ENDROOT
BRANCH   6   8
ATOM      8  C   UNL     1       0.198   6.237  -5.592  0.00  0.00    +0.008 A 
ATOM      9  C   UNL     1      -0.325   7.377  -5.007  0.00  0.00    -0.002 A 
ATOM     10  C   UNL     1      -1.682   7.420  -4.723  0.00  0.00    -0.000 A 
ATOM     11  C   UNL     1      -2.521   6.435  -5.228  0.00  0.00    -0.000 A 
ATOM     12  C   UNL     1      -2.016   5.689  -6.280  0.00  0.00    -0.000 A 
ATOM     13  C   UNL     1      -0.671   5.418  -6.293  0.00  0.00    -0.002 A 
ENDBRANCH   6   8
BRANCH   6  14
ATOM     14  C   UNL     1       2.395   6.087  -4.538  0.00  0.00    +0.008 A 
ATOM     15  C   UNL     1       1.858   5.434  -3.436  0.00  0.00    -0.002 A 
ATOM     16  C   UNL     1       2.103   5.869  -2.138  0.00  0.00    -0.000 A 
ATOM     17  C   UNL     1       2.651   7.131  -1.941  0.00  0.00    -0.000 A 
ATOM     18  C   UNL     1       3.475   7.588  -2.962  0.00  0.00    -0.000 A 
ATOM     19  C   UNL     1       3.311   7.088  -4.248  0.00  0.00    -0.002 A 
ENDBRANCH   6  14
BRANCH   3  20
ATOM     20  C   UNL     1       2.030   4.438  -9.159  0.00  0.00    +0.260 C 
BRANCH  20  21
ATOM     21  O   UNL     1       0.841   4.527  -9.855  0.00  0.00    -0.248 OA
BRANCH  21  22
ATOM     22  P   UNL     1       1.130   5.524 -11.203  0.00  0.00    +0.534 P 
ATOM     23  O   UNL     1       0.396   4.816 -12.563  0.00  0.00    -0.115 OA
ATOM     24  O   UNL     1       2.797   5.636 -11.513  0.00  0.00    -0.115 OA
ATOM     25  O   UNL     1       0.523   6.885 -10.932  0.00  0.00    -0.222 OA
ENDBRANCH  21  22
ENDBRANCH  20  21
ENDBRANCH   3  20
TORSDOF 5
ENDMDL
MODEL 7
REMARK VINA RESULT:      -7.2      0.898      1.343
REMARK  Name = 
REMARK  5 active torsions:
REMARK  status: ('A' for Active; 'I' for Inactive)
REMARK    1  A    between atoms: C_4  and  C_5
REMARK    2  A    between atoms: C_4  and  C_11
REMARK    3  A    between atoms: N_19  and  C_20
REMARK    4  A    between atoms: C_20  and  O_21
REMARK    5  A    between atoms: O_21  and  P_22
REMARK                            x       y       z     vdW  Elec       q    Type
REMARK                         _______ _______ _______ _____ _____    ______ ____
ROOT
ATOM      1  O   UNL     1       3.072   7.744  -7.230  0.00  0.00    -0.250 OA
ATOM      2  C   UNL     1       2.247   7.009  -6.611  0.00  0.00    +0.332 C 
ATOM      3  N   UNL     1       1.636   5.796  -7.009  0.00  0.00    -0.183 N 
ATOM      4  C   UNL     1       1.491   5.034  -5.805  0.00  0.00    +0.260 C 
ATOM      5  O   UNL     1       0.936   3.894  -5.799  0.00  0.00    -0.272 OA
ATOM      6  C   UNL     1       1.321   6.029  -4.721  0.00  0.00    +0.186 C 
ATOM      7  N   UNL     1       1.760   7.297  -5.297  0.00  0.00    -0.174 NA
ENDROOT
BRANCH   6   8
ATOM      8  C   UNL     1      -0.110   6.143  -4.383  0.00  0.00    +0.008 A 
ATOM      9  C   UNL     1      -0.707   5.344  -3.424  0.00  0.00    -0.002 A 
ATOM     10  C   UNL     1      -2.078   5.441  -3.233  0.00  0.00    -0.000 A 
ATOM     11  C   UNL     1      -2.784   6.477  -3.831  0.00  0.00    -0.000 A 
ATOM     12  C   UNL     1      -2.028   7.551  -4.270  0.00  0.00    -0.000 A 
ATOM     13  C   UNL     1      -0.771   7.301  -4.758  0.00  0.00    -0.002 A 
ENDBRANCH   6   8
BRANCH   6  14
ATOM     14  C   UNL     1       2.121   5.680  -3.506  0.00  0.00    +0.008 A 
ATOM     15  C   UNL     1       1.954   6.432  -2.350  0.00  0.00    -0.002 A 
ATOM     16  C   UNL     1       2.990   6.613  -1.441  0.00  0.00    -0.000 A 
ATOM     17  C   UNL     1       4.287   6.286  -1.820  0.00  0.00    -0.000 A 
ATOM     18  C   UNL     1       4.393   5.261  -2.754  0.00  0.00    -0.000 A 
ATOM     19  C   UNL     1       3.326   4.999  -3.604  0.00  0.00    -0.002 A 
ENDBRANCH   6  14
BRANCH   3  20
ATOM     20  C   UNL     1       1.542   5.374  -8.382  0.00  0.00    +0.260 C 
BRANCH  20  21
ATOM     21  O   UNL     1       0.290   5.550  -8.937  0.00  0.00    -0.248 OA
BRANCH  21  22
ATOM     22  P   UNL     1       0.524   5.934 -10.578  0.00  0.00    +0.534 P 
ATOM     23  O   UNL     1      -0.412   4.870 -11.517  0.00  0.00    -0.115 OA
ATOM     24  O   UNL     1       2.152   5.714 -11.013  0.00  0.00    -0.115 OA
ATOM     25  O   UNL     1       0.077   7.362 -10.806  0.00  0.00    -0.222 OA
ENDBRANCH  21  22
ENDBRANCH  20  21
ENDBRANCH   3  20
TORSDOF 5
ENDMDL
MODEL 8
REMARK VINA RESULT:      -7.2      2.457      3.233
REMARK  Name = 
REMARK  5 active torsions:
REMARK  status: ('A' for Active; 'I' for Inactive)
REMARK    1  A    between atoms: C_4  and  C_5
REMARK    2  A    between atoms: C_4  and  C_11
REMARK    3  A    between atoms: N_19  and  C_20
REMARK    4  A    between atoms: C_20  and  O_21
REMARK    5  A    between atoms: O_21  and  P_22
REMARK                            x       y       z     vdW  Elec       q    Type
REMARK                         _______ _______ _______ _____ _____    ______ ____
ROOT
ATOM      1  O   UNL     1       4.038   7.566  -5.672  0.00  0.00    -0.250 OA
ATOM      2  C   UNL     1       2.999   6.841  -5.660  0.00  0.00    +0.332 C 
ATOM      3  N   UNL     1       2.696   5.677  -6.408  0.00  0.00    -0.183 N 
ATOM      4  C   UNL     1       1.898   4.868  -5.536  0.00  0.00    +0.260 C 
ATOM      5  O   UNL     1       1.419   3.755  -5.911  0.00  0.00    -0.272 OA
ATOM      6  C   UNL     1       1.168   5.817  -4.665  0.00  0.00    +0.186 C 
ATOM      7  N   UNL     1       1.869   7.089  -4.819  0.00  0.00    -0.174 NA
ENDROOT
BRANCH   6   8
ATOM      8  C   UNL     1      -0.208   5.981  -5.168  0.00  0.00    +0.008 A 
ATOM      9  C   UNL     1      -0.956   7.117  -4.913  0.00  0.00    -0.002 A 
ATOM     10  C   UNL     1      -2.277   7.157  -5.334  0.00  0.00    -0.000 A 
ATOM     11  C   UNL     1      -2.756   6.171  -6.187  0.00  0.00    -0.000 A 
ATOM     12  C   UNL     1      -1.796   5.430  -6.856  0.00  0.00    -0.000 A 
ATOM     13  C   UNL     1      -0.618   5.162  -6.207  0.00  0.00    -0.002 A 
ENDBRANCH   6   8
BRANCH   6  14
ATOM     14  C   UNL     1       1.157   5.375  -3.236  0.00  0.00    +0.008 A 
ATOM     15  C   UNL     1      -0.062   5.218  -2.588  0.00  0.00    -0.002 A 
ATOM     16  C   UNL     1      -0.193   5.419  -1.219  0.00  0.00    -0.000 A 
ATOM     17  C   UNL     1       0.831   6.059  -0.529  0.00  0.00    -0.000 A 
ATOM     18  C   UNL     1       2.104   5.884  -1.058  0.00  0.00    -0.000 A 
ATOM     19  C   UNL     1       2.249   5.582  -2.406  0.00  0.00    -0.002 A 
ENDBRANCH   6  14
BRANCH   3  20
ATOM     20  C   UNL     1       3.374   5.325  -7.628  0.00  0.00    +0.260 C 
BRANCH  20  21
ATOM     21  O   UNL     1       3.263   6.275  -8.623  0.00  0.00    -0.248 OA
BRANCH  21  22
ATOM     22  P   UNL     1       4.541   6.004  -9.713  0.00  0.00    +0.534 P 
ATOM     23  O   UNL     1       5.909   5.521  -8.827  0.00  0.00    -0.115 OA
ATOM     24  O   UNL     1       4.935   7.438 -10.535  0.00  0.00    -0.115 OA
ATOM     25  O   UNL     1       4.129   4.909 -10.673  0.00  0.00    -0.222 OA
ENDBRANCH  21  22
ENDBRANCH  20  21
ENDBRANCH   3  20
TORSDOF 5
ENDMDL
MODEL 9
REMARK VINA RESULT:      -7.2      3.520      6.355
REMARK  Name = 
REMARK  5 active torsions:
REMARK  status: ('A' for Active; 'I' for Inactive)
REMARK    1  A    between atoms: C_4  and  C_5
REMARK    2  A    between atoms: C_4  and  C_11
REMARK    3  A    between atoms: N_19  and  C_20
REMARK    4  A    between atoms: C_20  and  O_21
REMARK    5  A    between atoms: O_21  and  P_22
REMARK                            x       y       z     vdW  Elec       q    Type
REMARK                         _______ _______ _______ _____ _____    ______ ____
ROOT
ATOM      1  O   UNL     1       3.363   4.275  -4.950  0.00  0.00    -0.250 OA
ATOM      2  C   UNL     1       2.903   4.974  -5.902  0.00  0.00    +0.332 C 
ATOM      3  N   UNL     1       2.128   6.157  -5.866  0.00  0.00    -0.183 N 
ATOM      4  C   UNL     1       2.543   6.913  -7.011  0.00  0.00    +0.260 C 
ATOM      5  O   UNL     1       2.013   8.027  -7.302  0.00  0.00    -0.272 OA
ATOM      6  C   UNL     1       2.949   5.914  -8.024  0.00  0.00    +0.186 C 
ATOM      7  N   UNL     1       3.111   4.666  -7.283  0.00  0.00    -0.174 NA
ENDROOT
BRANCH   6   8
ATOM      8  C   UNL     1       1.856   5.735  -8.999  0.00  0.00    +0.008 A 
ATOM      9  C   UNL     1       1.270   6.804  -9.653  0.00  0.00    -0.002 A 
ATOM     10  C   UNL     1       0.182   6.567 -10.480  0.00  0.00    -0.000 A 
ATOM     11  C   UNL     1      -0.156   5.261 -10.813  0.00  0.00    -0.000 A 
ATOM     12  C   UNL     1       0.828   4.309 -10.606  0.00  0.00    -0.000 A 
ATOM     13  C   UNL     1       1.671   4.473  -9.537  0.00  0.00    -0.002 A 
ENDBRANCH   6   8
BRANCH   6  14
ATOM     14  C   UNL     1       4.215   6.299  -8.720  0.00  0.00    +0.008 A 
ATOM     15  C   UNL     1       4.142   6.986  -9.925  0.00  0.00    -0.002 A 
ATOM     16  C   UNL     1       5.122   6.854 -10.902  0.00  0.00    -0.000 A 
ATOM     17  C   UNL     1       6.037   5.813 -10.805  0.00  0.00    -0.000 A 
ATOM     18  C   UNL     1       6.327   5.395  -9.511  0.00  0.00    -0.000 A 
ATOM     19  C   UNL     1       5.400   5.611  -8.499  0.00  0.00    -0.002 A 
ENDBRANCH   6  14
BRANCH   3  20
ATOM     20  C   UNL     1       1.376   6.573  -4.712  0.00  0.00    +0.260 C 
BRANCH  20  21
ATOM     21  O   UNL     1       0.487   5.622  -4.252  0.00  0.00    -0.248 OA
BRANCH  21  22
ATOM     22  P   UNL     1       0.331   5.859  -2.574  0.00  0.00    +0.534 P 
ATOM     23  O   UNL     1      -0.988   6.895  -2.297  0.00  0.00    -0.115 OA
ATOM     24  O   UNL     1       1.721   6.610  -1.949  0.00  0.00    -0.115 OA
ATOM     25  O   UNL     1       0.085   4.515  -1.921  0.00  0.00    -0.222 OA
ENDBRANCH  21  22
ENDBRANCH  20  21
ENDBRANCH   3  20
TORSDOF 5
ENDMDL
