MODEL 1
REMARK VINA RESULT:      -8.2      0.000      0.000
REMARK  Name = 
REMARK  1 active torsions:
REMARK  status: ('A' for Active; 'I' for Inactive)
REMARK    1  A    between atoms: C_10  and  C_11
REMARK                            x       y       z     vdW  Elec       q    Type
REMARK                         _______ _______ _______ _____ _____    ______ ____
ROOT
ATOM      1  C   UNL     1      -0.461   5.250  -7.999  0.00  0.00    +0.120 C 
ATOM      2  N   UNL     1       0.719   6.019  -8.297  0.00  0.00    -0.255 N 
ATOM      3  C   UNL     1       1.420   6.488  -7.147  0.00  0.00    +0.254 C 
ATOM      4  O   UNL     1       0.679   6.817  -6.172  0.00  0.00    -0.272 OA
ATOM      5  C   UNL     1       2.733   7.202  -7.084  0.00  0.00    +0.210 C 
ATOM      6  N   UNL     1       3.649   6.740  -8.101  0.00  0.00    -0.261 NA
ATOM      7  C   UNL     1       3.577   6.754  -9.399  0.00  0.00    +0.078 C 
ATOM      8  C   UNL     1       2.337   6.513 -10.145  0.00  0.00    +0.032 A 
ATOM      9  C   UNL     1       2.583   6.160 -11.465  0.00  0.00    +0.014 A 
ATOM     10  C   UNL     1       1.561   5.715 -12.292  0.00  0.00    +0.058 A 
ATOM     11 CL   UNL     1       1.958   4.873 -13.773  0.00  0.00    -0.082 Cl
ATOM     12  C   UNL     1       0.265   5.640 -11.797  0.00  0.00    +0.013 A 
ATOM     13  C   UNL     1       0.003   5.930 -10.485  0.00  0.00    +0.016 A 
ATOM     14  C   UNL     1       1.063   6.236  -9.670  0.00  0.00    +0.055 A 
ENDROOT
BRANCH   7  15
ATOM     15  C   UNL     1       4.840   6.503 -10.105  0.00  0.00    +0.017 A 
ATOM     16  C   UNL     1       5.381   7.566 -10.817  0.00  0.00    +0.001 A 
ATOM     17  C   UNL     1       6.667   7.501 -11.316  0.00  0.00    +0.000 A 
ATOM     18  C   UNL     1       7.579   6.619 -10.762  0.00  0.00    +0.000 A 
ATOM     19  C   UNL     1       7.055   5.659  -9.911  0.00  0.00    +0.000 A 
ATOM     20  C   UNL     1       5.765   5.709  -9.437  0.00  0.00    +0.001 A 
ENDBRANCH   7  15
TORSDOF 1
ENDMDL
MODEL 2
REMARK VINA RESULT:      -8.1      2.835      3.914
REMARK  Name = 
REMARK  1 active torsions:
REMARK  status: ('A' for Active; 'I' for Inactive)
REMARK    1  A    between atoms: C_10  and  C_11
REMARK                            x       y       z     vdW  Elec       q    Type
REMARK                         _______ _______ _______ _____ _____    ______ ____
ROOT
ATOM      1  C   UNL     1      -0.539   6.845 -11.260  0.00  0.00    +0.120 C 
ATOM      2  N   UNL     1       0.803   6.326 -11.296  0.00  0.00    -0.255 N 
ATOM      3  C   UNL     1       1.330   6.152 -12.609  0.00  0.00    +0.254 C 
ATOM      4  O   UNL     1       0.483   5.777 -13.476  0.00  0.00    -0.272 OA
ATOM      5  C   UNL     1       2.716   5.755 -13.012  0.00  0.00    +0.210 C 
ATOM      6  N   UNL     1       3.713   6.293 -12.116  0.00  0.00    -0.261 NA
ATOM      7  C   UNL     1       3.914   6.121 -10.843  0.00  0.00    +0.078 C 
ATOM      8  C   UNL     1       2.830   6.001  -9.860  0.00  0.00    +0.032 A 
ATOM      9  C   UNL     1       3.269   6.251  -8.568  0.00  0.00    +0.014 A 
ATOM     10  C   UNL     1       2.372   6.367  -7.514  0.00  0.00    +0.058 A 
ATOM     11 CL   UNL     1       2.893   7.109  -6.019  0.00  0.00    -0.082 Cl
ATOM     12  C   UNL     1       1.012   6.209  -7.754  0.00  0.00    +0.013 A 
ATOM     13  C   UNL     1       0.548   6.014  -9.028  0.00  0.00    +0.016 A 
ATOM     14  C   UNL     1       1.457   6.041 -10.054  0.00  0.00    +0.055 A 
ENDROOT
BRANCH   7  15
ATOM     15  C   UNL     1       5.221   6.565 -10.343  0.00  0.00    +0.017 A 
ATOM     16  C   UNL     1       6.068   5.581  -9.848  0.00  0.00    +0.001 A 
ATOM     17  C   UNL     1       7.393   5.862  -9.574  0.00  0.00    +0.000 A 
ATOM     18  C   UNL     1       8.011   6.940 -10.184  0.00  0.00    +0.000 A 
ATOM     19  C   UNL     1       7.172   7.836 -10.828  0.00  0.00    +0.000 A 
ATOM     20  C   UNL     1       5.846   7.568 -11.076  0.00  0.00    +0.001 A 
ENDBRANCH   7  15
TORSDOF 1
ENDMDL
MODEL 3
REMARK VINA RESULT:      -8.1      2.307      5.521
REMARK  Name = 
REMARK  1 active torsions:
REMARK  status: ('A' for Active; 'I' for Inactive)
REMARK    1  A    between atoms: C_10  and  C_11
REMARK                            x       y       z     vdW  Elec       q    Type
REMARK                         _______ _______ _______ _____ _____    ______ ____
ROOT
ATOM      1  C   UNL     1       4.946   6.528 -10.327  0.00  0.00    +0.120 C 
ATOM      2  N   UNL     1       3.948   5.941  -9.472  0.00  0.00    -0.255 N 
ATOM      3  C   UNL     1       4.443   5.489  -8.215  0.00  0.00    +0.254 C 
ATOM      4  O   UNL     1       5.613   4.999  -8.250  0.00  0.00    -0.272 OA
ATOM      5  C   UNL     1       3.674   4.950  -7.050  0.00  0.00    +0.210 C 
ATOM      6  N   UNL     1       2.391   5.596  -6.902  0.00  0.00    -0.261 NA
ATOM      7  C   UNL     1       1.362   5.663  -7.694  0.00  0.00    +0.078 C 
ATOM      8  C   UNL     1       1.467   5.793  -9.152  0.00  0.00    +0.032 A 
ATOM      9  C   UNL     1       0.292   6.265  -9.719  0.00  0.00    +0.014 A 
ATOM     10  C   UNL     1       0.236   6.629 -11.058  0.00  0.00    +0.058 A 
ATOM     11 CL   UNL     1      -1.092   7.617 -11.625  0.00  0.00    -0.082 Cl
ATOM     12  C   UNL     1       1.370   6.500 -11.849  0.00  0.00    +0.013 A 
ATOM     13  C   UNL     1       2.556   6.088 -11.303  0.00  0.00    +0.016 A 
ATOM     14  C   UNL     1       2.600   5.868  -9.950  0.00  0.00    +0.055 A 
ENDROOT
BRANCH   7  15
ATOM     15  C   UNL     1       0.115   6.125  -7.072  0.00  0.00    +0.017 A 
ATOM     16  C   UNL     1      -0.960   5.245  -7.094  0.00  0.00    +0.001 A 
ATOM     17  C   UNL     1      -2.090   5.490  -6.340  0.00  0.00    +0.000 A 
ATOM     18  C   UNL     1      -2.018   6.327  -5.239  0.00  0.00    +0.000 A 
ATOM     19  C   UNL     1      -0.863   7.084  -5.127  0.00  0.00    +0.000 A 
ATOM     20  C   UNL     1       0.253   6.857  -5.897  0.00  0.00    +0.001 A 
ENDBRANCH   7  15
TORSDOF 1
ENDMDL
MODEL 4
REMARK VINA RESULT:      -8.0      2.790      3.991
REMARK  Name = 
REMARK  1 active torsions:
REMARK  status: ('A' for Active; 'I' for Inactive)
REMARK    1  A    between atoms: C_10  and  C_11
REMARK                            x       y       z     vdW  Elec       q    Type
REMARK                         _______ _______ _______ _____ _____    ______ ____
ROOT
ATOM      1  C   UNL     1      -0.409   5.418  -8.034  0.00  0.00    +0.120 C 
ATOM      2  N   UNL     1       0.836   5.214  -8.727  0.00  0.00    -0.255 N 
ATOM      3  C   UNL     1       0.723   5.203 -10.148  0.00  0.00    +0.254 C 
ATOM      4  O   UNL     1      -0.342   4.675 -10.592  0.00  0.00    -0.272 OA
ATOM      5  C   UNL     1       1.815   5.140 -11.169  0.00  0.00    +0.210 C 
ATOM      6  N   UNL     1       2.993   5.859 -10.745  0.00  0.00    -0.261 NA
ATOM      7  C   UNL     1       3.785   5.696  -9.726  0.00  0.00    +0.078 C 
ATOM      8  C   UNL     1       3.317   5.306  -8.390  0.00  0.00    +0.032 A 
ATOM      9  C   UNL     1       4.246   5.608  -7.405  0.00  0.00    +0.014 A 
ATOM     10  C   UNL     1       3.929   5.487  -6.058  0.00  0.00    +0.058 A 
ATOM     11 CL   UNL     1       4.932   6.280  -4.864  0.00  0.00    -0.082 Cl
ATOM     12  C   UNL     1       2.667   5.037  -5.690  0.00  0.00    +0.013 A 
ATOM     13  C   UNL     1       1.715   4.783  -6.641  0.00  0.00    +0.016 A 
ATOM     14  C   UNL     1       2.027   5.044  -7.950  0.00  0.00    +0.055 A 
ENDROOT
BRANCH   7  15
ATOM     15  C   UNL     1       5.068   6.406  -9.802  0.00  0.00    +0.017 A 
ATOM     16  C   UNL     1       6.213   5.653  -9.574  0.00  0.00    +0.001 A 
ATOM     17  C   UNL     1       7.464   6.170  -9.850  0.00  0.00    +0.000 A 
ATOM     18  C   UNL     1       7.598   7.216 -10.746  0.00  0.00    +0.000 A 
ATOM     19  C   UNL     1       6.424   7.861 -11.105  0.00  0.00    +0.000 A 
ATOM     20  C   UNL     1       5.179   7.361 -10.807  0.00  0.00    +0.001 A 
ENDBRANCH   7  15
TORSDOF 1
ENDMDL
MODEL 5
REMARK VINA RESULT:      -8.0      3.341      5.258
REMARK  Name = 
REMARK  1 active torsions:
REMARK  status: ('A' for Active; 'I' for Inactive)
REMARK    1  A    between atoms: C_10  and  C_11
REMARK                            x       y       z     vdW  Elec       q    Type
REMARK                         _______ _______ _______ _____ _____    ______ ____
ROOT
ATOM      1  C   UNL     1       0.419   6.541 -10.461  0.00  0.00    +0.120 C 
ATOM      2  N   UNL     1       1.355   5.992  -9.516  0.00  0.00    -0.255 N 
ATOM      3  C   UNL     1       2.708   5.987  -9.965  0.00  0.00    +0.254 C 
ATOM      4  O   UNL     1       2.855   5.763 -11.205  0.00  0.00    -0.272 OA
ATOM      5  C   UNL     1       3.941   5.610  -9.205  0.00  0.00    +0.210 C 
ATOM      6  N   UNL     1       3.854   5.987  -7.813  0.00  0.00    -0.261 NA
ATOM      7  C   UNL     1       3.030   5.632  -6.872  0.00  0.00    +0.078 C 
ATOM      8  C   UNL     1       1.596   5.408  -7.091  0.00  0.00    +0.032 A 
ATOM      9  C   UNL     1       0.874   5.463  -5.908  0.00  0.00    +0.014 A 
ATOM     10  C   UNL     1      -0.515   5.457  -5.913  0.00  0.00    +0.058 A 
ATOM     11 CL   UNL     1      -1.382   5.966  -4.482  0.00  0.00    -0.082 Cl
ATOM     12  C   UNL     1      -1.194   5.375  -7.123  0.00  0.00    +0.013 A 
ATOM     13  C   UNL     1      -0.506   5.374  -8.307  0.00  0.00    +0.016 A 
ATOM     14  C   UNL     1       0.856   5.517  -8.260  0.00  0.00    +0.055 A 
ENDROOT
BRANCH   7  15
ATOM     15  C   UNL     1       3.452   5.963  -5.505  0.00  0.00    +0.017 A 
ATOM     16  C   UNL     1       4.115   4.967  -4.797  0.00  0.00    +0.001 A 
ATOM     17  C   UNL     1       4.750   5.252  -3.604  0.00  0.00    +0.000 A 
ATOM     18  C   UNL     1       5.130   6.553  -3.317  0.00  0.00    +0.000 A 
ATOM     19  C   UNL     1       4.598   7.535  -4.137  0.00  0.00    +0.000 A 
ATOM     20  C   UNL     1       3.941   7.250  -5.311  0.00  0.00    +0.001 A 
ENDBRANCH   7  15
TORSDOF 1
ENDMDL
MODEL 6
REMARK VINA RESULT:      -7.8      4.264      6.377
REMARK  Name = 
REMARK  1 active torsions:
REMARK  status: ('A' for Active; 'I' for Inactive)
REMARK    1  A    between atoms: C_10  and  C_11
REMARK                            x       y       z     vdW  Elec       q    Type
REMARK                         _______ _______ _______ _____ _____    ______ ____
ROOT
ATOM      1  C   UNL     1      -0.090   5.730  -9.035  0.00  0.00    +0.120 C 
ATOM      2  N   UNL     1       0.719   5.311  -7.920  0.00  0.00    -0.255 N 
ATOM      3  C   UNL     1       2.051   4.943  -8.267  0.00  0.00    +0.254 C 
ATOM      4  O   UNL     1       2.166   4.358  -9.387  0.00  0.00    -0.272 OA
ATOM      5  C   UNL     1       3.185   4.582  -7.359  0.00  0.00    +0.210 C 
ATOM      6  N   UNL     1       3.156   5.342  -6.131  0.00  0.00    -0.261 NA
ATOM      7  C   UNL     1       2.272   5.416  -5.181  0.00  0.00    +0.078 C 
ATOM      8  C   UNL     1       0.823   5.396  -5.418  0.00  0.00    +0.032 A 
ATOM      9  C   UNL     1       0.112   5.906  -4.341  0.00  0.00    +0.014 A 
ATOM     10  C   UNL     1      -1.253   6.143  -4.429  0.00  0.00    +0.058 A 
ATOM     11 CL   UNL     1      -2.024   7.177  -3.248  0.00  0.00    -0.082 Cl
ATOM     12  C   UNL     1      -1.923   5.847  -5.610  0.00  0.00    +0.013 A 
ATOM     13  C   UNL     1      -1.237   5.394  -6.705  0.00  0.00    +0.016 A 
ATOM     14  C   UNL     1       0.128   5.302  -6.616  0.00  0.00    +0.055 A 
ENDROOT
BRANCH   7  15
ATOM     15  C   UNL     1       2.734   6.036  -3.933  0.00  0.00    +0.017 A 
ATOM     16  C   UNL     1       3.346   5.199  -3.008  0.00  0.00    +0.001 A 
ATOM     17  C   UNL     1       4.016   5.719  -1.918  0.00  0.00    +0.000 A 
ATOM     18  C   UNL     1       4.479   7.024  -1.951  0.00  0.00    +0.000 A 
ATOM     19  C   UNL     1       3.996   7.814  -2.982  0.00  0.00    +0.000 A 
ATOM     20  C   UNL     1       3.304   7.299  -4.053  0.00  0.00    +0.001 A 
ENDBRANCH   7  15
TORSDOF 1
ENDMDL
MODEL 7
REMARK VINA RESULT:      -7.7      3.033      4.729
REMARK  Name = 
REMARK  1 active torsions:
REMARK  status: ('A' for Active; 'I' for Inactive)
REMARK    1  A    between atoms: C_10  and  C_11
REMARK                            x       y       z     vdW  Elec       q    Type
REMARK                         _______ _______ _______ _____ _____    ______ ____
ROOT
ATOM      1  C   UNL     1      -0.763   6.889  -5.197  0.00  0.00    +0.120 C 
ATOM      2  N   UNL     1       0.219   6.233  -6.019  0.00  0.00    -0.255 N 
ATOM      3  C   UNL     1      -0.302   5.675  -7.224  0.00  0.00    +0.254 C 
ATOM      4  O   UNL     1      -1.469   5.190  -7.123  0.00  0.00    -0.272 OA
ATOM      5  C   UNL     1       0.444   5.039  -8.355  0.00  0.00    +0.210 C 
ATOM      6  N   UNL     1       1.722   5.672  -8.583  0.00  0.00    -0.261 NA
ATOM      7  C   UNL     1       2.768   5.806  -7.822  0.00  0.00    +0.078 C 
ATOM      8  C   UNL     1       2.693   6.059  -6.378  0.00  0.00    +0.032 A 
ATOM      9  C   UNL     1       3.878   6.578  -5.878  0.00  0.00    +0.014 A 
ATOM     10  C   UNL     1       3.961   7.054  -4.576  0.00  0.00    +0.058 A 
ATOM     11 CL   UNL     1       5.298   8.088  -4.122  0.00  0.00    -0.082 Cl
ATOM     12  C   UNL     1       2.843   6.993  -3.753  0.00  0.00    +0.013 A 
ATOM     13  C   UNL     1       1.647   6.535  -4.237  0.00  0.00    +0.016 A 
ATOM     14  C   UNL     1       1.576   6.201  -5.565  0.00  0.00    +0.055 A 
ENDROOT
BRANCH   7  15
ATOM     15  C   UNL     1       4.000   6.214  -8.507  0.00  0.00    +0.017 A 
ATOM     16  C   UNL     1       5.068   5.327  -8.455  0.00  0.00    +0.001 A 
ATOM     17  C   UNL     1       6.179   5.511  -9.255  0.00  0.00    +0.000 A 
ATOM     18  C   UNL     1       6.083   6.274 -10.406  0.00  0.00    +0.000 A 
ATOM     19  C   UNL     1       4.931   7.034 -10.536  0.00  0.00    +0.000 A 
ATOM     20  C   UNL     1       3.835   6.869  -9.722  0.00  0.00    +0.001 A 
ENDBRANCH   7  15
TORSDOF 1
ENDMDL
MODEL 8
REMARK VINA RESULT:      -7.7      4.632      7.502
REMARK  Name = 
REMARK  1 active torsions:
REMARK  status: ('A' for Active; 'I' for Inactive)
REMARK    1  A    between atoms: C_10  and  C_11
REMARK                            x       y       z     vdW  Elec       q    Type
REMARK                         _______ _______ _______ _____ _____    ______ ____
ROOT
ATOM      1  C   UNL     1       4.643   6.817  -2.269  0.00  0.00    +0.120 C 
ATOM      2  N   UNL     1       3.382   6.258  -2.678  0.00  0.00    -0.255 N 
ATOM      3  C   UNL     1       2.480   5.995  -1.606  0.00  0.00    +0.254 C 
ATOM      4  O   UNL     1       3.030   5.597  -0.535  0.00  0.00    -0.272 OA
ATOM      5  C   UNL     1       1.057   5.537  -1.676  0.00  0.00    +0.210 C 
ATOM      6  N   UNL     1       0.365   6.095  -2.814  0.00  0.00    -0.261 NA
ATOM      7  C   UNL     1       0.579   5.989  -4.093  0.00  0.00    +0.078 C 
ATOM      8  C   UNL     1       1.919   5.955  -4.690  0.00  0.00    +0.032 A 
ATOM      9  C   UNL     1       1.894   6.265  -6.042  0.00  0.00    +0.014 A 
ATOM     10  C   UNL     1       3.069   6.466  -6.755  0.00  0.00    +0.058 A 
ATOM     11 CL   UNL     1       3.006   7.275  -8.305  0.00  0.00    -0.082 Cl
ATOM     12  C   UNL     1       4.292   6.335  -6.109  0.00  0.00    +0.013 A 
ATOM     13  C   UNL     1       4.344   6.082  -4.764  0.00  0.00    +0.016 A 
ATOM     14  C   UNL     1       3.161   6.025  -4.074  0.00  0.00    +0.055 A 
ENDROOT
BRANCH   7  15
ATOM     15  C   UNL     1      -0.526   6.422  -4.957  0.00  0.00    +0.017 A 
ATOM     16  C   UNL     1      -1.201   5.428  -5.655  0.00  0.00    +0.001 A 
ATOM     17  C   UNL     1      -2.388   5.703  -6.304  0.00  0.00    +0.000 A 
ATOM     18  C   UNL     1      -3.149   6.794  -5.921  0.00  0.00    +0.000 A 
ATOM     19  C   UNL     1      -2.525   7.704  -5.082  0.00  0.00    +0.000 A 
ATOM     20  C   UNL     1      -1.329   7.441  -4.457  0.00  0.00    +0.001 A 
ENDBRANCH   7  15
TORSDOF 1
ENDMDL
MODEL 9
REMARK VINA RESULT:      -7.6      6.115      8.199
REMARK  Name = 
REMARK  1 active torsions:
REMARK  status: ('A' for Active; 'I' for Inactive)
REMARK    1  A    between atoms: C_10  and  C_11
REMARK                            x       y       z     vdW  Elec       q    Type
REMARK                         _______ _______ _______ _____ _____    ______ ____
ROOT
ATOM      1  C   UNL     1      -2.352   6.176  -5.834  0.00  0.00    +0.120 C 
ATOM      2  N   UNL     1      -1.152   5.683  -5.211  0.00  0.00    -0.255 N 
ATOM      3  C   UNL     1      -0.064   5.482  -6.109  0.00  0.00    +0.254 C 
ATOM      4  O   UNL     1      -0.395   5.067  -7.261  0.00  0.00    -0.272 OA
ATOM      5  C   UNL     1       1.349   5.103  -5.792  0.00  0.00    +0.210 C 
ATOM      6  N   UNL     1       1.799   5.685  -4.549  0.00  0.00    -0.261 NA
ATOM      7  C   UNL     1       1.371   5.552  -3.328  0.00  0.00    +0.078 C 
ATOM      8  C   UNL     1      -0.049   5.438  -2.974  0.00  0.00    +0.032 A 
ATOM      9  C   UNL     1      -0.277   5.734  -1.638  0.00  0.00    +0.014 A 
ATOM     10  C   UNL     1      -1.568   5.861  -1.141  0.00  0.00    +0.058 A 
ATOM     11 CL   UNL     1      -1.823   6.655   0.396  0.00  0.00    -0.082 Cl
ATOM     12  C   UNL     1      -2.650   5.670  -1.992  0.00  0.00    +0.013 A 
ATOM     13  C   UNL     1      -2.452   5.430  -3.326  0.00  0.00    +0.016 A 
ATOM     14  C   UNL     1      -1.165   5.446  -3.799  0.00  0.00    +0.055 A 
ENDROOT
BRANCH   7  15
ATOM     15  C   UNL     1       2.282   6.036  -2.284  0.00  0.00    +0.017 A 
ATOM     16  C   UNL     1       3.093   5.087  -1.672  0.00  0.00    +0.001 A 
ATOM     17  C   UNL     1       4.135   5.471  -0.852  0.00  0.00    +0.000 A 
ATOM     18  C   UNL     1       4.676   6.741  -0.971  0.00  0.00    +0.000 A 
ATOM     19  C   UNL     1       3.945   7.643  -1.728  0.00  0.00    +0.000 A 
ATOM     20  C   UNL     1       2.889   7.264  -2.523  0.00  0.00    +0.001 A 
ENDBRANCH   7  15
TORSDOF 1
ENDMDL
