MODEL 1
REMARK VINA RESULT:      -7.0      0.000      0.000
REMARK  Name = 
REMARK  26 active torsions:
REMARK  status: ('A' for Active; 'I' for Inactive)
REMARK    1  A    between atoms: O_2  and  C_3
REMARK    2  A    between atoms: C_6  and  C_7
REMARK    3  A    between atoms: C_7  and  C_8
REMARK    4  A    between atoms: C_11  and  O_12
REMARK    5  A    between atoms: C_14  and  O_15
REMARK    6  A    between atoms: N_21  and  C_23
REMARK    7  A    between atoms: C_23  and  C_24
REMARK    8  A    between atoms: C_24  and  C_25
REMARK    9  A    between atoms: C_25  and  O_27
REMARK   10  A    between atoms: O_27  and  C_28
REMARK   11  A    between atoms: C_28  and  C_29
REMARK   12  A    between atoms: C_29  and  C_30
REMARK   13  A    between atoms: C_30  and  C_31
REMARK   14  A    between atoms: C_31  and  C_32
REMARK   15  A    between atoms: C_32  and  O_33
REMARK   16  A    between atoms: O_33  and  C_34
REMARK   17  A    between atoms: C_34  and  C_36
REMARK   18  A    between atoms: C_36  and  C_37
REMARK   19  A    between atoms: C_37  and  N_38
REMARK   20  A    between atoms: C_44  and  O_45
REMARK   21  A    between atoms: C_47  and  O_48
REMARK   22  A    between atoms: C_52  and  C_53
REMARK   23  A    between atoms: C_53  and  C_54
REMARK   24  A    between atoms: C_57  and  O_58
REMARK   25  A    between atoms: C_60  and  O_61
REMARK   26  A    between atoms: C_65  and  O_66
REMARK                            x       y       z     vdW  Elec       q    Type
REMARK                         _______ _______ _______ _____ _____    ______ ____
ROOT
ATOM      1  C   UNL     1       2.734   6.145  -3.634  0.00  0.00    +0.008 C 
ENDROOT
BRANCH   1   2
ATOM      2  C   UNL     1       3.446   4.966  -3.032  0.00  0.00    +0.048 C 
BRANCH   2   3
ATOM      3  C   UNL     1       3.153   4.911  -1.557  0.00  0.00    +0.208 C 
BRANCH   3   4
ATOM      4  O   UNL     1       3.237   6.227  -1.017  0.00  0.00    -0.448 OA
BRANCH   4   5
ATOM      5  C   UNL     1       4.430   6.760  -0.550  0.00  0.00    +0.323 C 
ATOM      6  O   UNL     1       5.089   7.464  -1.367  0.00  0.00    -0.250 OA
BRANCH   5   7
ATOM      7  C   UNL     1       4.646   7.075   0.895  0.00  0.00    +0.170 C 
BRANCH   7   8
ATOM      8  C   UNL     1       4.648   8.558   1.030  0.00  0.00    +0.121 C 
BRANCH   8   9
ATOM      9  N   UNL     1       4.271   8.858   2.372  0.00  0.00    +0.301 N 
ATOM     10  C   UNL     1       3.449  10.231   2.286  0.00  0.00    +0.086 C 
ATOM     11  C   UNL     1       4.568  10.917   1.292  0.00  0.00    +0.027 A 
ATOM     12  C   UNL     1       5.615  11.311   2.121  0.00  0.00    -0.012 A 
ATOM     13  C   UNL     1       6.297  12.506   1.924  0.00  0.00    +0.036 A 
ATOM     14  C   UNL     1       5.762  13.441   1.046  0.00  0.00    +0.172 A 
ATOM     15  C   UNL     1       4.704  13.048   0.235  0.00  0.00    +0.172 A 
ATOM     16  C   UNL     1       5.691  10.577   3.426  0.00  0.00    +0.087 C 
ATOM     17  C   UNL     1       4.013  11.864   0.453  0.00  0.00    +0.041 A 
ATOM     18  C   UNL     1       5.358   9.127   3.266  0.00  0.00    +0.114 C 
ATOM     19  C   UNL     1       3.302   7.945   2.928  0.00  0.00    +0.171 C 
BRANCH  14  20
ATOM     20  O   UNL     1       5.981  14.795   1.194  0.00  0.00    -0.468 OA
ATOM     21  C   UNL     1       6.719  15.328   2.265  0.00  0.00    +0.253 C 
ENDBRANCH  14  20
BRANCH  15  22
ATOM     22  O   UNL     1       4.505  13.736  -0.964  0.00  0.00    -0.468 OA
ATOM     23  C   UNL     1       5.558  13.946  -1.899  0.00  0.00    +0.253 C 
ENDBRANCH  15  22
BRANCH  10  24
ATOM     24  C   UNL     1       2.541   9.685   0.986  0.00  0.00    +0.086 C 
BRANCH  24  25
ATOM     25  C   UNL     1       1.136   9.916   1.410  0.00  0.00    -0.013 A 
ATOM     26  C   UNL     1       0.048   9.351   0.753  0.00  0.00    +0.036 A 
ATOM     27  C   UNL     1      -1.111   9.012   1.447  0.00  0.00    +0.172 A 
ATOM     28  C   UNL     1      -1.104   9.009   2.837  0.00  0.00    +0.172 A 
ATOM     29  C   UNL     1      -0.234   9.938   3.401  0.00  0.00    +0.040 A 
ATOM     30  C   UNL     1       0.809  10.467   2.646  0.00  0.00    -0.001 A 
BRANCH  28  31
ATOM     31  O   UNL     1      -1.594   7.926   3.576  0.00  0.00    -0.468 OA
ATOM     32  C   UNL     1      -3.000   7.764   3.750  0.00  0.00    +0.253 C 
ENDBRANCH  28  31
BRANCH  27  33
ATOM     33  O   UNL     1      -1.934   8.079   0.807  0.00  0.00    -0.468 OA
ATOM     34  C   UNL     1      -1.440   7.491  -0.379  0.00  0.00    +0.253 C 
ENDBRANCH  27  33
ENDBRANCH  24  25
ENDBRANCH  10  24
ENDBRANCH   8   9
ENDBRANCH   7   8
ENDBRANCH   5   7
ENDBRANCH   4   5
ENDBRANCH   3   4
ENDBRANCH   2   3
ENDBRANCH   1   2
BRANCH   1  35
ATOM     35  C   UNL     1       2.531   5.943  -5.121  0.00  0.00    +0.048 C 
BRANCH  35  36
ATOM     36  C   UNL     1       3.398   6.928  -5.858  0.00  0.00    +0.208 C 
BRANCH  36  37
ATOM     37  O   UNL     1       3.132   6.793  -7.247  0.00  0.00    -0.448 OA
BRANCH  37  38
ATOM     38  C   UNL     1       2.013   7.458  -7.729  0.00  0.00    +0.323 C 
ATOM     39  O   UNL     1       2.109   8.701  -7.865  0.00  0.00    -0.250 OA
BRANCH  38  40
ATOM     40  C   UNL     1       1.018   6.764  -8.605  0.00  0.00    +0.170 C 
BRANCH  40  41
ATOM     41  C   UNL     1       1.713   6.532  -9.921  0.00  0.00    +0.121 C 
BRANCH  41  43
ATOM     42  C   UNL     1       2.928   5.095 -11.440  0.00  0.00    +0.086 C 
ATOM     43  N   UNL     1       1.997   5.162 -10.134  0.00  0.00    +0.301 N 
ATOM     44  C   UNL     1       2.886   4.580  -9.150  0.00  0.00    +0.171 C 
ATOM     45  C   UNL     1       0.882   4.318 -10.427  0.00  0.00    +0.114 C 
ATOM     46  C   UNL     1      -0.046   5.004 -11.385  0.00  0.00    +0.087 C 
ATOM     47  C   UNL     1       0.693   5.821 -12.360  0.00  0.00    -0.012 A 
ATOM     48  C   UNL     1      -0.068   6.524 -13.287  0.00  0.00    +0.036 A 
ATOM     49  C   UNL     1       0.563   7.190 -14.332  0.00  0.00    +0.172 A 
ATOM     50  C   UNL     1       1.926   7.014 -14.542  0.00  0.00    +0.172 A 
ATOM     51  C   UNL     1       2.638   6.562 -13.437  0.00  0.00    +0.041 A 
ATOM     52  C   UNL     1       2.007   6.190 -12.253  0.00  0.00    +0.027 A 
BRANCH  50  53
ATOM     53  O   UNL     1       2.433   6.926 -15.840  0.00  0.00    -0.468 OA
ATOM     54  C   UNL     1       3.516   7.803 -16.139  0.00  0.00    +0.253 C 
ENDBRANCH  50  53
BRANCH  49  55
ATOM     55  O   UNL     1      -0.218   7.747 -15.332  0.00  0.00    -0.468 OA
ATOM     56  C   UNL     1      -0.816   6.990 -16.368  0.00  0.00    +0.253 C 
ENDBRANCH  49  55
BRANCH  42  57
ATOM     57  C   UNL     1       3.927   6.305 -10.849  0.00  0.00    +0.086 C 
BRANCH  57  61
ATOM     58  C   UNL     1       7.852   5.816 -12.151  0.00  0.00    +0.172 A 
ATOM     59  C   UNL     1       6.835   5.352 -12.972  0.00  0.00    +0.172 A 
ATOM     60  C   UNL     1       5.517   5.305 -12.534  0.00  0.00    +0.036 A 
ATOM     61  C   UNL     1       5.274   5.901 -11.302  0.00  0.00    -0.013 A 
ATOM     62  C   UNL     1       6.271   5.707 -10.354  0.00  0.00    -0.001 A 
ATOM     63  C   UNL     1       7.589   5.767 -10.793  0.00  0.00    +0.040 A 
BRANCH  58  65
ATOM     64  C   UNL     1      10.287   5.821 -11.901  0.00  0.00    +0.253 C 
ATOM     65  O   UNL     1       9.125   6.106 -12.612  0.00  0.00    -0.468 OA
ENDBRANCH  58  65
BRANCH  59  66
ATOM     66  O   UNL     1       7.138   5.261 -14.328  0.00  0.00    -0.468 OA
ATOM     67  C   UNL     1       6.812   6.300 -15.233  0.00  0.00    +0.253 C 
ENDBRANCH  59  66
ENDBRANCH  57  61
ENDBRANCH  42  57
ENDBRANCH  41  43
ENDBRANCH  40  41
ENDBRANCH  38  40
ENDBRANCH  37  38
ENDBRANCH  36  37
ENDBRANCH  35  36
ENDBRANCH   1  35
TORSDOF 26
ENDMDL
MODEL 2
REMARK VINA RESULT:      -7.0      3.481      7.366
REMARK  Name = 
REMARK  26 active torsions:
REMARK  status: ('A' for Active; 'I' for Inactive)
REMARK    1  A    between atoms: O_2  and  C_3
REMARK    2  A    between atoms: C_6  and  C_7
REMARK    3  A    between atoms: C_7  and  C_8
REMARK    4  A    between atoms: C_11  and  O_12
REMARK    5  A    between atoms: C_14  and  O_15
REMARK    6  A    between atoms: N_21  and  C_23
REMARK    7  A    between atoms: C_23  and  C_24
REMARK    8  A    between atoms: C_24  and  C_25
REMARK    9  A    between atoms: C_25  and  O_27
REMARK   10  A    between atoms: O_27  and  C_28
REMARK   11  A    between atoms: C_28  and  C_29
REMARK   12  A    between atoms: C_29  and  C_30
REMARK   13  A    between atoms: C_30  and  C_31
REMARK   14  A    between atoms: C_31  and  C_32
REMARK   15  A    between atoms: C_32  and  O_33
REMARK   16  A    between atoms: O_33  and  C_34
REMARK   17  A    between atoms: C_34  and  C_36
REMARK   18  A    between atoms: C_36  and  C_37
REMARK   19  A    between atoms: C_37  and  N_38
REMARK   20  A    between atoms: C_44  and  O_45
REMARK   21  A    between atoms: C_47  and  O_48
REMARK   22  A    between atoms: C_52  and  C_53
REMARK   23  A    between atoms: C_53  and  C_54
REMARK   24  A    between atoms: C_57  and  O_58
REMARK   25  A    between atoms: C_60  and  O_61
REMARK   26  A    between atoms: C_65  and  O_66
REMARK                            x       y       z     vdW  Elec       q    Type
REMARK                         _______ _______ _______ _____ _____    ______ ____
ROOT
ATOM      1  C   UNL     1       3.687   7.164  -0.170  0.00  0.00    +0.008 C 
ENDROOT
BRANCH   1   2
ATOM      2  C   UNL     1       5.116   7.198   0.292  0.00  0.00    +0.048 C 
BRANCH   2   3
ATOM      3  C   UNL     1       5.151   7.252   1.795  0.00  0.00    +0.208 C 
BRANCH   3   4
ATOM      4  O   UNL     1       5.754   8.478   2.202  0.00  0.00    -0.448 OA
BRANCH   4   5
ATOM      5  C   UNL     1       5.004   9.601   2.520  0.00  0.00    +0.323 C 
ATOM      6  O   UNL     1       3.773   9.411   2.739  0.00  0.00    -0.250 OA
BRANCH   5   7
ATOM      7  C   UNL     1       5.605  10.791   3.195  0.00  0.00    +0.170 C 
BRANCH   7   8
ATOM      8  C   UNL     1       6.003  11.750   2.129  0.00  0.00    +0.121 C 
BRANCH   8   9
ATOM      9  N   UNL     1       5.550  13.041   2.534  0.00  0.00    +0.301 N 
ATOM     10  C   UNL     1       6.049  14.046   1.389  0.00  0.00    +0.086 C 
ATOM     11  C   UNL     1       7.554  13.380   1.369  0.00  0.00    +0.027 A 
ATOM     12  C   UNL     1       8.217  13.917   2.470  0.00  0.00    -0.012 A 
ATOM     13  C   UNL     1       9.558  14.279   2.415  0.00  0.00    +0.036 A 
ATOM     14  C   UNL     1      10.178  14.348   1.173  0.00  0.00    +0.172 A 
ATOM     15  C   UNL     1       9.504  13.829   0.074  0.00  0.00    +0.172 A 
ATOM     16  C   UNL     1       7.317  14.424   3.556  0.00  0.00    +0.087 C 
ATOM     17  C   UNL     1       8.159  13.491   0.131  0.00  0.00    +0.041 A 
ATOM     18  C   UNL     1       6.126  13.538   3.748  0.00  0.00    +0.114 C 
ATOM     19  C   UNL     1       4.116  13.199   2.489  0.00  0.00    +0.171 C 
BRANCH  14  20
ATOM     20  O   UNL     1      11.234  15.201   0.927  0.00  0.00    -0.468 OA
ATOM     21  C   UNL     1      11.051  16.566   0.645  0.00  0.00    +0.253 C 
ENDBRANCH  14  20
BRANCH  15  22
ATOM     22  O   UNL     1      10.260  13.410  -1.022  0.00  0.00    -0.468 OA
ATOM     23  C   UNL     1      11.680  13.527  -1.051  0.00  0.00    +0.253 C 
ENDBRANCH  15  22
BRANCH  10  24
ATOM     24  C   UNL     1       5.517  13.027   0.168  0.00  0.00    +0.086 C 
BRANCH  24  25
ATOM     25  C   UNL     1       5.102  13.955  -0.915  0.00  0.00    -0.013 A 
ATOM     26  C   UNL     1       4.660  15.251  -0.670  0.00  0.00    +0.036 A 
ATOM     27  C   UNL     1       4.894  16.274  -1.586  0.00  0.00    +0.172 A 
ATOM     28  C   UNL     1       5.780  16.065  -2.638  0.00  0.00    +0.172 A 
ATOM     29  C   UNL     1       5.834  14.747  -3.078  0.00  0.00    +0.040 A 
ATOM     30  C   UNL     1       5.389  13.715  -2.256  0.00  0.00    -0.001 A 
BRANCH  28  31
ATOM     31  O   UNL     1       6.797  16.978  -2.939  0.00  0.00    -0.468 OA
ATOM     32  C   UNL     1       8.001  16.976  -2.174  0.00  0.00    +0.253 C 
ENDBRANCH  28  31
BRANCH  27  33
ATOM     33  O   UNL     1       4.812  17.568  -1.063  0.00  0.00    -0.468 OA
ATOM     34  C   UNL     1       4.009  17.750   0.085  0.00  0.00    +0.253 C 
ENDBRANCH  27  33
ENDBRANCH  24  25
ENDBRANCH  10  24
ENDBRANCH   8   9
ENDBRANCH   7   8
ENDBRANCH   5   7
ENDBRANCH   4   5
ENDBRANCH   3   4
ENDBRANCH   2   3
ENDBRANCH   1   2
BRANCH   1  35
ATOM     35  C   UNL     1       3.606   6.751  -1.625  0.00  0.00    +0.048 C 
BRANCH  35  36
ATOM     36  C   UNL     1       3.768   7.978  -2.479  0.00  0.00    +0.208 C 
BRANCH  36  37
ATOM     37  O   UNL     1       3.481   7.619  -3.823  0.00  0.00    -0.448 OA
BRANCH  37  38
ATOM     38  C   UNL     1       4.561   7.572  -4.694  0.00  0.00    +0.323 C 
ATOM     39  O   UNL     1       5.704   7.624  -4.181  0.00  0.00    -0.250 OA
BRANCH  38  40
ATOM     40  C   UNL     1       4.454   6.893  -6.023  0.00  0.00    +0.170 C 
BRANCH  40  41
ATOM     41  C   UNL     1       2.996   6.565  -6.206  0.00  0.00    +0.121 C 
BRANCH  41  43
ATOM     42  C   UNL     1       1.275   5.127  -7.113  0.00  0.00    +0.086 C 
ATOM     43  N   UNL     1       2.805   5.231  -6.639  0.00  0.00    +0.301 N 
ATOM     44  C   UNL     1       3.484   4.903  -7.875  0.00  0.00    +0.171 C 
ATOM     45  C   UNL     1       2.959   4.212  -5.648  0.00  0.00    +0.114 C 
ATOM     46  C   UNL     1       2.309   4.639  -4.365  0.00  0.00    +0.087 C 
ATOM     47  C   UNL     1       1.088   5.419  -4.613  0.00  0.00    -0.012 A 
ATOM     48  C   UNL     1       0.411   5.889  -3.493  0.00  0.00    +0.036 A 
ATOM     49  C   UNL     1      -0.829   6.498  -3.643  0.00  0.00    +0.172 A 
ATOM     50  C   UNL     1      -1.461   6.484  -4.881  0.00  0.00    +0.172 A 
ATOM     51  C   UNL     1      -0.621   6.277  -5.968  0.00  0.00    +0.041 A 
ATOM     52  C   UNL     1       0.729   5.975  -5.812  0.00  0.00    +0.027 A 
BRANCH  50  53
ATOM     53  O   UNL     1      -2.843   6.304  -4.965  0.00  0.00    -0.468 OA
ATOM     54  C   UNL     1      -3.272   5.025  -5.424  0.00  0.00    +0.253 C 
ENDBRANCH  50  53
BRANCH  49  55
ATOM     55  O   UNL     1      -1.557   6.812  -2.506  0.00  0.00    -0.468 OA
ATOM     56  C   UNL     1      -1.947   5.855  -1.540  0.00  0.00    +0.253 C 
ENDBRANCH  49  55
BRANCH  42  57
ATOM     57  C   UNL     1       1.413   6.526  -8.025  0.00  0.00    +0.086 C 
BRANCH  57  61
ATOM     58  C   UNL     1       0.688   4.970 -11.819  0.00  0.00    +0.172 A 
ATOM     59  C   UNL     1       0.921   6.333 -11.712  0.00  0.00    +0.172 A 
ATOM     60  C   UNL     1       0.986   6.960 -10.474  0.00  0.00    +0.036 A 
ATOM     61  C   UNL     1       0.967   6.113  -9.371  0.00  0.00    -0.013 A 
ATOM     62  C   UNL     1       0.120   5.019  -9.492  0.00  0.00    -0.001 A 
ATOM     63  C   UNL     1       0.067   4.386 -10.729  0.00  0.00    +0.040 A 
BRANCH  58  65
ATOM     64  C   UNL     1       0.188   4.573 -14.182  0.00  0.00    +0.253 C 
ATOM     65  O   UNL     1       0.851   4.264 -12.998  0.00  0.00    -0.468 OA
ENDBRANCH  58  65
BRANCH  59  66
ATOM     66  O   UNL     1       1.413   6.960 -12.853  0.00  0.00    -0.468 OA
ATOM     67  C   UNL     1       0.700   8.002 -13.495  0.00  0.00    +0.253 C 
ENDBRANCH  59  66
ENDBRANCH  57  61
ENDBRANCH  42  57
ENDBRANCH  41  43
ENDBRANCH  40  41
ENDBRANCH  38  40
ENDBRANCH  37  38
ENDBRANCH  36  37
ENDBRANCH  35  36
ENDBRANCH   1  35
TORSDOF 26
ENDMDL
MODEL 3
REMARK VINA RESULT:      -7.0      2.883      5.236
REMARK  Name = 
REMARK  26 active torsions:
REMARK  status: ('A' for Active; 'I' for Inactive)
REMARK    1  A    between atoms: O_2  and  C_3
REMARK    2  A    between atoms: C_6  and  C_7
REMARK    3  A    between atoms: C_7  and  C_8
REMARK    4  A    between atoms: C_11  and  O_12
REMARK    5  A    between atoms: C_14  and  O_15
REMARK    6  A    between atoms: N_21  and  C_23
REMARK    7  A    between atoms: C_23  and  C_24
REMARK    8  A    between atoms: C_24  and  C_25
REMARK    9  A    between atoms: C_25  and  O_27
REMARK   10  A    between atoms: O_27  and  C_28
REMARK   11  A    between atoms: C_28  and  C_29
REMARK   12  A    between atoms: C_29  and  C_30
REMARK   13  A    between atoms: C_30  and  C_31
REMARK   14  A    between atoms: C_31  and  C_32
REMARK   15  A    between atoms: C_32  and  O_33
REMARK   16  A    between atoms: O_33  and  C_34
REMARK   17  A    between atoms: C_34  and  C_36
REMARK   18  A    between atoms: C_36  and  C_37
REMARK   19  A    between atoms: C_37  and  N_38
REMARK   20  A    between atoms: C_44  and  O_45
REMARK   21  A    between atoms: C_47  and  O_48
REMARK   22  A    between atoms: C_52  and  C_53
REMARK   23  A    between atoms: C_53  and  C_54
REMARK   24  A    between atoms: C_57  and  O_58
REMARK   25  A    between atoms: C_60  and  O_61
REMARK   26  A    between atoms: C_65  and  O_66
REMARK                            x       y       z     vdW  Elec       q    Type
REMARK                         _______ _______ _______ _____ _____    ______ ____
ROOT
ATOM      1  C   UNL     1       3.185   6.528  -9.697  0.00  0.00    +0.008 C 
ENDROOT
BRANCH   1   2
ATOM      2  C   UNL     1       4.431   5.958  -9.080  0.00  0.00    +0.048 C 
BRANCH   2   3
ATOM      3  C   UNL     1       4.090   5.344  -7.750  0.00  0.00    +0.208 C 
BRANCH   3   4
ATOM      4  O   UNL     1       5.045   5.773  -6.783  0.00  0.00    -0.448 OA
BRANCH   4   5
ATOM      5  C   UNL     1       4.764   6.766  -5.856  0.00  0.00    +0.323 C 
ATOM      6  O   UNL     1       3.663   7.371  -5.996  0.00  0.00    -0.250 OA
BRANCH   5   7
ATOM      7  C   UNL     1       5.309   6.731  -4.464  0.00  0.00    +0.170 C 
BRANCH   7   8
ATOM      8  C   UNL     1       4.148   6.781  -3.534  0.00  0.00    +0.121 C 
BRANCH   8   9
ATOM      9  N   UNL     1       3.913   5.448  -3.083  0.00  0.00    +0.301 N 
ATOM     10  C   UNL     1       2.634   5.544  -2.121  0.00  0.00    +0.086 C 
ATOM     11  C   UNL     1       3.236   6.863  -1.343  0.00  0.00    +0.027 A 
ATOM     12  C   UNL     1       4.180   6.371  -0.445  0.00  0.00    -0.012 A 
ATOM     13  C   UNL     1       4.323   6.899   0.833  0.00  0.00    +0.036 A 
ATOM     14  C   UNL     1       3.341   7.757   1.312  0.00  0.00    +0.172 A 
ATOM     15  C   UNL     1       2.389   8.230   0.417  0.00  0.00    +0.172 A 
ATOM     16  C   UNL     1       4.739   5.026  -0.799  0.00  0.00    +0.087 C 
ATOM     17  C   UNL     1       2.238   7.682  -0.849  0.00  0.00    +0.041 A 
ATOM     18  C   UNL     1       4.951   4.884  -2.273  0.00  0.00    +0.114 C 
ATOM     19  C   UNL     1       3.461   4.551  -4.119  0.00  0.00    +0.171 C 
BRANCH  14  20
ATOM     20  O   UNL     1       3.059   7.869   2.658  0.00  0.00    -0.468 OA
ATOM     21  C   UNL     1       4.032   7.672   3.653  0.00  0.00    +0.253 C 
ENDBRANCH  14  20
BRANCH  15  22
ATOM     22  O   UNL     1       1.753   9.437   0.711  0.00  0.00    -0.468 OA
ATOM     23  C   UNL     1       2.458  10.675   0.741  0.00  0.00    +0.253 C 
ENDBRANCH  15  22
BRANCH  10  24
ATOM     24  C   UNL     1       1.797   6.499  -3.217  0.00  0.00    +0.086 C 
BRANCH  24  25
ATOM     25  C   UNL     1       0.575   5.708  -3.517  0.00  0.00    -0.013 A 
ATOM     26  C   UNL     1      -0.411   5.454  -2.569  0.00  0.00    +0.036 A 
ATOM     27  C   UNL     1      -1.747   5.327  -2.941  0.00  0.00    +0.172 A 
ATOM     28  C   UNL     1      -2.142   5.693  -4.224  0.00  0.00    +0.172 A 
ATOM     29  C   UNL     1      -1.158   5.513  -5.191  0.00  0.00    +0.040 A 
ATOM     30  C   UNL     1       0.179   5.409  -4.818  0.00  0.00    -0.001 A 
BRANCH  28  31
ATOM     31  O   UNL     1      -3.242   6.528  -4.448  0.00  0.00    -0.468 OA
ATOM     32  C   UNL     1      -3.130   7.618  -5.361  0.00  0.00    +0.253 C 
ENDBRANCH  28  31
BRANCH  27  33
ATOM     33  O   UNL     1      -2.670   5.514  -1.908  0.00  0.00    -0.468 OA
ATOM     34  C   UNL     1      -2.299   6.388  -0.862  0.00  0.00    +0.253 C 
ENDBRANCH  27  33
ENDBRANCH  24  25
ENDBRANCH  10  24
ENDBRANCH   8   9
ENDBRANCH   7   8
ENDBRANCH   5   7
ENDBRANCH   4   5
ENDBRANCH   3   4
ENDBRANCH   2   3
ENDBRANCH   1   2
BRANCH   1  35
ATOM     35  C   UNL     1       2.152   5.442  -9.914  0.00  0.00    +0.048 C 
BRANCH  35  36
ATOM     36  C   UNL     1       0.801   5.988  -9.540  0.00  0.00    +0.208 C 
BRANCH  36  37
ATOM     37  O   UNL     1       0.625   7.224 -10.219  0.00  0.00    -0.448 OA
BRANCH  37  38
ATOM     38  C   UNL     1      -0.321   7.242 -11.234  0.00  0.00    +0.323 C 
ATOM     39  O   UNL     1      -0.774   8.363 -11.566  0.00  0.00    -0.250 OA
BRANCH  38  40
ATOM     40  C   UNL     1      -0.356   6.170 -12.278  0.00  0.00    +0.170 C 
BRANCH  40  41
ATOM     41  C   UNL     1       0.433   6.702 -13.446  0.00  0.00    +0.121 C 
BRANCH  41  43
ATOM     42  C   UNL     1       2.177   6.176 -15.037  0.00  0.00    +0.086 C 
ATOM     43  N   UNL     1       0.827   5.670 -14.331  0.00  0.00    +0.301 N 
ATOM     44  C   UNL     1       1.309   4.474 -13.673  0.00  0.00    +0.171 C 
ATOM     45  C   UNL     1      -0.069   5.376 -15.406  0.00  0.00    +0.114 C 
ATOM     46  C   UNL     1      -0.601   6.648 -15.996  0.00  0.00    +0.087 C 
ATOM     47  C   UNL     1       0.416   7.712 -15.990  0.00  0.00    -0.012 A 
ATOM     48  C   UNL     1       0.026   8.947 -16.494  0.00  0.00    +0.036 A 
ATOM     49  C   UNL     1       0.973   9.950 -16.665  0.00  0.00    +0.172 A 
ATOM     50  C   UNL     1       2.323   9.665 -16.492  0.00  0.00    +0.172 A 
ATOM     51  C   UNL     1       2.592   8.539 -15.723  0.00  0.00    +0.041 A 
ATOM     52  C   UNL     1       1.582   7.692 -15.273  0.00  0.00    +0.027 A 
BRANCH  50  53
ATOM     53  O   UNL     1       3.277  10.232 -17.338  0.00  0.00    -0.468 OA
ATOM     54  C   UNL     1       3.966   9.320 -18.190  0.00  0.00    +0.253 C 
ENDBRANCH  50  53
BRANCH  49  55
ATOM     55  O   UNL     1       0.598  11.115 -17.317  0.00  0.00    -0.468 OA
ATOM     56  C   UNL     1      -0.042  12.199 -16.671  0.00  0.00    +0.253 C 
ENDBRANCH  49  55
BRANCH  42  57
ATOM     57  C   UNL     1       2.839   6.616 -13.561  0.00  0.00    +0.086 C 
BRANCH  57  61
ATOM     58  C   UNL     1       6.946   5.929 -13.468  0.00  0.00    +0.172 A 
ATOM     59  C   UNL     1       6.366   6.219 -14.693  0.00  0.00    +0.172 A 
ATOM     60  C   UNL     1       4.986   6.277 -14.844  0.00  0.00    +0.036 A 
ATOM     61  C   UNL     1       4.250   6.190 -13.668  0.00  0.00    -0.013 A 
ATOM     62  C   UNL     1       4.754   5.298 -12.730  0.00  0.00    -0.001 A 
ATOM     63  C   UNL     1       6.135   5.252 -12.572  0.00  0.00    +0.040 A 
BRANCH  58  65
ATOM     64  C   UNL     1       8.919   5.652 -12.046  0.00  0.00    +0.253 C 
ATOM     65  O   UNL     1       8.296   6.093 -13.210  0.00  0.00    -0.468 OA
ENDBRANCH  58  65
BRANCH  59  66
ATOM     66  O   UNL     1       7.210   6.770 -15.653  0.00  0.00    -0.468 OA
ATOM     67  C   UNL     1       6.862   7.944 -16.364  0.00  0.00    +0.253 C 
ENDBRANCH  59  66
ENDBRANCH  57  61
ENDBRANCH  42  57
ENDBRANCH  41  43
ENDBRANCH  40  41
ENDBRANCH  38  40
ENDBRANCH  37  38
ENDBRANCH  36  37
ENDBRANCH  35  36
ENDBRANCH   1  35
TORSDOF 26
ENDMDL
MODEL 4
REMARK VINA RESULT:      -6.9      2.463      5.748
REMARK  Name = 
REMARK  26 active torsions:
REMARK  status: ('A' for Active; 'I' for Inactive)
REMARK    1  A    between atoms: O_2  and  C_3
REMARK    2  A    between atoms: C_6  and  C_7
REMARK    3  A    between atoms: C_7  and  C_8
REMARK    4  A    between atoms: C_11  and  O_12
REMARK    5  A    between atoms: C_14  and  O_15
REMARK    6  A    between atoms: N_21  and  C_23
REMARK    7  A    between atoms: C_23  and  C_24
REMARK    8  A    between atoms: C_24  and  C_25
REMARK    9  A    between atoms: C_25  and  O_27
REMARK   10  A    between atoms: O_27  and  C_28
REMARK   11  A    between atoms: C_28  and  C_29
REMARK   12  A    between atoms: C_29  and  C_30
REMARK   13  A    between atoms: C_30  and  C_31
REMARK   14  A    between atoms: C_31  and  C_32
REMARK   15  A    between atoms: C_32  and  O_33
REMARK   16  A    between atoms: O_33  and  C_34
REMARK   17  A    between atoms: C_34  and  C_36
REMARK   18  A    between atoms: C_36  and  C_37
REMARK   19  A    between atoms: C_37  and  N_38
REMARK   20  A    between atoms: C_44  and  O_45
REMARK   21  A    between atoms: C_47  and  O_48
REMARK   22  A    between atoms: C_52  and  C_53
REMARK   23  A    between atoms: C_53  and  C_54
REMARK   24  A    between atoms: C_57  and  O_58
REMARK   25  A    between atoms: C_60  and  O_61
REMARK   26  A    between atoms: C_65  and  O_66
REMARK                            x       y       z     vdW  Elec       q    Type
REMARK                         _______ _______ _______ _____ _____    ______ ____
ROOT
ATOM      1  C   UNL     1       2.424   4.384  -9.067  0.00  0.00    +0.008 C 
ENDROOT
BRANCH   1   2
ATOM      2  C   UNL     1       3.924   4.300  -9.055  0.00  0.00    +0.048 C 
BRANCH   2   3
ATOM      3  C   UNL     1       4.469   5.284  -8.056  0.00  0.00    +0.208 C 
BRANCH   3   4
ATOM      4  O   UNL     1       4.954   4.572  -6.920  0.00  0.00    -0.448 OA
BRANCH   4   5
ATOM      5  C   UNL     1       4.304   4.600  -5.695  0.00  0.00    +0.323 C 
ATOM      6  O   UNL     1       3.231   3.936  -5.613  0.00  0.00    -0.250 OA
BRANCH   5   7
ATOM      7  C   UNL     1       5.040   4.800  -4.410  0.00  0.00    +0.170 C 
BRANCH   7   8
ATOM      8  C   UNL     1       4.104   5.465  -3.463  0.00  0.00    +0.121 C 
BRANCH   8   9
ATOM      9  N   UNL     1       4.120   6.859  -3.765  0.00  0.00    +0.301 N 
ATOM     10  C   UNL     1       2.966   7.504  -2.858  0.00  0.00    +0.086 C 
ATOM     11  C   UNL     1       1.897   6.318  -3.259  0.00  0.00    +0.027 A 
ATOM     12  C   UNL     1       1.425   6.650  -4.526  0.00  0.00    -0.012 A 
ATOM     13  C   UNL     1       0.094   6.472  -4.884  0.00  0.00    +0.036 A 
ATOM     14  C   UNL     1      -0.833   6.200  -3.885  0.00  0.00    +0.172 A 
ATOM     15  C   UNL     1      -0.358   5.889  -2.616  0.00  0.00    +0.172 A 
ATOM     16  C   UNL     1       2.331   7.546  -5.316  0.00  0.00    +0.087 C 
ATOM     17  C   UNL     1       0.968   6.091  -2.260  0.00  0.00    +0.041 A 
ATOM     18  C   UNL     1       3.771   7.197  -5.113  0.00  0.00    +0.114 C 
ATOM     19  C   UNL     1       5.303   7.544  -3.304  0.00  0.00    +0.171 C 
BRANCH  14  20
ATOM     20  O   UNL     1      -2.158   6.567  -3.995  0.00  0.00    -0.468 OA
ATOM     21  C   UNL     1      -2.595   7.561  -4.888  0.00  0.00    +0.253 C 
ENDBRANCH  14  20
BRANCH  15  22
ATOM     22  O   UNL     1      -1.174   5.128  -1.778  0.00  0.00    -0.468 OA
ATOM     23  C   UNL     1      -1.987   5.723  -0.771  0.00  0.00    +0.253 C 
ENDBRANCH  15  22
BRANCH  10  24
ATOM     24  C   UNL     1       3.475   6.668  -1.496  0.00  0.00    +0.086 C 
BRANCH  24  25
ATOM     25  C   UNL     1       3.391   7.676  -0.408  0.00  0.00    -0.013 A 
ATOM     26  C   UNL     1       3.588   9.036  -0.623  0.00  0.00    +0.036 A 
ATOM     27  C   UNL     1       2.914   9.987   0.140  0.00  0.00    +0.172 A 
ATOM     28  C   UNL     1       1.859   9.592   0.956  0.00  0.00    +0.172 A 
ATOM     29  C   UNL     1       1.983   8.299   1.456  0.00  0.00    +0.040 A 
ATOM     30  C   UNL     1       2.834   7.389   0.836  0.00  0.00    -0.001 A 
BRANCH  28  31
ATOM     31  O   UNL     1       0.626  10.253   0.940  0.00  0.00    -0.468 OA
ATOM     32  C   UNL     1      -0.393   9.875   1.865  0.00  0.00    +0.253 C 
ENDBRANCH  28  31
BRANCH  27  33
ATOM     33  O   UNL     1       2.842  11.262  -0.431  0.00  0.00    -0.468 OA
ATOM     34  C   UNL     1       4.051  11.980  -0.558  0.00  0.00    +0.253 C 
ENDBRANCH  27  33
ENDBRANCH  24  25
ENDBRANCH  10  24
ENDBRANCH   8   9
ENDBRANCH   7   8
ENDBRANCH   5   7
ENDBRANCH   4   5
ENDBRANCH   3   4
ENDBRANCH   2   3
ENDBRANCH   1   2
BRANCH   1  35
ATOM     35  C   UNL     1       1.963   5.753  -8.612  0.00  0.00    +0.048 C 
BRANCH  35  36
ATOM     36  C   UNL     1       1.888   6.655  -9.814  0.00  0.00    +0.208 C 
BRANCH  36  37
ATOM     37  O   UNL     1       0.621   7.297  -9.802  0.00  0.00    -0.448 OA
BRANCH  37  38
ATOM     38  C   UNL     1      -0.186   7.090 -10.913  0.00  0.00    +0.323 C 
ATOM     39  O   UNL     1      -0.634   8.112 -11.485  0.00  0.00    -0.250 OA
BRANCH  38  40
ATOM     40  C   UNL     1      -0.044   5.860 -11.754  0.00  0.00    +0.170 C 
BRANCH  40  41
ATOM     41  C   UNL     1       0.637   6.300 -13.023  0.00  0.00    +0.121 C 
BRANCH  41  43
ATOM     42  C   UNL     1       2.332   5.712 -14.645  0.00  0.00    +0.086 C 
ATOM     43  N   UNL     1       1.067   5.199 -13.801  0.00  0.00    +0.301 N 
ATOM     44  C   UNL     1       1.680   4.133 -13.035  0.00  0.00    +0.171 C 
ATOM     45  C   UNL     1       0.143   4.708 -14.774  0.00  0.00    +0.114 C 
ATOM     46  C   UNL     1      -0.522   5.853 -15.478  0.00  0.00    +0.087 C 
ATOM     47  C   UNL     1       0.402   6.981 -15.663  0.00  0.00    -0.012 A 
ATOM     48  C   UNL     1      -0.113   8.112 -16.286  0.00  0.00    +0.036 A 
ATOM     49  C   UNL     1       0.738   9.154 -16.635  0.00  0.00    +0.172 A 
ATOM     50  C   UNL     1       2.113   8.994 -16.514  0.00  0.00    +0.172 A 
ATOM     51  C   UNL     1       2.515   7.996 -15.634  0.00  0.00    +0.041 A 
ATOM     52  C   UNL     1       1.603   7.139 -15.024  0.00  0.00    +0.027 A 
BRANCH  50  53
ATOM     53  O   UNL     1       2.973   9.521 -17.480  0.00  0.00    -0.468 OA
ATOM     54  C   UNL     1       4.354   9.543 -17.132  0.00  0.00    +0.253 C 
ENDBRANCH  50  53
BRANCH  49  55
ATOM     55  O   UNL     1       0.235  10.197 -17.397  0.00  0.00    -0.468 OA
ATOM     56  C   UNL     1      -0.769  10.031 -18.379  0.00  0.00    +0.253 C 
ENDBRANCH  49  55
BRANCH  42  57
ATOM     57  C   UNL     1       3.033   6.381 -13.277  0.00  0.00    +0.086 C 
BRANCH  57  61
ATOM     58  C   UNL     1       7.175   5.950 -13.279  0.00  0.00    +0.172 A 
ATOM     59  C   UNL     1       6.548   6.185 -14.493  0.00  0.00    +0.172 A 
ATOM     60  C   UNL     1       5.164   6.155 -14.610  0.00  0.00    +0.036 A 
ATOM     61  C   UNL     1       4.464   6.041 -13.414  0.00  0.00    -0.013 A 
ATOM     62  C   UNL     1       5.046   5.197 -12.477  0.00  0.00    -0.001 A 
ATOM     63  C   UNL     1       6.431   5.238 -12.354  0.00  0.00    +0.040 A 
BRANCH  58  65
ATOM     64  C   UNL     1       9.191   5.836 -11.896  0.00  0.00    +0.253 C 
ATOM     65  O   UNL     1       8.518   6.201 -13.058  0.00  0.00    -0.468 OA
ENDBRANCH  58  65
BRANCH  59  66
ATOM     66  O   UNL     1       7.333   6.773 -15.482  0.00  0.00    -0.468 OA
ATOM     67  C   UNL     1       7.151   6.469 -16.853  0.00  0.00    +0.253 C 
ENDBRANCH  59  66
ENDBRANCH  57  61
ENDBRANCH  42  57
ENDBRANCH  41  43
ENDBRANCH  40  41
ENDBRANCH  38  40
ENDBRANCH  37  38
ENDBRANCH  36  37
ENDBRANCH  35  36
ENDBRANCH   1  35
TORSDOF 26
ENDMDL
MODEL 5
REMARK VINA RESULT:      -6.8      2.093     14.555
REMARK  Name = 
REMARK  26 active torsions:
REMARK  status: ('A' for Active; 'I' for Inactive)
REMARK    1  A    between atoms: O_2  and  C_3
REMARK    2  A    between atoms: C_6  and  C_7
REMARK    3  A    between atoms: C_7  and  C_8
REMARK    4  A    between atoms: C_11  and  O_12
REMARK    5  A    between atoms: C_14  and  O_15
REMARK    6  A    between atoms: N_21  and  C_23
REMARK    7  A    between atoms: C_23  and  C_24
REMARK    8  A    between atoms: C_24  and  C_25
REMARK    9  A    between atoms: C_25  and  O_27
REMARK   10  A    between atoms: O_27  and  C_28
REMARK   11  A    between atoms: C_28  and  C_29
REMARK   12  A    between atoms: C_29  and  C_30
REMARK   13  A    between atoms: C_30  and  C_31
REMARK   14  A    between atoms: C_31  and  C_32
REMARK   15  A    between atoms: C_32  and  O_33
REMARK   16  A    between atoms: O_33  and  C_34
REMARK   17  A    between atoms: C_34  and  C_36
REMARK   18  A    between atoms: C_36  and  C_37
REMARK   19  A    between atoms: C_37  and  N_38
REMARK   20  A    between atoms: C_44  and  O_45
REMARK   21  A    between atoms: C_47  and  O_48
REMARK   22  A    between atoms: C_52  and  C_53
REMARK   23  A    between atoms: C_53  and  C_54
REMARK   24  A    between atoms: C_57  and  O_58
REMARK   25  A    between atoms: C_60  and  O_61
REMARK   26  A    between atoms: C_65  and  O_66
REMARK                            x       y       z     vdW  Elec       q    Type
REMARK                         _______ _______ _______ _____ _____    ______ ____
ROOT
ATOM      1  C   UNL     1       2.204   5.946  -6.254  0.00  0.00    +0.008 C 
ENDROOT
BRANCH   1   2
ATOM      2  C   UNL     1       1.929   7.263  -6.923  0.00  0.00    +0.048 C 
BRANCH   2   3
ATOM      3  C   UNL     1       2.278   7.161  -8.382  0.00  0.00    +0.208 C 
BRANCH   3   4
ATOM      4  O   UNL     1       1.094   7.339  -9.156  0.00  0.00    -0.448 OA
BRANCH   4   5
ATOM      5  C   UNL     1       0.297   6.272  -9.545  0.00  0.00    +0.323 C 
ATOM      6  O   UNL     1      -0.234   5.599  -8.615  0.00  0.00    -0.250 OA
BRANCH   5   7
ATOM      7  C   UNL     1      -0.433   6.260 -10.849  0.00  0.00    +0.170 C 
BRANCH   7   8
ATOM      8  C   UNL     1       0.574   6.491 -11.921  0.00  0.00    +0.121 C 
BRANCH   8   9
ATOM      9  N   UNL     1       0.929   5.214 -12.447  0.00  0.00    +0.301 N 
ATOM     10  C   UNL     1       2.098   5.499 -13.505  0.00  0.00    +0.086 C 
ATOM     11  C   UNL     1       1.275   6.759 -14.174  0.00  0.00    +0.027 A 
ATOM     12  C   UNL     1       0.323   6.183 -15.012  0.00  0.00    -0.012 A 
ATOM     13  C   UNL     1       0.007   6.731 -16.249  0.00  0.00    +0.036 A 
ATOM     14  C   UNL     1       0.833   7.720 -16.770  0.00  0.00    +0.172 A 
ATOM     15  C   UNL     1       1.795   8.277 -15.936  0.00  0.00    +0.172 A 
ATOM     16  C   UNL     1      -0.036   4.768 -14.672  0.00  0.00    +0.087 C 
ATOM     17  C   UNL     1       2.121   7.711 -14.712  0.00  0.00    +0.041 A 
ATOM     18  C   UNL     1      -0.100   4.552 -13.193  0.00  0.00    +0.114 C 
ATOM     19  C   UNL     1       1.573   4.345 -11.492  0.00  0.00    +0.171 C 
BRANCH  14  20
ATOM     20  O   UNL     1       0.982   7.911 -18.128  0.00  0.00    -0.468 OA
ATOM     21  C   UNL     1       2.242   7.963 -18.750  0.00  0.00    +0.253 C 
ENDBRANCH  14  20
BRANCH  15  22
ATOM     22  O   UNL     1       2.252   9.564 -16.228  0.00  0.00    -0.468 OA
ATOM     23  C   UNL     1       1.534  10.729 -15.835  0.00  0.00    +0.253 C 
ENDBRANCH  15  22
BRANCH  10  24
ATOM     24  C   UNL     1       2.906   6.514 -12.442  0.00  0.00    +0.086 C 
BRANCH  24  25
ATOM     25  C   UNL     1       4.146   5.767 -12.110  0.00  0.00    -0.013 A 
ATOM     26  C   UNL     1       4.984   5.228 -13.081  0.00  0.00    +0.036 A 
ATOM     27  C   UNL     1       6.358   5.134 -12.870  0.00  0.00    +0.172 A 
ATOM     28  C   UNL     1       6.935   5.797 -11.792  0.00  0.00    +0.172 A 
ATOM     29  C   UNL     1       6.096   5.923 -10.689  0.00  0.00    +0.040 A 
ATOM     30  C   UNL     1       4.718   5.794 -10.841  0.00  0.00    -0.001 A 
BRANCH  28  31
ATOM     31  O   UNL     1       8.067   6.606 -11.943  0.00  0.00    -0.468 OA
ATOM     32  C   UNL     1       9.338   6.007 -12.193  0.00  0.00    +0.253 C 
ENDBRANCH  28  31
BRANCH  27  33
ATOM     33  O   UNL     1       7.128   5.002 -14.029  0.00  0.00    -0.468 OA
ATOM     34  C   UNL     1       6.963   5.986 -15.028  0.00  0.00    +0.253 C 
ENDBRANCH  27  33
ENDBRANCH  24  25
ENDBRANCH  10  24
ENDBRANCH   8   9
ENDBRANCH   7   8
ENDBRANCH   5   7
ENDBRANCH   4   5
ENDBRANCH   3   4
ENDBRANCH   2   3
ENDBRANCH   1   2
BRANCH   1  35
ATOM     35  C   UNL     1       3.527   5.376  -6.721  0.00  0.00    +0.048 C 
BRANCH  35  36
ATOM     36  C   UNL     1       4.552   5.607  -5.644  0.00  0.00    +0.208 C 
BRANCH  36  37
ATOM     37  O   UNL     1       4.076   6.648  -4.802  0.00  0.00    -0.448 OA
BRANCH  37  38
ATOM     38  C   UNL     1       5.037   7.356  -4.092  0.00  0.00    +0.323 C 
ATOM     39  O   UNL     1       5.082   8.594  -4.280  0.00  0.00    -0.250 OA
BRANCH  38  40
ATOM     40  C   UNL     1       5.547   6.860  -2.775  0.00  0.00    +0.170 C 
BRANCH  40  41
ATOM     41  C   UNL     1       4.569   7.349  -1.740  0.00  0.00    +0.121 C 
BRANCH  41  43
ATOM     42  C   UNL     1       2.779   6.714  -0.243  0.00  0.00    +0.086 C 
ATOM     43  N   UNL     1       4.232   6.337  -0.811  0.00  0.00    +0.301 N 
ATOM     44  C   UNL     1       3.951   5.049  -1.410  0.00  0.00    +0.171 C 
ATOM     45  C   UNL     1       5.067   6.229   0.344  0.00  0.00    +0.114 C 
ATOM     46  C   UNL     1       5.393   7.593   0.874  0.00  0.00    +0.087 C 
ATOM     47  C   UNL     1       4.261   8.518   0.716  0.00  0.00    -0.012 A 
ATOM     48  C   UNL     1       4.457   9.823   1.153  0.00  0.00    +0.036 A 
ATOM     49  C   UNL     1       3.386  10.708   1.180  0.00  0.00    +0.172 A 
ATOM     50  C   UNL     1       2.099  10.245   0.933  0.00  0.00    +0.172 A 
ATOM     51  C   UNL     1       2.029   9.046   0.232  0.00  0.00    +0.041 A 
ATOM     52  C   UNL     1       3.166   8.305  -0.079  0.00  0.00    +0.027 A 
BRANCH  50  53
ATOM     53  O   UNL     1       1.018  10.742   1.664  0.00  0.00    -0.468 OA
ATOM     54  C   UNL     1      -0.016   9.805   1.949  0.00  0.00    +0.253 C 
ENDBRANCH  50  53
BRANCH  49  55
ATOM     55  O   UNL     1       3.565  11.951   1.768  0.00  0.00    -0.468 OA
ATOM     56  C   UNL     1       3.738  12.138   3.159  0.00  0.00    +0.253 C 
ENDBRANCH  49  55
BRANCH  42  57
ATOM     57  C   UNL     1       2.189   6.970  -1.791  0.00  0.00    +0.086 C 
BRANCH  57  61
ATOM     58  C   UNL     1      -1.725   5.581  -2.107  0.00  0.00    +0.172 A 
ATOM     59  C   UNL     1      -1.222   5.817  -0.837  0.00  0.00    +0.172 A 
ATOM     60  C   UNL     1       0.123   6.100  -0.632  0.00  0.00    +0.036 A 
ATOM     61  C   UNL     1       0.877   6.290  -1.784  0.00  0.00    -0.013 A 
ATOM     62  C   UNL     1       0.554   5.445  -2.838  0.00  0.00    -0.001 A 
ATOM     63  C   UNL     1      -0.794   5.174  -3.048  0.00  0.00    +0.040 A 
BRANCH  58  65
ATOM     64  C   UNL     1      -3.595   5.419  -3.677  0.00  0.00    +0.253 C 
ATOM     65  O   UNL     1      -3.079   5.533  -2.390  0.00  0.00    -0.468 OA
ENDBRANCH  58  65
BRANCH  59  66
ATOM     66  O   UNL     1      -2.164   6.087   0.153  0.00  0.00    -0.468 OA
ATOM     67  C   UNL     1      -1.802   6.699   1.377  0.00  0.00    +0.253 C 
ENDBRANCH  59  66
ENDBRANCH  57  61
ENDBRANCH  42  57
ENDBRANCH  41  43
ENDBRANCH  40  41
ENDBRANCH  38  40
ENDBRANCH  37  38
ENDBRANCH  36  37
ENDBRANCH  35  36
ENDBRANCH   1  35
TORSDOF 26
ENDMDL
MODEL 6
REMARK VINA RESULT:      -6.3      3.624     15.609
REMARK  Name = 
REMARK  26 active torsions:
REMARK  status: ('A' for Active; 'I' for Inactive)
REMARK    1  A    between atoms: O_2  and  C_3
REMARK    2  A    between atoms: C_6  and  C_7
REMARK    3  A    between atoms: C_7  and  C_8
REMARK    4  A    between atoms: C_11  and  O_12
REMARK    5  A    between atoms: C_14  and  O_15
REMARK    6  A    between atoms: N_21  and  C_23
REMARK    7  A    between atoms: C_23  and  C_24
REMARK    8  A    between atoms: C_24  and  C_25
REMARK    9  A    between atoms: C_25  and  O_27
REMARK   10  A    between atoms: O_27  and  C_28
REMARK   11  A    between atoms: C_28  and  C_29
REMARK   12  A    between atoms: C_29  and  C_30
REMARK   13  A    between atoms: C_30  and  C_31
REMARK   14  A    between atoms: C_31  and  C_32
REMARK   15  A    between atoms: C_32  and  O_33
REMARK   16  A    between atoms: O_33  and  C_34
REMARK   17  A    between atoms: C_34  and  C_36
REMARK   18  A    between atoms: C_36  and  C_37
REMARK   19  A    between atoms: C_37  and  N_38
REMARK   20  A    between atoms: C_44  and  O_45
REMARK   21  A    between atoms: C_47  and  O_48
REMARK   22  A    between atoms: C_52  and  C_53
REMARK   23  A    between atoms: C_53  and  C_54
REMARK   24  A    between atoms: C_57  and  O_58
REMARK   25  A    between atoms: C_60  and  O_61
REMARK   26  A    between atoms: C_65  and  O_66
REMARK                            x       y       z     vdW  Elec       q    Type
REMARK                         _______ _______ _______ _____ _____    ______ ____
ROOT
ATOM      1  C   UNL     1       0.582   5.030 -10.007  0.00  0.00    +0.008 C 
ENDROOT
BRANCH   1   2
ATOM      2  C   UNL     1       0.090   5.364 -11.387  0.00  0.00    +0.048 C 
BRANCH   2   3
ATOM      3  C   UNL     1       1.092   6.257 -12.068  0.00  0.00    +0.208 C 
BRANCH   3   4
ATOM      4  O   UNL     1       0.931   6.143 -13.480  0.00  0.00    -0.448 OA
BRANCH   4   5
ATOM      5  C   UNL     1       0.510   7.207 -14.265  0.00  0.00    +0.323 C 
ATOM      6  O   UNL     1       0.719   8.365 -13.801  0.00  0.00    -0.250 OA
BRANCH   5   7
ATOM      7  C   UNL     1       0.433   7.112 -15.755  0.00  0.00    +0.170 C 
BRANCH   7   8
ATOM      8  C   UNL     1       0.230   8.492 -16.275  0.00  0.00    +0.121 C 
BRANCH   8   9
ATOM      9  N   UNL     1       0.202   8.404 -17.699  0.00  0.00    +0.301 N 
ATOM     10  C   UNL     1       0.763   9.811 -18.224  0.00  0.00    +0.086 C 
ATOM     11  C   UNL     1      -0.177  10.655 -17.168  0.00  0.00    +0.027 A 
ATOM     12  C   UNL     1      -1.450  10.675 -17.733  0.00  0.00    -0.012 A 
ATOM     13  C   UNL     1      -2.262  11.801 -17.673  0.00  0.00    +0.036 A 
ATOM     14  C   UNL     1      -1.699  13.007 -17.269  0.00  0.00    +0.172 A 
ATOM     15  C   UNL     1      -0.421  12.984 -16.725  0.00  0.00    +0.172 A 
ATOM     16  C   UNL     1      -1.717   9.574 -18.715  0.00  0.00    +0.087 C 
ATOM     17  C   UNL     1       0.392  11.862 -16.809  0.00  0.00    +0.041 A 
ATOM     18  C   UNL     1      -1.103   8.281 -18.278  0.00  0.00    +0.114 C 
ATOM     19  C   UNL     1       1.148   7.463 -18.247  0.00  0.00    +0.171 C 
BRANCH  14  20
ATOM     20  O   UNL     1      -2.184  14.223 -17.702  0.00  0.00    -0.468 OA
ATOM     21  C   UNL     1      -3.121  14.335 -18.745  0.00  0.00    +0.253 C 
ENDBRANCH  14  20
BRANCH  15  22
ATOM     22  O   UNL     1      -0.055  14.020 -15.864  0.00  0.00    -0.468 OA
ATOM     23  C   UNL     1      -0.785  14.308 -14.675  0.00  0.00    +0.253 C 
ENDBRANCH  15  22
BRANCH  10  24
ATOM     24  C   UNL     1       2.047   9.778 -17.145  0.00  0.00    +0.086 C 
BRANCH  24  25
ATOM     25  C   UNL     1       3.247   9.729 -18.020  0.00  0.00    -0.013 A 
ATOM     26  C   UNL     1       4.231  10.712 -18.005  0.00  0.00    +0.036 A 
ATOM     27  C   UNL     1       5.562  10.398 -18.271  0.00  0.00    +0.172 A 
ATOM     28  C   UNL     1       5.958   9.066 -18.315  0.00  0.00    +0.172 A 
ATOM     29  C   UNL     1       4.965   8.194 -18.750  0.00  0.00    +0.040 A 
ATOM     30  C   UNL     1       3.628   8.578 -18.704  0.00  0.00    -0.001 A 
BRANCH  28  31
ATOM     31  O   UNL     1       7.078   8.605 -17.614  0.00  0.00    -0.468 OA
ATOM     32  C   UNL     1       6.903   7.846 -16.418  0.00  0.00    +0.253 C 
ENDBRANCH  28  31
BRANCH  27  33
ATOM     33  O   UNL     1       6.495  11.331 -17.808  0.00  0.00    -0.468 OA
ATOM     34  C   UNL     1       7.010  12.250 -18.750  0.00  0.00    +0.253 C 
ENDBRANCH  27  33
ENDBRANCH  24  25
ENDBRANCH  10  24
ENDBRANCH   8   9
ENDBRANCH   7   8
ENDBRANCH   5   7
ENDBRANCH   4   5
ENDBRANCH   3   4
ENDBRANCH   2   3
ENDBRANCH   1   2
BRANCH   1  35
ATOM     35  C   UNL     1       2.096   5.038  -9.964  0.00  0.00    +0.048 C 
BRANCH  35  36
ATOM     36  C   UNL     1       2.531   5.353  -8.559  0.00  0.00    +0.208 C 
BRANCH  36  37
ATOM     37  O   UNL     1       2.748   4.124  -7.881  0.00  0.00    -0.448 OA
BRANCH  37  38
ATOM     38  C   UNL     1       2.523   4.126  -6.511  0.00  0.00    +0.323 C 
ATOM     39  O   UNL     1       1.699   3.290  -6.072  0.00  0.00    -0.250 OA
BRANCH  38  40
ATOM     40  C   UNL     1       3.574   4.595  -5.555  0.00  0.00    +0.170 C 
BRANCH  40  41
ATOM     41  C   UNL     1       2.838   5.254  -4.418  0.00  0.00    +0.121 C 
BRANCH  41  43
ATOM     42  C   UNL     1       2.428   7.205  -3.048  0.00  0.00    +0.086 C 
ATOM     43  N   UNL     1       2.937   6.665  -4.471  0.00  0.00    +0.301 N 
ATOM     44  C   UNL     1       4.295   7.166  -4.470  0.00  0.00    +0.171 C 
ATOM     45  C   UNL     1       2.115   7.324  -5.437  0.00  0.00    +0.114 C 
ATOM     46  C   UNL     1       0.747   6.711  -5.454  0.00  0.00    +0.087 C 
ATOM     47  C   UNL     1       0.326   6.295  -4.108  0.00  0.00    -0.012 A 
ATOM     48  C   UNL     1      -0.922   5.690  -4.005  0.00  0.00    +0.036 A 
ATOM     49  C   UNL     1      -1.451   5.414  -2.749  0.00  0.00    +0.172 A 
ATOM     50  C   UNL     1      -0.814   5.889  -1.610  0.00  0.00    +0.172 A 
ATOM     51  C   UNL     1       0.530   6.205  -1.774  0.00  0.00    +0.041 A 
ATOM     52  C   UNL     1       1.149   6.169  -3.021  0.00  0.00    +0.027 A 
BRANCH  50  53
ATOM     53  O   UNL     1      -1.562   6.366  -0.531  0.00  0.00    -0.468 OA
ATOM     54  C   UNL     1      -1.405   7.751  -0.236  0.00  0.00    +0.253 C 
ENDBRANCH  50  53
BRANCH  49  55
ATOM     55  O   UNL     1      -2.758   4.961  -2.664  0.00  0.00    -0.468 OA
ATOM     56  C   UNL     1      -3.885   5.782  -2.904  0.00  0.00    +0.253 C 
ENDBRANCH  49  55
BRANCH  42  57
ATOM     57  C   UNL     1       3.395   6.106  -2.232  0.00  0.00    +0.086 C 
BRANCH  57  61
ATOM     58  C   UNL     1       4.568   7.931   1.323  0.00  0.00    +0.172 A 
ATOM     59  C   UNL     1       3.910   8.708   0.383  0.00  0.00    +0.172 A 
ATOM     60  C   UNL     1       3.652   8.232  -0.897  0.00  0.00    +0.036 A 
ATOM     61  C   UNL     1       3.945   6.889  -1.107  0.00  0.00    -0.013 A 
ATOM     62  C   UNL     1       5.099   6.440  -0.477  0.00  0.00    -0.001 A 
ATOM     63  C   UNL     1       5.348   6.909   0.808  0.00  0.00    +0.040 A 
BRANCH  58  65
ATOM     64  C   UNL     1       4.476   7.339   3.696  0.00  0.00    +0.253 C 
ATOM     65  O   UNL     1       4.636   8.260   2.665  0.00  0.00    -0.468 OA
ENDBRANCH  58  65
BRANCH  59  66
ATOM     66  O   UNL     1       3.238   9.824   0.875  0.00  0.00    -0.468 OA
ATOM     67  C   UNL     1       2.595  10.745   0.012  0.00  0.00    +0.253 C 
ENDBRANCH  59  66
ENDBRANCH  57  61
ENDBRANCH  42  57
ENDBRANCH  41  43
ENDBRANCH  40  41
ENDBRANCH  38  40
ENDBRANCH  37  38
ENDBRANCH  36  37
ENDBRANCH  35  36
ENDBRANCH   1  35
TORSDOF 26
ENDMDL
MODEL 7
REMARK VINA RESULT:      -6.1      2.538     14.717
REMARK  Name = 
REMARK  26 active torsions:
REMARK  status: ('A' for Active; 'I' for Inactive)
REMARK    1  A    between atoms: O_2  and  C_3
REMARK    2  A    between atoms: C_6  and  C_7
REMARK    3  A    between atoms: C_7  and  C_8
REMARK    4  A    between atoms: C_11  and  O_12
REMARK    5  A    between atoms: C_14  and  O_15
REMARK    6  A    between atoms: N_21  and  C_23
REMARK    7  A    between atoms: C_23  and  C_24
REMARK    8  A    between atoms: C_24  and  C_25
REMARK    9  A    between atoms: C_25  and  O_27
REMARK   10  A    between atoms: O_27  and  C_28
REMARK   11  A    between atoms: C_28  and  C_29
REMARK   12  A    between atoms: C_29  and  C_30
REMARK   13  A    between atoms: C_30  and  C_31
REMARK   14  A    between atoms: C_31  and  C_32
REMARK   15  A    between atoms: C_32  and  O_33
REMARK   16  A    between atoms: O_33  and  C_34
REMARK   17  A    between atoms: C_34  and  C_36
REMARK   18  A    between atoms: C_36  and  C_37
REMARK   19  A    between atoms: C_37  and  N_38
REMARK   20  A    between atoms: C_44  and  O_45
REMARK   21  A    between atoms: C_47  and  O_48
REMARK   22  A    between atoms: C_52  and  C_53
REMARK   23  A    between atoms: C_53  and  C_54
REMARK   24  A    between atoms: C_57  and  O_58
REMARK   25  A    between atoms: C_60  and  O_61
REMARK   26  A    between atoms: C_65  and  O_66
REMARK                            x       y       z     vdW  Elec       q    Type
REMARK                         _______ _______ _______ _____ _____    ______ ____
ROOT
ATOM      1  C   UNL     1       3.325   6.196  -8.822  0.00  0.00    +0.008 C 
ENDROOT
BRANCH   1   2
ATOM      2  C   UNL     1       1.889   6.248  -8.380  0.00  0.00    +0.048 C 
BRANCH   2   3
ATOM      3  C   UNL     1       1.101   5.208  -9.129  0.00  0.00    +0.208 C 
BRANCH   3   4
ATOM      4  O   UNL     1      -0.079   5.810  -9.654  0.00  0.00    -0.448 OA
BRANCH   4   5
ATOM      5  C   UNL     1      -0.151   6.287 -10.955  0.00  0.00    +0.323 C 
ATOM      6  O   UNL     1      -0.097   7.543 -11.096  0.00  0.00    -0.250 OA
BRANCH   5   7
ATOM      7  C   UNL     1       0.324   5.484 -12.122  0.00  0.00    +0.170 C 
BRANCH   7   8
ATOM      8  C   UNL     1       0.265   6.367 -13.320  0.00  0.00    +0.121 C 
BRANCH   8   9
ATOM      9  N   UNL     1       0.592   5.563 -14.452  0.00  0.00    +0.301 N 
ATOM     10  C   UNL     1       1.694   6.397 -15.263  0.00  0.00    +0.086 C 
ATOM     11  C   UNL     1       0.829   7.792 -15.134  0.00  0.00    +0.027 A 
ATOM     12  C   UNL     1      -0.170   7.705 -16.100  0.00  0.00    -0.012 A 
ATOM     13  C   UNL     1      -0.562   8.806 -16.853  0.00  0.00    +0.036 A 
ATOM     14  C   UNL     1       0.229   9.948 -16.822  0.00  0.00    +0.172 A 
ATOM     15  C   UNL     1       1.237  10.022 -15.868  0.00  0.00    +0.172 A 
ATOM     16  C   UNL     1      -0.503   6.308 -16.532  0.00  0.00    +0.087 C 
ATOM     17  C   UNL     1       1.638   8.913 -15.138  0.00  0.00    +0.041 A 
ATOM     18  C   UNL     1      -0.478   5.352 -15.381  0.00  0.00    +0.114 C 
ATOM     19  C   UNL     1       1.295   4.347 -14.123  0.00  0.00    +0.171 C 
BRANCH  14  20
ATOM     20  O   UNL     1       0.295  10.823 -17.886  0.00  0.00    -0.468 OA
ATOM     21  C   UNL     1       1.404  10.880 -18.750  0.00  0.00    +0.253 C 
ENDBRANCH  14  20
BRANCH  15  22
ATOM     22  O   UNL     1       1.672  11.287 -15.469  0.00  0.00    -0.468 OA
ATOM     23  C   UNL     1       0.795  12.232 -14.864  0.00  0.00    +0.253 C 
ENDBRANCH  15  22
BRANCH  10  24
ATOM     24  C   UNL     1       2.562   6.737 -13.868  0.00  0.00    +0.086 C 
BRANCH  24  25
ATOM     25  C   UNL     1       3.882   6.100 -14.105  0.00  0.00    -0.013 A 
ATOM     26  C   UNL     1       4.810   6.602 -15.012  0.00  0.00    +0.036 A 
ATOM     27  C   UNL     1       6.178   6.460 -14.791  0.00  0.00    +0.172 A 
ATOM     28  C   UNL     1       6.633   6.033 -13.549  0.00  0.00    +0.172 A 
ATOM     29  C   UNL     1       5.756   5.177 -12.889  0.00  0.00    +0.040 A 
ATOM     30  C   UNL     1       4.413   5.137 -13.251  0.00  0.00    -0.001 A 
BRANCH  28  31
ATOM     31  O   UNL     1       7.650   6.706 -12.863  0.00  0.00    -0.468 OA
ATOM     32  C   UNL     1       8.736   5.969 -12.303  0.00  0.00    +0.253 C 
ENDBRANCH  28  31
BRANCH  27  33
ATOM     33  O   UNL     1       6.988   7.353 -15.499  0.00  0.00    -0.468 OA
ATOM     34  C   UNL     1       7.361   6.985 -16.811  0.00  0.00    +0.253 C 
ENDBRANCH  27  33
ENDBRANCH  24  25
ENDBRANCH  10  24
ENDBRANCH   8   9
ENDBRANCH   7   8
ENDBRANCH   5   7
ENDBRANCH   4   5
ENDBRANCH   3   4
ENDBRANCH   2   3
ENDBRANCH   1   2
BRANCH   1  35
ATOM     35  C   UNL     1       4.205   5.656  -7.714  0.00  0.00    +0.048 C 
BRANCH  35  36
ATOM     36  C   UNL     1       3.531   5.925  -6.396  0.00  0.00    +0.208 C 
BRANCH  36  37
ATOM     37  O   UNL     1       3.907   7.226  -5.968  0.00  0.00    -0.448 OA
BRANCH  37  38
ATOM     38  C   UNL     1       4.865   7.293  -4.965  0.00  0.00    +0.323 C 
ATOM     39  O   UNL     1       5.141   8.433  -4.522  0.00  0.00    -0.250 OA
BRANCH  38  40
ATOM     40  C   UNL     1       5.097   6.141  -4.039  0.00  0.00    +0.170 C 
BRANCH  40  41
ATOM     41  C   UNL     1       4.461   6.525  -2.729  0.00  0.00    +0.121 C 
BRANCH  41  43
ATOM     42  C   UNL     1       2.499   5.893  -1.464  0.00  0.00    +0.086 C 
ATOM     43  N   UNL     1       3.907   5.407  -2.062  0.00  0.00    +0.301 N 
ATOM     44  C   UNL     1       3.464   4.348  -2.944  0.00  0.00    +0.171 C 
ATOM     45  C   UNL     1       4.638   4.909  -0.939  0.00  0.00    +0.114 C 
ATOM     46  C   UNL     1       5.143   6.050  -0.106  0.00  0.00    +0.087 C 
ATOM     47  C   UNL     1       4.185   7.165  -0.082  0.00  0.00    -0.012 A 
ATOM     48  C   UNL     1       4.558   8.291   0.643  0.00  0.00    +0.036 A 
ATOM     49  C   UNL     1       3.642   9.318   0.840  0.00  0.00    +0.172 A 
ATOM     50  C   UNL     1       2.317   9.145   0.460  0.00  0.00    +0.172 A 
ATOM     51  C   UNL     1       2.102   8.158  -0.495  0.00  0.00    +0.041 A 
ATOM     52  C   UNL     1       3.124   7.320  -0.934  0.00  0.00    +0.027 A 
BRANCH  50  53
ATOM     53  O   UNL     1       1.284   9.647   1.254  0.00  0.00    -0.468 OA
ATOM     54  C   UNL     1       0.352   8.683   1.736  0.00  0.00    +0.253 C 
ENDBRANCH  50  53
BRANCH  49  55
ATOM     55  O   UNL     1       3.979  10.353   1.698  0.00  0.00    -0.468 OA
ATOM     56  C   UNL     1       5.178  10.385   2.449  0.00  0.00    +0.253 C 
ENDBRANCH  49  55
BRANCH  42  57
ATOM     57  C   UNL     1       2.059   6.576  -2.929  0.00  0.00    +0.086 C 
BRANCH  57  61
ATOM     58  C   UNL     1      -1.975   5.791  -3.603  0.00  0.00    +0.172 A 
ATOM     59  C   UNL     1      -1.424   5.366  -2.404  0.00  0.00    +0.172 A 
ATOM     60  C   UNL     1      -0.054   5.419  -2.178  0.00  0.00    +0.036 A 
ATOM     61  C   UNL     1       0.689   6.071  -3.155  0.00  0.00    -0.013 A 
ATOM     62  C   UNL     1       0.263   5.846  -4.458  0.00  0.00    -0.001 A 
ATOM     63  C   UNL     1      -1.109   5.806  -4.682  0.00  0.00    +0.040 A 
BRANCH  58  65
ATOM     64  C   UNL     1      -4.174   6.531  -2.824  0.00  0.00    +0.253 C 
ATOM     65  O   UNL     1      -3.333   5.981  -3.788  0.00  0.00    -0.468 OA
ENDBRANCH  58  65
BRANCH  59  66
ATOM     66  O   UNL     1      -2.314   5.209  -1.344  0.00  0.00    -0.468 OA
ATOM     67  C   UNL     1      -2.133   5.888  -0.115  0.00  0.00    +0.253 C 
ENDBRANCH  59  66
ENDBRANCH  57  61
ENDBRANCH  42  57
ENDBRANCH  41  43
ENDBRANCH  40  41
ENDBRANCH  38  40
ENDBRANCH  37  38
ENDBRANCH  36  37
ENDBRANCH  35  36
ENDBRANCH   1  35
TORSDOF 26
ENDMDL
MODEL 8
REMARK VINA RESULT:      -6.0      2.754     14.260
REMARK  Name = 
REMARK  26 active torsions:
REMARK  status: ('A' for Active; 'I' for Inactive)
REMARK    1  A    between atoms: O_2  and  C_3
REMARK    2  A    between atoms: C_6  and  C_7
REMARK    3  A    between atoms: C_7  and  C_8
REMARK    4  A    between atoms: C_11  and  O_12
REMARK    5  A    between atoms: C_14  and  O_15
REMARK    6  A    between atoms: N_21  and  C_23
REMARK    7  A    between atoms: C_23  and  C_24
REMARK    8  A    between atoms: C_24  and  C_25
REMARK    9  A    between atoms: C_25  and  O_27
REMARK   10  A    between atoms: O_27  and  C_28
REMARK   11  A    between atoms: C_28  and  C_29
REMARK   12  A    between atoms: C_29  and  C_30
REMARK   13  A    between atoms: C_30  and  C_31
REMARK   14  A    between atoms: C_31  and  C_32
REMARK   15  A    between atoms: C_32  and  O_33
REMARK   16  A    between atoms: O_33  and  C_34
REMARK   17  A    between atoms: C_34  and  C_36
REMARK   18  A    between atoms: C_36  and  C_37
REMARK   19  A    between atoms: C_37  and  N_38
REMARK   20  A    between atoms: C_44  and  O_45
REMARK   21  A    between atoms: C_47  and  O_48
REMARK   22  A    between atoms: C_52  and  C_53
REMARK   23  A    between atoms: C_53  and  C_54
REMARK   24  A    between atoms: C_57  and  O_58
REMARK   25  A    between atoms: C_60  and  O_61
REMARK   26  A    between atoms: C_65  and  O_66
REMARK                            x       y       z     vdW  Elec       q    Type
REMARK                         _______ _______ _______ _____ _____    ______ ____
ROOT
ATOM      1  C   UNL     1       0.263   5.654  -9.508  0.00  0.00    +0.008 C 
ENDROOT
BRANCH   1   2
ATOM      2  C   UNL     1      -0.353   5.613 -10.878  0.00  0.00    +0.048 C 
BRANCH   2   3
ATOM      3  C   UNL     1      -0.145   4.248 -11.475  0.00  0.00    +0.208 C 
BRANCH   3   4
ATOM      4  O   UNL     1      -0.470   4.294 -12.862  0.00  0.00    -0.448 OA
BRANCH   4   5
ATOM      5  C   UNL     1       0.396   3.828 -13.841  0.00  0.00    +0.323 C 
ATOM      6  O   UNL     1      -0.102   3.643 -14.989  0.00  0.00    -0.250 OA
BRANCH   5   7
ATOM      7  C   UNL     1       1.860   4.124 -13.811  0.00  0.00    +0.170 C 
BRANCH   7   8
ATOM      8  C   UNL     1       2.104   5.245 -14.760  0.00  0.00    +0.121 C 
BRANCH   8   9
ATOM      9  N   UNL     1       2.003   6.457 -14.014  0.00  0.00    +0.301 N 
ATOM     10  C   UNL     1       3.140   7.418 -14.606  0.00  0.00    +0.086 C 
ATOM     11  C   UNL     1       4.264   6.216 -14.577  0.00  0.00    +0.027 A 
ATOM     12  C   UNL     1       4.685   6.127 -13.253  0.00  0.00    -0.012 A 
ATOM     13  C   UNL     1       6.015   5.900 -12.919  0.00  0.00    +0.036 A 
ATOM     14  C   UNL     1       6.980   6.018 -13.912  0.00  0.00    +0.172 A 
ATOM     15  C   UNL     1       6.554   6.126 -15.230  0.00  0.00    +0.172 A 
ATOM     16  C   UNL     1       3.712   6.667 -12.249  0.00  0.00    +0.087 C 
ATOM     17  C   UNL     1       5.228   6.376 -15.554  0.00  0.00    +0.041 A 
ATOM     18  C   UNL     1       2.298   6.341 -12.616  0.00  0.00    +0.114 C 
ATOM     19  C   UNL     1       0.794   7.203 -14.270  0.00  0.00    +0.171 C 
BRANCH  14  20
ATOM     20  O   UNL     1       8.280   6.386 -13.631  0.00  0.00    -0.468 OA
ATOM     21  C   UNL     1       8.924   6.029 -12.433  0.00  0.00    +0.253 C 
ENDBRANCH  14  20
BRANCH  15  22
ATOM     22  O   UNL     1       7.433   5.726 -16.239  0.00  0.00    -0.468 OA
ATOM     23  C   UNL     1       7.249   6.111 -17.598  0.00  0.00    +0.253 C 
ENDBRANCH  15  22
BRANCH  10  24
ATOM     24  C   UNL     1       2.713   7.062 -16.188  0.00  0.00    +0.086 C 
BRANCH  24  25
ATOM     25  C   UNL     1       2.484   8.394 -16.804  0.00  0.00    -0.013 A 
ATOM     26  C   UNL     1       1.531   8.614 -17.793  0.00  0.00    +0.036 A 
ATOM     27  C   UNL     1       0.874   9.838 -17.897  0.00  0.00    +0.172 A 
ATOM     28  C   UNL     1       0.985  10.767 -16.868  0.00  0.00    +0.172 A 
ATOM     29  C   UNL     1       2.196  10.713 -16.185  0.00  0.00    +0.040 A 
ATOM     30  C   UNL     1       2.987   9.570 -16.253  0.00  0.00    -0.001 A 
BRANCH  28  31
ATOM     31  O   UNL     1      -0.137  11.394 -16.315  0.00  0.00    -0.468 OA
ATOM     32  C   UNL     1      -0.339  12.792 -16.514  0.00  0.00    +0.253 C 
ENDBRANCH  28  31
BRANCH  27  33
ATOM     33  O   UNL     1      -0.331   9.805 -18.605  0.00  0.00    -0.468 OA
ATOM     34  C   UNL     1      -1.191   8.711 -18.364  0.00  0.00    +0.253 C 
ENDBRANCH  27  33
ENDBRANCH  24  25
ENDBRANCH  10  24
ENDBRANCH   8   9
ENDBRANCH   7   8
ENDBRANCH   5   7
ENDBRANCH   4   5
ENDBRANCH   3   4
ENDBRANCH   2   3
ENDBRANCH   1   2
BRANCH   1  35
ATOM     35  C   UNL     1       1.352   4.609  -9.381  0.00  0.00    +0.048 C 
BRANCH  35  36
ATOM     36  C   UNL     1       2.567   5.258  -8.777  0.00  0.00    +0.208 C 
BRANCH  36  37
ATOM     37  O   UNL     1       3.218   4.295  -7.960  0.00  0.00    -0.448 OA
BRANCH  37  38
ATOM     38  C   UNL     1       2.809   4.233  -6.634  0.00  0.00    +0.323 C 
ATOM     39  O   UNL     1       1.904   3.411  -6.359  0.00  0.00    -0.250 OA
BRANCH  38  40
ATOM     40  C   UNL     1       3.738   4.604  -5.521  0.00  0.00    +0.170 C 
BRANCH  40  41
ATOM     41  C   UNL     1       2.888   5.285  -4.480  0.00  0.00    +0.121 C 
BRANCH  41  43
ATOM     42  C   UNL     1       2.475   7.272  -3.165  0.00  0.00    +0.086 C 
ATOM     43  N   UNL     1       2.954   6.694  -4.584  0.00  0.00    +0.301 N 
ATOM     44  C   UNL     1       4.301   7.224  -4.640  0.00  0.00    +0.171 C 
ATOM     45  C   UNL     1       2.090   7.303  -5.545  0.00  0.00    +0.114 C 
ATOM     46  C   UNL     1       0.735   6.661  -5.501  0.00  0.00    +0.087 C 
ATOM     47  C   UNL     1       0.364   6.282  -4.129  0.00  0.00    -0.012 A 
ATOM     48  C   UNL     1      -0.867   5.655  -3.969  0.00  0.00    +0.036 A 
ATOM     49  C   UNL     1      -1.353   5.410  -2.689  0.00  0.00    +0.172 A 
ATOM     50  C   UNL     1      -0.693   5.938  -1.586  0.00  0.00    +0.172 A 
ATOM     51  C   UNL     1       0.638   6.276  -1.802  0.00  0.00    +0.041 A 
ATOM     52  C   UNL     1       1.221   6.211  -3.064  0.00  0.00    +0.027 A 
BRANCH  50  53
ATOM     53  O   UNL     1      -1.419   6.435  -0.502  0.00  0.00    -0.468 OA
ATOM     54  C   UNL     1      -1.112   7.772  -0.115  0.00  0.00    +0.253 C 
ENDBRANCH  50  53
BRANCH  49  55
ATOM     55  O   UNL     1      -2.647   4.933  -2.550  0.00  0.00    -0.468 OA
ATOM     56  C   UNL     1      -3.794   5.667  -2.934  0.00  0.00    +0.253 C 
ENDBRANCH  49  55
BRANCH  42  57
ATOM     57  C   UNL     1       3.490   6.222  -2.342  0.00  0.00    +0.086 C 
BRANCH  57  61
ATOM     58  C   UNL     1       4.227   8.183   1.258  0.00  0.00    +0.172 A 
ATOM     59  C   UNL     1       3.970   8.959   0.139  0.00  0.00    +0.172 A 
ATOM     60  C   UNL     1       3.900   8.397  -1.131  0.00  0.00    +0.036 A 
ATOM     61  C   UNL     1       3.938   7.009  -1.174  0.00  0.00    -0.013 A 
ATOM     62  C   UNL     1       4.804   6.421  -0.261  0.00  0.00    -0.001 A 
ATOM     63  C   UNL     1       4.863   6.978   1.012  0.00  0.00    +0.040 A 
BRANCH  58  65
ATOM     64  C   UNL     1       4.728   8.099   3.652  0.00  0.00    +0.253 C 
ATOM     65  O   UNL     1       4.072   8.645   2.553  0.00  0.00    -0.468 OA
ENDBRANCH  58  65
BRANCH  59  66
ATOM     66  O   UNL     1       3.462  10.233   0.382  0.00  0.00    -0.468 OA
ATOM     67  C   UNL     1       3.378  11.207  -0.642  0.00  0.00    +0.253 C 
ENDBRANCH  59  66
ENDBRANCH  57  61
ENDBRANCH  42  57
ENDBRANCH  41  43
ENDBRANCH  40  41
ENDBRANCH  38  40
ENDBRANCH  37  38
ENDBRANCH  36  37
ENDBRANCH  35  36
ENDBRANCH   1  35
TORSDOF 26
ENDMDL
MODEL 9
REMARK VINA RESULT:      -6.0      2.747     14.779
REMARK  Name = 
REMARK  26 active torsions:
REMARK  status: ('A' for Active; 'I' for Inactive)
REMARK    1  A    between atoms: O_2  and  C_3
REMARK    2  A    between atoms: C_6  and  C_7
REMARK    3  A    between atoms: C_7  and  C_8
REMARK    4  A    between atoms: C_11  and  O_12
REMARK    5  A    between atoms: C_14  and  O_15
REMARK    6  A    between atoms: N_21  and  C_23
REMARK    7  A    between atoms: C_23  and  C_24
REMARK    8  A    between atoms: C_24  and  C_25
REMARK    9  A    between atoms: C_25  and  O_27
REMARK   10  A    between atoms: O_27  and  C_28
REMARK   11  A    between atoms: C_28  and  C_29
REMARK   12  A    between atoms: C_29  and  C_30
REMARK   13  A    between atoms: C_30  and  C_31
REMARK   14  A    between atoms: C_31  and  C_32
REMARK   15  A    between atoms: C_32  and  O_33
REMARK   16  A    between atoms: O_33  and  C_34
REMARK   17  A    between atoms: C_34  and  C_36
REMARK   18  A    between atoms: C_36  and  C_37
REMARK   19  A    between atoms: C_37  and  N_38
REMARK   20  A    between atoms: C_44  and  O_45
REMARK   21  A    between atoms: C_47  and  O_48
REMARK   22  A    between atoms: C_52  and  C_53
REMARK   23  A    between atoms: C_53  and  C_54
REMARK   24  A    between atoms: C_57  and  O_58
REMARK   25  A    between atoms: C_60  and  O_61
REMARK   26  A    between atoms: C_65  and  O_66
REMARK                            x       y       z     vdW  Elec       q    Type
REMARK                         _______ _______ _______ _____ _____    ______ ____
ROOT
ATOM      1  C   UNL     1      -1.221   5.368  -7.305  0.00  0.00    +0.008 C 
ENDROOT
BRANCH   1   2
ATOM      2  C   UNL     1       0.261   5.417  -7.060  0.00  0.00    +0.048 C 
BRANCH   2   3
ATOM      3  C   UNL     1       0.937   6.060  -8.240  0.00  0.00    +0.208 C 
BRANCH   3   4
ATOM      4  O   UNL     1       0.061   6.007  -9.363  0.00  0.00    -0.448 OA
BRANCH   4   5
ATOM      5  C   UNL     1       0.461   6.400 -10.632  0.00  0.00    +0.323 C 
ATOM      6  O   UNL     1      -0.209   7.328 -11.170  0.00  0.00    -0.250 OA
BRANCH   5   7
ATOM      7  C   UNL     1       1.877   6.275 -11.093  0.00  0.00    +0.170 C 
BRANCH   7   8
ATOM      8  C   UNL     1       1.899   6.599 -12.546  0.00  0.00    +0.121 C 
BRANCH   8   9
ATOM      9  N   UNL     1       2.026   5.365 -13.250  0.00  0.00    +0.301 N 
ATOM     10  C   UNL     1       2.506   5.764 -14.727  0.00  0.00    +0.086 C 
ATOM     11  C   UNL     1       1.387   6.968 -14.836  0.00  0.00    +0.027 A 
ATOM     12  C   UNL     1       0.183   6.335 -15.134  0.00  0.00    -0.012 A 
ATOM     13  C   UNL     1      -0.732   6.882 -16.026  0.00  0.00    +0.036 A 
ATOM     14  C   UNL     1      -0.328   7.944 -16.827  0.00  0.00    +0.172 A 
ATOM     15  C   UNL     1       0.884   8.559 -16.537  0.00  0.00    +0.172 A 
ATOM     16  C   UNL     1       0.122   4.889 -14.744  0.00  0.00    +0.087 C 
ATOM     17  C   UNL     1       1.802   7.995 -15.662  0.00  0.00    +0.041 A 
ATOM     18  C   UNL     1       0.805   4.639 -13.436  0.00  0.00    +0.114 C 
ATOM     19  C   UNL     1       3.107   4.531 -12.783  0.00  0.00    +0.171 C 
BRANCH  14  20
ATOM     20  O   UNL     1      -0.877   8.174 -18.071  0.00  0.00    -0.468 OA
ATOM     21  C   UNL     1      -2.260   8.100 -18.312  0.00  0.00    +0.253 C 
ENDBRANCH  14  20
BRANCH  15  22
ATOM     22  O   UNL     1       1.062   9.883 -16.942  0.00  0.00    -0.468 OA
ATOM     23  C   UNL     1       0.574  10.980 -16.174  0.00  0.00    +0.253 C 
ENDBRANCH  15  22
BRANCH  10  24
ATOM     24  C   UNL     1       3.669   6.818 -14.137  0.00  0.00    +0.086 C 
BRANCH  24  25
ATOM     25  C   UNL     1       4.846   6.575 -15.011  0.00  0.00    -0.013 A 
ATOM     26  C   UNL     1       4.768   6.584 -16.400  0.00  0.00    +0.036 A 
ATOM     27  C   UNL     1       5.846   7.004 -17.175  0.00  0.00    +0.172 A 
ATOM     28  C   UNL     1       6.921   7.645 -16.569  0.00  0.00    +0.172 A 
ATOM     29  C   UNL     1       7.157   7.240 -15.259  0.00  0.00    +0.040 A 
ATOM     30  C   UNL     1       6.153   6.607 -14.531  0.00  0.00    -0.001 A 
BRANCH  28  31
ATOM     31  O   UNL     1       7.439   8.847 -17.065  0.00  0.00    -0.468 OA
ATOM     32  C   UNL     1       8.257   8.838 -18.234  0.00  0.00    +0.253 C 
ENDBRANCH  28  31
BRANCH  27  33
ATOM     33  O   UNL     1       5.524   7.386 -18.481  0.00  0.00    -0.468 OA
ATOM     34  C   UNL     1       4.320   8.103 -18.664  0.00  0.00    +0.253 C 
ENDBRANCH  27  33
ENDBRANCH  24  25
ENDBRANCH  10  24
ENDBRANCH   8   9
ENDBRANCH   7   8
ENDBRANCH   5   7
ENDBRANCH   4   5
ENDBRANCH   3   4
ENDBRANCH   2   3
ENDBRANCH   1   2
BRANCH   1  35
ATOM     35  C   UNL     1      -1.970   6.066  -6.188  0.00  0.00    +0.048 C 
BRANCH  35  36
ATOM     36  C   UNL     1      -1.487   5.515  -4.874  0.00  0.00    +0.208 C 
BRANCH  36  37
ATOM     37  O   UNL     1      -1.613   6.539  -3.897  0.00  0.00    -0.448 OA
BRANCH  37  38
ATOM     38  C   UNL     1      -2.033   6.140  -2.635  0.00  0.00    +0.323 C 
ATOM     39  O   UNL     1      -2.429   4.956  -2.519  0.00  0.00    -0.250 OA
BRANCH  38  40
ATOM     40  C   UNL     1      -1.495   6.790  -1.399  0.00  0.00    +0.170 C 
BRANCH  40  41
ATOM     41  C   UNL     1      -0.015   6.952  -1.626  0.00  0.00    +0.121 C 
BRANCH  41  43
ATOM     42  C   UNL     1       2.220   6.793  -0.714  0.00  0.00    +0.086 C 
ATOM     43  N   UNL     1       0.746   6.157  -0.736  0.00  0.00    +0.301 N 
ATOM     44  C   UNL     1       0.378   6.304   0.656  0.00  0.00    +0.171 C 
ATOM     45  C   UNL     1       0.935   4.790  -1.107  0.00  0.00    +0.114 C 
ATOM     46  C   UNL     1       1.232   4.690  -2.574  0.00  0.00    +0.087 C 
ATOM     47  C   UNL     1       2.041   5.827  -3.039  0.00  0.00    -0.012 A 
ATOM     48  C   UNL     1       2.359   5.852  -4.392  0.00  0.00    +0.036 A 
ATOM     49  C   UNL     1       3.248   6.807  -4.872  0.00  0.00    +0.172 A 
ATOM     50  C   UNL     1       3.940   7.619  -3.981  0.00  0.00    +0.172 A 
ATOM     51  C   UNL     1       3.362   7.737  -2.722  0.00  0.00    +0.041 A 
ATOM     52  C   UNL     1       2.247   6.991  -2.348  0.00  0.00    +0.027 A 
BRANCH  50  53
ATOM     53  O   UNL     1       5.275   7.950  -4.219  0.00  0.00    -0.468 OA
ATOM     54  C   UNL     1       6.237   7.209  -3.474  0.00  0.00    +0.253 C 
ENDBRANCH  50  53
BRANCH  49  55
ATOM     55  O   UNL     1       3.675   6.715  -6.188  0.00  0.00    -0.468 OA
ATOM     56  C   UNL     1       4.470   5.652  -6.678  0.00  0.00    +0.253 C 
ENDBRANCH  49  55
BRANCH  42  57
ATOM     57  C   UNL     1       1.602   8.335  -0.492  0.00  0.00    +0.086 C 
BRANCH  57  61
ATOM     58  C   UNL     1       4.211  10.382   2.028  0.00  0.00    +0.172 A 
ATOM     59  C   UNL     1       4.473   9.045   1.773  0.00  0.00    +0.172 A 
ATOM     60  C   UNL     1       3.558   8.244   1.100  0.00  0.00    +0.036 A 
ATOM     61  C   UNL     1       2.460   8.908   0.566  0.00  0.00    -0.013 A 
ATOM     62  C   UNL     1       1.954   9.930   1.360  0.00  0.00    -0.001 A 
ATOM     63  C   UNL     1       2.873  10.737   2.022  0.00  0.00    +0.040 A 
BRANCH  58  65
ATOM     64  C   UNL     1       5.926  12.082   1.629  0.00  0.00    +0.253 C 
ATOM     65  O   UNL     1       5.173  11.272   2.473  0.00  0.00    -0.468 OA
ENDBRANCH  58  65
BRANCH  59  66
ATOM     66  O   UNL     1       5.799   8.644   1.916  0.00  0.00    -0.468 OA
ATOM     67  C   UNL     1       6.201   7.763   2.949  0.00  0.00    +0.253 C 
ENDBRANCH  59  66
ENDBRANCH  57  61
ENDBRANCH  42  57
ENDBRANCH  41  43
ENDBRANCH  40  41
ENDBRANCH  38  40
ENDBRANCH  37  38
ENDBRANCH  36  37
ENDBRANCH  35  36
ENDBRANCH   1  35
TORSDOF 26
ENDMDL
