MODEL 1
REMARK VINA RESULT:      -6.2      0.000      0.000
REMARK  Name = 
REMARK  3 active torsions:
REMARK  status: ('A' for Active; 'I' for Inactive)
REMARK    1  A    between atoms: N_6  and  C_7
REMARK    2  A    between atoms: C_7  and  C_8
REMARK    3  A    between atoms: C_8  and  C_10
REMARK                            x       y       z     vdW  Elec       q    Type
REMARK                         _______ _______ _______ _____ _____    ______ ____
ROOT
ATOM      1  C   UNL     1       2.296   4.207  -7.942  0.00  0.00    +0.137 C 
ATOM      2  N   UNL     1       2.617   4.843  -8.865  0.00  0.00    -0.263 N 
ATOM      3  C   UNL     1       1.905   4.889 -10.015  0.00  0.00    +0.335 A 
ATOM      4  O   UNL     1       0.771   4.374 -10.052  0.00  0.00    -0.246 OA
ATOM      5  N   UNL     1       2.210   5.701 -11.046  0.00  0.00    -0.245 N 
ATOM      6  C   UNL     1       1.450   5.621 -12.291  0.00  0.00    +0.138 C 
ATOM      7  C   UNL     1       3.490   6.138 -11.133  0.00  0.00    +0.283 A 
ATOM      8  O   UNL     1       3.939   6.566 -12.238  0.00  0.00    -0.265 OA
ATOM      9  C   UNL     1       4.407   5.803 -10.155  0.00  0.00    +0.153 A 
ATOM     10  N   UNL     1       5.738   5.811 -10.149  0.00  0.00    -0.301 N 
ATOM     11  C   UNL     1       6.086   5.486  -8.882  0.00  0.00    +0.180 A 
ATOM     12  N   UNL     1       4.974   5.189  -8.166  0.00  0.00    -0.206 NA
ATOM     13  C   UNL     1       3.897   5.271  -8.981  0.00  0.00    +0.170 A 
ENDROOT
BRANCH  10  14
ATOM     14  C   UNL     1       6.548   5.397 -11.291  0.00  0.00    +0.143 C 
BRANCH  14  15
ATOM     15  C   UNL     1       7.882   6.391 -11.209  0.00  0.00    +0.207 C 
ATOM     16  O   UNL     1       7.063   7.574 -11.742  0.00  0.00    -0.218 OA
BRANCH  15  17
ATOM     17  C   UNL     1       8.380   5.892 -12.716  0.00  0.00    +0.217 C 
ATOM     18  O   UNL     1       7.840   4.662 -12.933  0.00  0.00    -0.218 OA
ENDBRANCH  15  17
ENDBRANCH  14  15
ENDBRANCH  10  14
TORSDOF 3
ENDMDL
MODEL 2
REMARK VINA RESULT:      -6.2      2.202      5.486
REMARK  Name = 
REMARK  3 active torsions:
REMARK  status: ('A' for Active; 'I' for Inactive)
REMARK    1  A    between atoms: N_6  and  C_7
REMARK    2  A    between atoms: C_7  and  C_8
REMARK    3  A    between atoms: C_8  and  C_10
REMARK                            x       y       z     vdW  Elec       q    Type
REMARK                         _______ _______ _______ _____ _____    ______ ____
ROOT
ATOM      1  C   UNL     1       4.032   5.418 -13.921  0.00  0.00    +0.137 C 
ATOM      2  N   UNL     1       4.507   5.589 -12.870  0.00  0.00    -0.263 N 
ATOM      3  C   UNL     1       5.807   5.334 -12.596  0.00  0.00    +0.335 A 
ATOM      4  O   UNL     1       6.588   5.067 -13.530  0.00  0.00    -0.246 OA
ATOM      5  N   UNL     1       6.389   5.628 -11.417  0.00  0.00    -0.245 N 
ATOM      6  C   UNL     1       7.774   5.233 -11.164  0.00  0.00    +0.138 C 
ATOM      7  C   UNL     1       5.578   5.750 -10.338  0.00  0.00    +0.283 A 
ATOM      8  O   UNL     1       6.057   5.640  -9.170  0.00  0.00    -0.265 OA
ATOM      9  C   UNL     1       4.208   5.640 -10.483  0.00  0.00    +0.153 A 
ATOM     10  N   UNL     1       3.241   5.398  -9.601  0.00  0.00    -0.301 N 
ATOM     11  C   UNL     1       2.089   5.512 -10.302  0.00  0.00    +0.180 A 
ATOM     12  N   UNL     1       2.371   5.720 -11.611  0.00  0.00    -0.206 NA
ATOM     13  C   UNL     1       3.714   5.693 -11.777  0.00  0.00    +0.170 A 
ENDROOT
BRANCH  10  14
ATOM     14  C   UNL     1       3.375   4.442  -8.505  0.00  0.00    +0.143 C 
BRANCH  14  15
ATOM     15  C   UNL     1       2.676   5.224  -7.212  0.00  0.00    +0.207 C 
ATOM     16  O   UNL     1       4.023   5.267  -6.479  0.00  0.00    -0.218 OA
BRANCH  15  17
ATOM     17  C   UNL     1       2.217   3.770  -6.547  0.00  0.00    +0.217 C 
ATOM     18  O   UNL     1       1.035   3.975  -5.904  0.00  0.00    -0.218 OA
ENDBRANCH  15  17
ENDBRANCH  14  15
ENDBRANCH  10  14
TORSDOF 3
ENDMDL
MODEL 3
REMARK VINA RESULT:      -6.1      1.817      2.102
REMARK  Name = 
REMARK  3 active torsions:
REMARK  status: ('A' for Active; 'I' for Inactive)
REMARK    1  A    between atoms: N_6  and  C_7
REMARK    2  A    between atoms: C_7  and  C_8
REMARK    3  A    between atoms: C_8  and  C_10
REMARK                            x       y       z     vdW  Elec       q    Type
REMARK                         _______ _______ _______ _____ _____    ______ ____
ROOT
ATOM      1  C   UNL     1       1.000   5.555  -9.373  0.00  0.00    +0.137 C 
ATOM      2  N   UNL     1       1.412   5.687 -10.455  0.00  0.00    -0.263 N 
ATOM      3  C   UNL     1       0.876   5.067 -11.532  0.00  0.00    +0.335 A 
ATOM      4  O   UNL     1      -0.205   4.460 -11.412  0.00  0.00    -0.246 OA
ATOM      5  N   UNL     1       1.278   5.295 -12.797  0.00  0.00    -0.245 N 
ATOM      6  C   UNL     1       0.716   4.514 -13.897  0.00  0.00    +0.138 C 
ATOM      7  C   UNL     1       2.527   5.793 -12.972  0.00  0.00    +0.283 A 
ATOM      8  O   UNL     1       3.106   5.673 -14.093  0.00  0.00    -0.265 OA
ATOM      9  C   UNL     1       3.309   6.106 -11.876  0.00  0.00    +0.153 A 
ATOM     10  N   UNL     1       4.621   6.287 -11.747  0.00  0.00    -0.301 N 
ATOM     11  C   UNL     1       4.798   6.678 -10.465  0.00  0.00    +0.180 A 
ATOM     12  N   UNL     1       3.614   6.633  -9.807  0.00  0.00    -0.206 NA
ATOM     13  C   UNL     1       2.666   6.163 -10.649  0.00  0.00    +0.170 A 
ENDROOT
BRANCH  10  14
ATOM     14  C   UNL     1       5.615   5.471 -12.440  0.00  0.00    +0.143 C 
BRANCH  14  15
ATOM     15  C   UNL     1       6.559   6.591 -13.234  0.00  0.00    +0.207 C 
ATOM     16  O   UNL     1       6.595   5.705 -14.487  0.00  0.00    -0.218 OA
BRANCH  15  17
ATOM     17  C   UNL     1       7.938   5.934 -12.575  0.00  0.00    +0.217 C 
ATOM     18  O   UNL     1       7.772   4.584 -12.552  0.00  0.00    -0.218 OA
ENDBRANCH  15  17
ENDBRANCH  14  15
ENDBRANCH  10  14
TORSDOF 3
ENDMDL
MODEL 4
REMARK VINA RESULT:      -6.1      5.886      9.306
REMARK  Name = 
REMARK  3 active torsions:
REMARK  status: ('A' for Active; 'I' for Inactive)
REMARK    1  A    between atoms: N_6  and  C_7
REMARK    2  A    between atoms: C_7  and  C_8
REMARK    3  A    between atoms: C_8  and  C_10
REMARK                            x       y       z     vdW  Elec       q    Type
REMARK                         _______ _______ _______ _____ _____    ______ ____
ROOT
ATOM      1  C   UNL     1       4.005   5.695  -6.290  0.00  0.00    +0.137 C 
ATOM      2  N   UNL     1       3.512   5.898  -5.253  0.00  0.00    -0.263 N 
ATOM      3  C   UNL     1       3.963   5.352  -4.100  0.00  0.00    +0.335 A 
ATOM      4  O   UNL     1       5.049   4.741  -4.096  0.00  0.00    -0.246 OA
ATOM      5  N   UNL     1       3.467   5.665  -2.886  0.00  0.00    -0.245 N 
ATOM      6  C   UNL     1       3.942   4.959  -1.697  0.00  0.00    +0.138 C 
ATOM      7  C   UNL     1       2.210   6.170  -2.841  0.00  0.00    +0.283 A 
ATOM      8  O   UNL     1       1.547   6.124  -1.762  0.00  0.00    -0.265 OA
ATOM      9  C   UNL     1       1.515   6.407  -4.012  0.00  0.00    +0.153 A 
ATOM     10  N   UNL     1       0.217   6.577  -4.251  0.00  0.00    -0.301 N 
ATOM     11  C   UNL     1       0.138   6.881  -5.567  0.00  0.00    +0.180 A 
ATOM     12  N   UNL     1       1.368   6.794  -6.129  0.00  0.00    -0.206 NA
ATOM     13  C   UNL     1       2.249   6.384  -5.187  0.00  0.00    +0.170 A 
ENDROOT
BRANCH  10  14
ATOM     14  C   UNL     1      -0.830   5.807  -3.583  0.00  0.00    +0.143 C 
BRANCH  14  15
ATOM     15  C   UNL     1      -2.240   6.526  -4.101  0.00  0.00    +0.207 C 
ATOM     16  O   UNL     1      -2.265   7.426  -2.859  0.00  0.00    -0.218 OA
BRANCH  15  17
ATOM     17  C   UNL     1      -3.144   5.318  -3.401  0.00  0.00    +0.217 C 
ATOM     18  O   UNL     1      -2.435   4.844  -2.341  0.00  0.00    -0.218 OA
ENDBRANCH  15  17
ENDBRANCH  14  15
ENDBRANCH  10  14
TORSDOF 3
ENDMDL
MODEL 5
REMARK VINA RESULT:      -6.1      5.737      8.030
REMARK  Name = 
REMARK  3 active torsions:
REMARK  status: ('A' for Active; 'I' for Inactive)
REMARK    1  A    between atoms: N_6  and  C_7
REMARK    2  A    between atoms: C_7  and  C_8
REMARK    3  A    between atoms: C_8  and  C_10
REMARK                            x       y       z     vdW  Elec       q    Type
REMARK                         _______ _______ _______ _____ _____    ______ ____
ROOT
ATOM      1  C   UNL     1      -3.351   5.533  -3.266  0.00  0.00    +0.137 C 
ATOM      2  N   UNL     1      -2.198   5.383  -3.341  0.00  0.00    -0.263 N 
ATOM      3  C   UNL     1      -1.363   5.525  -2.286  0.00  0.00    +0.335 A 
ATOM      4  O   UNL     1      -1.840   5.654  -1.142  0.00  0.00    -0.246 OA
ATOM      5  N   UNL     1      -0.045   5.251  -2.339  0.00  0.00    -0.245 N 
ATOM      6  C   UNL     1       0.808   5.523  -1.182  0.00  0.00    +0.138 C 
ATOM      7  C   UNL     1       0.546   5.278  -3.558  0.00  0.00    +0.283 A 
ATOM      8  O   UNL     1       1.803   5.415  -3.650  0.00  0.00    -0.265 OA
ATOM      9  C   UNL     1      -0.210   5.514  -4.691  0.00  0.00    +0.153 A 
ATOM     10  N   UNL     1       0.130   5.906  -5.916  0.00  0.00    -0.301 N 
ATOM     11  C   UNL     1      -1.017   5.862  -6.631  0.00  0.00    +0.180 A 
ATOM     12  N   UNL     1      -2.051   5.545  -5.814  0.00  0.00    -0.206 NA
ATOM     13  C   UNL     1      -1.586   5.428  -4.549  0.00  0.00    +0.170 A 
ENDROOT
BRANCH  10  14
ATOM     14  C   UNL     1       1.156   6.912  -6.181  0.00  0.00    +0.143 C 
BRANCH  14  15
ATOM     15  C   UNL     1       2.287   6.093  -7.089  0.00  0.00    +0.207 C 
ATOM     16  O   UNL     1       3.419   6.923  -6.471  0.00  0.00    -0.218 OA
BRANCH  15  17
ATOM     17  C   UNL     1       2.051   7.131  -8.368  0.00  0.00    +0.217 C 
ATOM     18  O   UNL     1       2.123   8.398  -7.878  0.00  0.00    -0.218 OA
ENDBRANCH  15  17
ENDBRANCH  14  15
ENDBRANCH  10  14
TORSDOF 3
ENDMDL
MODEL 6
REMARK VINA RESULT:      -6.0      5.130      7.284
REMARK  Name = 
REMARK  3 active torsions:
REMARK  status: ('A' for Active; 'I' for Inactive)
REMARK    1  A    between atoms: N_6  and  C_7
REMARK    2  A    between atoms: C_7  and  C_8
REMARK    3  A    between atoms: C_8  and  C_10
REMARK                            x       y       z     vdW  Elec       q    Type
REMARK                         _______ _______ _______ _____ _____    ______ ____
ROOT
ATOM      1  C   UNL     1       0.539   5.315  -1.121  0.00  0.00    +0.137 C 
ATOM      2  N   UNL     1       0.126   5.511  -2.193  0.00  0.00    -0.263 N 
ATOM      3  C   UNL     1      -1.166   5.299  -2.538  0.00  0.00    +0.335 A 
ATOM      4  O   UNL     1      -2.003   5.048  -1.650  0.00  0.00    -0.246 OA
ATOM      5  N   UNL     1      -1.675   5.623  -3.743  0.00  0.00    -0.245 N 
ATOM      6  C   UNL     1      -3.056   5.274  -4.073  0.00  0.00    +0.138 C 
ATOM      7  C   UNL     1      -0.805   5.730  -4.776  0.00  0.00    +0.283 A 
ATOM      8  O   UNL     1      -1.224   5.646  -5.969  0.00  0.00    -0.265 OA
ATOM      9  C   UNL     1       0.552   5.575  -4.561  0.00  0.00    +0.153 A 
ATOM     10  N   UNL     1       1.556   5.311  -5.393  0.00  0.00    -0.301 N 
ATOM     11  C   UNL     1       2.672   5.382  -4.632  0.00  0.00    +0.180 A 
ATOM     12  N   UNL     1       2.328   5.586  -3.337  0.00  0.00    -0.206 NA
ATOM     13  C   UNL     1       0.978   5.600  -3.242  0.00  0.00    +0.170 A 
ENDROOT
BRANCH  10  14
ATOM     14  C   UNL     1       1.450   4.370  -6.505  0.00  0.00    +0.143 C 
BRANCH  14  15
ATOM     15  C   UNL     1       2.130   5.194  -7.784  0.00  0.00    +0.207 C 
ATOM     16  O   UNL     1       0.792   5.180  -8.534  0.00  0.00    -0.218 OA
BRANCH  15  17
ATOM     17  C   UNL     1       2.664   3.767  -8.453  0.00  0.00    +0.217 C 
ATOM     18  O   UNL     1       3.851   4.027  -9.066  0.00  0.00    -0.218 OA
ENDBRANCH  15  17
ENDBRANCH  14  15
ENDBRANCH  10  14
TORSDOF 3
ENDMDL
MODEL 7
REMARK VINA RESULT:      -6.0      6.209      9.372
REMARK  Name = 
REMARK  3 active torsions:
REMARK  status: ('A' for Active; 'I' for Inactive)
REMARK    1  A    between atoms: N_6  and  C_7
REMARK    2  A    between atoms: C_7  and  C_8
REMARK    3  A    between atoms: C_8  and  C_10
REMARK                            x       y       z     vdW  Elec       q    Type
REMARK                         _______ _______ _______ _____ _____    ______ ____
ROOT
ATOM      1  C   UNL     1       3.939   8.007  -2.318  0.00  0.00    +0.137 C 
ATOM      2  N   UNL     1       3.449   7.176  -2.972  0.00  0.00    -0.263 N 
ATOM      3  C   UNL     1       3.623   7.091  -4.311  0.00  0.00    +0.335 A 
ATOM      4  O   UNL     1       4.471   7.817  -4.865  0.00  0.00    -0.246 OA
ATOM      5  N   UNL     1       3.148   6.076  -5.059  0.00  0.00    -0.245 N 
ATOM      6  C   UNL     1       3.294   6.106  -6.513  0.00  0.00    +0.138 C 
ATOM      7  C   UNL     1       2.101   5.375  -4.561  0.00  0.00    +0.283 A 
ATOM      8  O   UNL     1       1.372   4.688  -5.336  0.00  0.00    -0.265 OA
ATOM      9  C   UNL     1       1.604   5.668  -3.304  0.00  0.00    +0.153 A 
ATOM     10  N   UNL     1       0.440   5.385  -2.725  0.00  0.00    -0.301 N 
ATOM     11  C   UNL     1       0.561   5.834  -1.454  0.00  0.00    +0.180 A 
ATOM     12  N   UNL     1       1.749   6.468  -1.307  0.00  0.00    -0.206 NA
ATOM     13  C   UNL     1       2.389   6.479  -2.499  0.00  0.00    +0.170 A 
ENDROOT
BRANCH  10  14
ATOM     14  C   UNL     1      -0.838   5.429  -3.430  0.00  0.00    +0.143 C 
BRANCH  14  15
ATOM     15  C   UNL     1      -1.914   5.939  -2.265  0.00  0.00    +0.207 C 
ATOM     16  O   UNL     1      -2.787   4.699  -2.495  0.00  0.00    -0.218 OA
BRANCH  15  17
ATOM     17  C   UNL     1      -2.722   6.872  -3.381  0.00  0.00    +0.217 C 
ATOM     18  O   UNL     1      -2.034   8.039  -3.506  0.00  0.00    -0.218 OA
ENDBRANCH  15  17
ENDBRANCH  14  15
ENDBRANCH  10  14
TORSDOF 3
ENDMDL
MODEL 8
REMARK VINA RESULT:      -5.9      5.214      8.627
REMARK  Name = 
REMARK  3 active torsions:
REMARK  status: ('A' for Active; 'I' for Inactive)
REMARK    1  A    between atoms: N_6  and  C_7
REMARK    2  A    between atoms: C_7  and  C_8
REMARK    3  A    between atoms: C_8  and  C_10
REMARK                            x       y       z     vdW  Elec       q    Type
REMARK                         _______ _______ _______ _____ _____    ______ ____
ROOT
ATOM      1  C   UNL     1       4.260   6.048  -5.249  0.00  0.00    +0.137 C 
ATOM      2  N   UNL     1       3.188   5.659  -5.492  0.00  0.00    -0.263 N 
ATOM      3  C   UNL     1       2.617   5.780  -6.713  0.00  0.00    +0.335 A 
ATOM      4  O   UNL     1       3.308   6.165  -7.676  0.00  0.00    -0.246 OA
ATOM      5  N   UNL     1       1.424   5.241  -7.032  0.00  0.00    -0.245 N 
ATOM      6  C   UNL     1       0.831   5.498  -8.343  0.00  0.00    +0.138 C 
ATOM      7  C   UNL     1       0.572   4.973  -6.013  0.00  0.00    +0.283 A 
ATOM      8  O   UNL     1      -0.668   4.839  -6.242  0.00  0.00    -0.265 OA
ATOM      9  C   UNL     1       0.962   5.192  -4.705  0.00  0.00    +0.153 A 
ATOM     10  N   UNL     1       0.260   5.327  -3.583  0.00  0.00    -0.301 N 
ATOM     11  C   UNL     1       1.184   5.414  -2.598  0.00  0.00    +0.180 A 
ATOM     12  N   UNL     1       2.427   5.432  -3.140  0.00  0.00    -0.206 NA
ATOM     13  C   UNL     1       2.314   5.406  -4.488  0.00  0.00    +0.170 A 
ENDROOT
BRANCH  10  14
ATOM     14  C   UNL     1      -1.002   6.057  -3.509  0.00  0.00    +0.143 C 
BRANCH  14  15
ATOM     15  C   UNL     1      -1.643   5.590  -2.044  0.00  0.00    +0.207 C 
ATOM     16  O   UNL     1      -2.696   4.728  -2.753  0.00  0.00    -0.218 OA
BRANCH  15  17
ATOM     17  C   UNL     1      -2.602   6.949  -2.000  0.00  0.00    +0.217 C 
ATOM     18  O   UNL     1      -2.170   7.781  -2.987  0.00  0.00    -0.218 OA
ENDBRANCH  15  17
ENDBRANCH  14  15
ENDBRANCH  10  14
TORSDOF 3
ENDMDL
MODEL 9
REMARK VINA RESULT:      -5.9      2.178      5.075
REMARK  Name = 
REMARK  3 active torsions:
REMARK  status: ('A' for Active; 'I' for Inactive)
REMARK    1  A    between atoms: N_6  and  C_7
REMARK    2  A    between atoms: C_7  and  C_8
REMARK    3  A    between atoms: C_8  and  C_10
REMARK                            x       y       z     vdW  Elec       q    Type
REMARK                         _______ _______ _______ _____ _____    ______ ____
ROOT
ATOM      1  C   UNL     1       8.568   5.738 -11.781  0.00  0.00    +0.137 C 
ATOM      2  N   UNL     1       7.416   5.604 -11.897  0.00  0.00    -0.263 N 
ATOM      3  C   UNL     1       6.749   5.892 -13.038  0.00  0.00    +0.335 A 
ATOM      4  O   UNL     1       7.392   6.151 -14.073  0.00  0.00    -0.246 OA
ATOM      5  N   UNL     1       5.437   5.640 -13.216  0.00  0.00    -0.245 N 
ATOM      6  C   UNL     1       4.768   6.069 -14.442  0.00  0.00    +0.138 C 
ATOM      7  C   UNL     1       4.670   5.529 -12.104  0.00  0.00    +0.283 A 
ATOM      8  O   UNL     1       3.414   5.678 -12.182  0.00  0.00    -0.265 OA
ATOM      9  C   UNL     1       5.249   5.608 -10.851  0.00  0.00    +0.153 A 
ATOM     10  N   UNL     1       4.730   5.852  -9.650  0.00  0.00    -0.301 N 
ATOM     11  C   UNL     1       5.758   5.697  -8.784  0.00  0.00    +0.180 A 
ATOM     12  N   UNL     1       6.901   5.462  -9.472  0.00  0.00    -0.206 NA
ATOM     13  C   UNL     1       6.631   5.511 -10.797  0.00  0.00    +0.170 A 
ENDROOT
BRANCH  10  14
ATOM     14  C   UNL     1       3.678   6.839  -9.416  0.00  0.00    +0.143 C 
BRANCH  14  15
ATOM     15  C   UNL     1       2.560   6.012  -8.499  0.00  0.00    +0.207 C 
ATOM     16  O   UNL     1       1.408   6.657  -9.281  0.00  0.00    -0.218 OA
BRANCH  15  17
ATOM     17  C   UNL     1       2.600   7.199  -7.333  0.00  0.00    +0.217 C 
ATOM     18  O   UNL     1       2.139   8.344  -7.905  0.00  0.00    -0.218 OA
ENDBRANCH  15  17
ENDBRANCH  14  15
ENDBRANCH  10  14
TORSDOF 3
ENDMDL
