MODEL 1
REMARK VINA RESULT:      -7.5      0.000      0.000
REMARK  Name = 
REMARK  3 active torsions:
REMARK  status: ('A' for Active; 'I' for Inactive)
REMARK    1  A    between atoms: C_8  and  C_9
REMARK    2  A    between atoms: C_9  and  O_10
REMARK    3  A    between atoms: O_10  and  S_11
REMARK                            x       y       z     vdW  Elec       q    Type
REMARK                         _______ _______ _______ _____ _____    ______ ____
ROOT
ATOM      1  C   UNL     1       2.781   7.246  -8.445  0.00  0.00    +0.061 C 
ATOM      2  C   UNL     1       3.100   5.984  -8.218  0.00  0.00    +0.187 C 
ATOM      3  O   UNL     1       4.040   5.729  -7.298  0.00  0.00    -0.332 OA
ATOM      4  C   UNL     1       3.339   5.078  -6.159  0.00  0.00    +0.179 C 
ATOM      5  C   UNL     1       2.344   4.122  -7.187  0.00  0.00    +0.177 C 
ATOM      6  C   UNL     1       0.983   4.336  -6.298  0.00  0.00    +0.177 C 
ATOM      7  O   UNL     1       1.261   4.539  -5.016  0.00  0.00    -0.328 OA
ATOM      8  C   UNL     1       1.660   5.784  -4.589  0.00  0.00    +0.247 C 
ATOM      9  O   UNL     1       2.807   5.565  -3.903  0.00  0.00    -0.310 OA
ATOM     10  C   UNL     1       3.559   6.652  -4.208  0.00  0.00    +0.190 C 
ATOM     11  O   UNL     1       3.225   7.237  -5.351  0.00  0.00    -0.329 OA
ATOM     12  C   UNL     1       3.380   7.609  -3.029  0.00  0.00    +0.061 C 
ATOM     13  C   UNL     1       5.027   6.274  -4.117  0.00  0.00    +0.061 C 
ATOM     14  C   UNL     1       2.207   6.357  -6.022  0.00  0.00    +0.201 C 
ATOM     15  O   UNL     1       1.967   5.296  -8.059  0.00  0.00    -0.332 OA
ATOM     16  C   UNL     1       3.726   5.525  -9.535  0.00  0.00    +0.061 C 
ENDROOT
BRANCH   8  17
ATOM     17  C   UNL     1       0.663   6.699  -4.056  0.00  0.00    +0.234 C 
BRANCH  17  18
ATOM     18  O   UNL     1      -0.134   6.051  -3.129  0.00  0.00    -0.204 OA
BRANCH  18  19
ATOM     19  S   UNL     1      -1.755   6.044  -3.495  0.00  0.00    +0.187 S 
ATOM     20  O   UNL     1      -2.294   7.413  -3.141  0.00  0.00    -0.127 OA
ATOM     21  O   UNL     1      -2.040   5.685  -4.918  0.00  0.00    -0.127 OA
ATOM     22  N   UNL     1      -2.567   4.894  -2.475  0.00  0.00    +0.063 NA
ENDBRANCH  18  19
ENDBRANCH  17  18
ENDBRANCH   8  17
TORSDOF 3
ENDMDL
MODEL 2
REMARK VINA RESULT:      -7.1      4.997      7.656
REMARK  Name = 
REMARK  3 active torsions:
REMARK  status: ('A' for Active; 'I' for Inactive)
REMARK    1  A    between atoms: C_8  and  C_9
REMARK    2  A    between atoms: C_9  and  O_10
REMARK    3  A    between atoms: O_10  and  S_11
REMARK                            x       y       z     vdW  Elec       q    Type
REMARK                         _______ _______ _______ _____ _____    ______ ____
ROOT
ATOM      1  C   UNL     1       1.746   7.621  -7.186  0.00  0.00    +0.061 C 
ATOM      2  C   UNL     1       1.669   6.303  -7.126  0.00  0.00    +0.187 C 
ATOM      3  O   UNL     1       0.853   5.682  -7.988  0.00  0.00    -0.332 OA
ATOM      4  C   UNL     1       1.733   4.937  -8.928  0.00  0.00    +0.179 C 
ATOM      5  C   UNL     1       2.807   4.433  -7.682  0.00  0.00    +0.177 C 
ATOM      6  C   UNL     1       4.167   4.695  -8.559  0.00  0.00    +0.177 C 
ATOM      7  O   UNL     1       3.946   4.554  -9.860  0.00  0.00    -0.328 OA
ATOM      8  C   UNL     1       3.366   5.578 -10.572  0.00  0.00    +0.247 C 
ATOM      9  O   UNL     1       2.325   5.004 -11.221  0.00  0.00    -0.310 OA
ATOM     10  C   UNL     1       1.376   5.972 -11.194  0.00  0.00    +0.190 C 
ATOM     11  O   UNL     1       1.523   6.846 -10.207  0.00  0.00    -0.329 OA
ATOM     12  C   UNL     1       1.464   6.661 -12.555  0.00  0.00    +0.061 C 
ATOM     13  C   UNL     1       0.005   5.318 -11.235  0.00  0.00    +0.061 C 
ATOM     14  C   UNL     1       2.631   6.341  -9.324  0.00  0.00    +0.201 C 
ATOM     15  O   UNL     1       2.913   5.819  -7.092  0.00  0.00    -0.332 OA
ATOM     16  C   UNL     1       1.044   6.038  -5.756  0.00  0.00    +0.061 C 
ENDROOT
BRANCH   8  17
ATOM     17  C   UNL     1       4.222   6.521 -11.274  0.00  0.00    +0.234 C 
BRANCH  17  18
ATOM     18  O   UNL     1       5.509   6.023 -11.365  0.00  0.00    -0.204 OA
BRANCH  18  19
ATOM     19  S   UNL     1       5.985   5.611 -12.903  0.00  0.00    +0.187 S 
ATOM     20  O   UNL     1       4.946   4.654 -13.446  0.00  0.00    -0.127 OA
ATOM     21  O   UNL     1       6.177   6.791 -13.800  0.00  0.00    -0.127 OA
ATOM     22  N   UNL     1       7.489   4.742 -12.823  0.00  0.00    +0.063 NA
ENDBRANCH  18  19
ENDBRANCH  17  18
ENDBRANCH   8  17
TORSDOF 3
ENDMDL
MODEL 3
REMARK VINA RESULT:      -6.9      2.621      4.203
REMARK  Name = 
REMARK  3 active torsions:
REMARK  status: ('A' for Active; 'I' for Inactive)
REMARK    1  A    between atoms: C_8  and  C_9
REMARK    2  A    between atoms: C_9  and  O_10
REMARK    3  A    between atoms: O_10  and  S_11
REMARK                            x       y       z     vdW  Elec       q    Type
REMARK                         _______ _______ _______ _____ _____    ______ ____
ROOT
ATOM      1  C   UNL     1       2.177   3.881  -7.209  0.00  0.00    +0.061 C 
ATOM      2  C   UNL     1       2.268   5.187  -7.395  0.00  0.00    +0.187 C 
ATOM      3  O   UNL     1       1.139   5.907  -7.350  0.00  0.00    -0.332 OA
ATOM      4  C   UNL     1       1.224   6.734  -6.116  0.00  0.00    +0.179 C 
ATOM      5  C   UNL     1       2.892   7.088  -6.347  0.00  0.00    +0.177 C 
ATOM      6  C   UNL     1       3.292   6.900  -4.768  0.00  0.00    +0.177 C 
ATOM      7  O   UNL     1       2.271   7.180  -3.967  0.00  0.00    -0.328 OA
ATOM      8  C   UNL     1       1.283   6.245  -3.763  0.00  0.00    +0.247 C 
ATOM      9  O   UNL     1       0.126   6.900  -4.024  0.00  0.00    -0.310 OA
ATOM     10  C   UNL     1      -0.637   5.948  -4.616  0.00  0.00    +0.190 C 
ATOM     11  O   UNL     1       0.059   4.973  -5.185  0.00  0.00    -0.329 OA
ATOM     12  C   UNL     1      -1.537   5.405  -3.506  0.00  0.00    +0.061 C 
ATOM     13  C   UNL     1      -1.626   6.623  -5.552  0.00  0.00    +0.061 C 
ATOM     14  C   UNL     1       1.509   5.366  -5.125  0.00  0.00    +0.201 C 
ATOM     15  O   UNL     1       3.251   5.646  -6.616  0.00  0.00    -0.332 OA
ATOM     16  C   UNL     1       2.742   5.316  -8.842  0.00  0.00    +0.061 C 
ENDROOT
BRANCH   8  17
ATOM     17  C   UNL     1       1.370   5.368  -2.605  0.00  0.00    +0.234 C 
BRANCH  17  18
ATOM     18  O   UNL     1       2.123   5.964  -1.610  0.00  0.00    -0.204 OA
BRANCH  18  19
ATOM     19  S   UNL     1       3.474   5.108  -1.157  0.00  0.00    +0.187 S 
ATOM     20  O   UNL     1       2.989   3.838  -0.491  0.00  0.00    -0.127 OA
ATOM     21  O   UNL     1       4.402   4.822  -2.293  0.00  0.00    -0.127 OA
ATOM     22  N   UNL     1       4.349   6.013   0.042  0.00  0.00    +0.063 NA
ENDBRANCH  18  19
ENDBRANCH  17  18
ENDBRANCH   8  17
TORSDOF 3
ENDMDL
MODEL 4
REMARK VINA RESULT:      -6.6      2.853      5.574
REMARK  Name = 
REMARK  3 active torsions:
REMARK  status: ('A' for Active; 'I' for Inactive)
REMARK    1  A    between atoms: C_8  and  C_9
REMARK    2  A    between atoms: C_9  and  O_10
REMARK    3  A    between atoms: O_10  and  S_11
REMARK                            x       y       z     vdW  Elec       q    Type
REMARK                         _______ _______ _______ _____ _____    ______ ____
ROOT
ATOM      1  C   UNL     1      -1.946   8.244  -3.975  0.00  0.00    +0.061 C 
ATOM      2  C   UNL     1      -1.989   6.953  -3.692  0.00  0.00    +0.187 C 
ATOM      3  O   UNL     1      -2.013   6.087  -4.714  0.00  0.00    -0.332 OA
ATOM      4  C   UNL     1      -0.702   5.384  -4.692  0.00  0.00    +0.179 C 
ATOM      5  C   UNL     1      -0.689   5.251  -2.977  0.00  0.00    +0.177 C 
ATOM      6  C   UNL     1       0.901   5.622  -2.823  0.00  0.00    +0.177 C 
ATOM      7  O   UNL     1       1.593   5.267  -3.898  0.00  0.00    -0.328 OA
ATOM      8  C   UNL     1       1.581   6.067  -5.017  0.00  0.00    +0.247 C 
ATOM      9  O   UNL     1       1.245   5.237  -6.034  0.00  0.00    -0.310 OA
ATOM     10  C   UNL     1       0.471   6.019  -6.826  0.00  0.00    +0.190 C 
ATOM     11  O   UNL     1      -0.101   7.034  -6.190  0.00  0.00    -0.329 OA
ATOM     12  C   UNL     1       1.402   6.520  -7.931  0.00  0.00    +0.061 C 
ATOM     13  C   UNL     1      -0.508   5.138  -7.582  0.00  0.00    +0.061 C 
ATOM     14  C   UNL     1       0.176   6.855  -4.723  0.00  0.00    +0.201 C 
ATOM     15  O   UNL     1      -1.053   6.702  -2.774  0.00  0.00    -0.332 OA
ATOM     16  C   UNL     1      -3.347   6.775  -3.014  0.00  0.00    +0.061 C 
ENDROOT
BRANCH   8  17
ATOM     17  C   UNL     1       2.647   7.039  -5.202  0.00  0.00    +0.234 C 
BRANCH  17  18
ATOM     18  O   UNL     1       3.880   6.432  -5.041  0.00  0.00    -0.204 OA
BRANCH  18  19
ATOM     19  S   UNL     1       4.672   6.836  -3.637  0.00  0.00    +0.187 S 
ATOM     20  O   UNL     1       4.637   5.616  -2.742  0.00  0.00    -0.127 OA
ATOM     21  O   UNL     1       6.068   7.320  -3.863  0.00  0.00    -0.127 OA
ATOM     22  N   UNL     1       3.790   8.094  -2.823  0.00  0.00    +0.063 NA
ENDBRANCH  18  19
ENDBRANCH  17  18
ENDBRANCH   8  17
TORSDOF 3
ENDMDL
MODEL 5
REMARK VINA RESULT:      -6.5      1.601      1.720
REMARK  Name = 
REMARK  3 active torsions:
REMARK  status: ('A' for Active; 'I' for Inactive)
REMARK    1  A    between atoms: C_8  and  C_9
REMARK    2  A    between atoms: C_9  and  O_10
REMARK    3  A    between atoms: O_10  and  S_11
REMARK                            x       y       z     vdW  Elec       q    Type
REMARK                         _______ _______ _______ _____ _____    ______ ____
ROOT
ATOM      1  C   UNL     1       3.667   7.148  -6.822  0.00  0.00    +0.061 C 
ATOM      2  C   UNL     1       3.568   5.831  -6.771  0.00  0.00    +0.187 C 
ATOM      3  O   UNL     1       3.922   5.218  -5.634  0.00  0.00    -0.332 OA
ATOM      4  C   UNL     1       2.666   4.684  -5.042  0.00  0.00    +0.179 C 
ATOM      5  C   UNL     1       2.047   4.174  -6.564  0.00  0.00    +0.177 C 
ATOM      6  C   UNL     1       0.516   4.683  -6.267  0.00  0.00    +0.177 C 
ATOM      7  O   UNL     1       0.236   4.659  -4.970  0.00  0.00    -0.328 OA
ATOM      8  C   UNL     1       0.665   5.681  -4.156  0.00  0.00    +0.247 C 
ATOM      9  O   UNL     1       1.311   5.066  -3.137  0.00  0.00    -0.310 OA
ATOM     10  C   UNL     1       2.337   5.911  -2.870  0.00  0.00    +0.190 C 
ATOM     11  O   UNL     1       2.681   6.685  -3.891  0.00  0.00    -0.329 OA
ATOM     12  C   UNL     1       1.870   6.749  -1.680  0.00  0.00    +0.061 C 
ATOM     13  C   UNL     1       3.492   5.113  -2.288  0.00  0.00    +0.061 C 
ATOM     14  C   UNL     1       1.901   6.216  -5.088  0.00  0.00    +0.201 C 
ATOM     15  O   UNL     1       2.361   5.491  -7.232  0.00  0.00    -0.332 OA
ATOM     16  C   UNL     1       4.595   5.349  -7.796  0.00  0.00    +0.061 C 
ENDROOT
BRANCH   8  17
ATOM     17  C   UNL     1      -0.238   6.787  -3.876  0.00  0.00    +0.234 C 
BRANCH  17  18
ATOM     18  O   UNL     1      -1.551   6.381  -4.027  0.00  0.00    -0.204 OA
BRANCH  18  19
ATOM     19  S   UNL     1      -2.376   6.159  -2.601  0.00  0.00    +0.187 S 
ATOM     20  O   UNL     1      -3.800   6.612  -2.838  0.00  0.00    -0.127 OA
ATOM     21  O   UNL     1      -2.316   4.753  -2.097  0.00  0.00    -0.127 OA
ATOM     22  N   UNL     1      -1.702   7.199  -1.382  0.00  0.00    +0.063 NA
ENDBRANCH  18  19
ENDBRANCH  17  18
ENDBRANCH   8  17
TORSDOF 3
ENDMDL
MODEL 6
REMARK VINA RESULT:      -6.3      2.891      4.996
REMARK  Name = 
REMARK  3 active torsions:
REMARK  status: ('A' for Active; 'I' for Inactive)
REMARK    1  A    between atoms: C_8  and  C_9
REMARK    2  A    between atoms: C_9  and  O_10
REMARK    3  A    between atoms: O_10  and  S_11
REMARK                            x       y       z     vdW  Elec       q    Type
REMARK                         _______ _______ _______ _____ _____    ______ ____
ROOT
ATOM      1  C   UNL     1      -1.233   7.994  -4.852  0.00  0.00    +0.061 C 
ATOM      2  C   UNL     1      -1.369   6.715  -4.545  0.00  0.00    +0.187 C 
ATOM      3  O   UNL     1      -0.747   5.815  -5.319  0.00  0.00    -0.332 OA
ATOM      4  C   UNL     1       0.337   5.229  -4.485  0.00  0.00    +0.179 C 
ATOM      5  C   UNL     1      -0.649   5.158  -3.077  0.00  0.00    +0.177 C 
ATOM      6  C   UNL     1       0.530   5.669  -2.058  0.00  0.00    +0.177 C 
ATOM      7  O   UNL     1       1.737   5.338  -2.500  0.00  0.00    -0.328 OA
ATOM      8  C   UNL     1       2.341   6.095  -3.477  0.00  0.00    +0.247 C 
ATOM      9  O   UNL     1       2.704   5.204  -4.431  0.00  0.00    -0.310 OA
ATOM     10  C   UNL     1       2.502   5.889  -5.583  0.00  0.00    +0.190 C 
ATOM     11  O   UNL     1       1.616   6.872  -5.480  0.00  0.00    -0.329 OA
ATOM     12  C   UNL     1       3.877   6.429  -5.978  0.00  0.00    +0.061 C 
ATOM     13  C   UNL     1       2.196   4.900  -6.695  0.00  0.00    +0.061 C 
ATOM     14  C   UNL     1       0.992   6.769  -4.116  0.00  0.00    +0.201 C 
ATOM     15  O   UNL     1      -1.135   6.578  -3.238  0.00  0.00    -0.332 OA
ATOM     16  C   UNL     1      -2.856   6.443  -4.770  0.00  0.00    +0.061 C 
ENDROOT
BRANCH   8  17
ATOM     17  C   UNL     1       3.264   7.149  -3.084  0.00  0.00    +0.234 C 
BRANCH  17  18
ATOM     18  O   UNL     1       4.336   6.613  -2.395  0.00  0.00    -0.204 OA
BRANCH  18  19
ATOM     19  S   UNL     1       4.259   6.794  -0.745  0.00  0.00    +0.187 S 
ATOM     20  O   UNL     1       3.943   5.432  -0.164  0.00  0.00    -0.127 OA
ATOM     21  O   UNL     1       5.504   7.375  -0.155  0.00  0.00    -0.127 OA
ATOM     22  N   UNL     1       2.931   7.842  -0.346  0.00  0.00    +0.063 NA
ENDBRANCH  18  19
ENDBRANCH  17  18
ENDBRANCH   8  17
TORSDOF 3
ENDMDL
MODEL 7
REMARK VINA RESULT:      -6.2      4.253      6.481
REMARK  Name = 
REMARK  3 active torsions:
REMARK  status: ('A' for Active; 'I' for Inactive)
REMARK    1  A    between atoms: C_8  and  C_9
REMARK    2  A    between atoms: C_9  and  O_10
REMARK    3  A    between atoms: O_10  and  S_11
REMARK                            x       y       z     vdW  Elec       q    Type
REMARK                         _______ _______ _______ _____ _____    ______ ____
ROOT
ATOM      1  C   UNL     1       2.472   3.687  -6.401  0.00  0.00    +0.061 C 
ATOM      2  C   UNL     1       2.903   4.889  -6.061  0.00  0.00    +0.187 C 
ATOM      3  O   UNL     1       4.092   5.287  -6.534  0.00  0.00    -0.332 OA
ATOM      4  C   UNL     1       3.807   6.378  -7.505  0.00  0.00    +0.179 C 
ATOM      5  C   UNL     1       2.590   7.079  -6.513  0.00  0.00    +0.177 C 
ATOM      6  C   UNL     1       1.560   7.383  -7.752  0.00  0.00    +0.177 C 
ATOM      7  O   UNL     1       2.210   7.576  -8.893  0.00  0.00    -0.328 OA
ATOM      8  C   UNL     1       2.662   6.497  -9.616  0.00  0.00    +0.247 C 
ATOM      9  O   UNL     1       3.974   6.752  -9.838  0.00  0.00    -0.310 OA
ATOM     10  C   UNL     1       4.544   5.525  -9.755  0.00  0.00    +0.190 C 
ATOM     11  O   UNL     1       3.847   4.652  -9.038  0.00  0.00    -0.329 OA
ATOM     12  C   UNL     1       4.693   5.051 -11.201  0.00  0.00    +0.061 C 
ATOM     13  C   UNL     1       5.985   5.682  -9.301  0.00  0.00    +0.061 C 
ATOM     14  C   UNL     1       2.714   5.405  -8.397  0.00  0.00    +0.201 C 
ATOM     15  O   UNL     1       1.908   5.756  -6.262  0.00  0.00    -0.332 OA
ATOM     16  C   UNL     1       3.114   4.785  -4.550  0.00  0.00    +0.061 C 
ENDROOT
BRANCH   8  17
ATOM     17  C   UNL     1       1.837   5.974 -10.694  0.00  0.00    +0.234 C 
BRANCH  17  18
ATOM     18  O   UNL     1       1.940   6.783 -11.811  0.00  0.00    -0.204 OA
BRANCH  18  19
ATOM     19  S   UNL     1       1.289   6.136 -13.197  0.00  0.00    +0.187 S 
ATOM     20  O   UNL     1       0.600   4.848 -12.802  0.00  0.00    -0.127 OA
ATOM     21  O   UNL     1       0.362   7.069 -13.906  0.00  0.00    -0.127 OA
ATOM     22  N   UNL     1       2.574   5.716 -14.290  0.00  0.00    +0.063 NA
ENDBRANCH  18  19
ENDBRANCH  17  18
ENDBRANCH   8  17
TORSDOF 3
ENDMDL
MODEL 8
REMARK VINA RESULT:      -5.9      3.353      5.808
REMARK  Name = 
REMARK  3 active torsions:
REMARK  status: ('A' for Active; 'I' for Inactive)
REMARK    1  A    between atoms: C_8  and  C_9
REMARK    2  A    between atoms: C_9  and  O_10
REMARK    3  A    between atoms: O_10  and  S_11
REMARK                            x       y       z     vdW  Elec       q    Type
REMARK                         _______ _______ _______ _____ _____    ______ ____
ROOT
ATOM      1  C   UNL     1      -2.957   4.775  -3.041  0.00  0.00    +0.061 C 
ATOM      2  C   UNL     1      -2.785   6.086  -3.019  0.00  0.00    +0.187 C 
ATOM      3  O   UNL     1      -1.994   6.598  -2.066  0.00  0.00    -0.332 OA
ATOM      4  C   UNL     1      -0.781   7.106  -2.763  0.00  0.00    +0.179 C 
ATOM      5  C   UNL     1      -1.684   7.748  -4.079  0.00  0.00    +0.177 C 
ATOM      6  C   UNL     1      -0.627   7.246  -5.228  0.00  0.00    +0.177 C 
ATOM      7  O   UNL     1       0.611   7.170  -4.756  0.00  0.00    -0.328 OA
ATOM      8  C   UNL     1       0.996   6.077  -4.014  0.00  0.00    +0.247 C 
ATOM      9  O   UNL     1       1.529   6.596  -2.882  0.00  0.00    -0.310 OA
ATOM     10  C   UNL     1       1.141   5.713  -1.929  0.00  0.00    +0.190 C 
ATOM     11  O   UNL     1       0.056   5.019  -2.243  0.00  0.00    -0.329 OA
ATOM     12  C   UNL     1       2.343   4.790  -1.722  0.00  0.00    +0.061 C 
ATOM     13  C   UNL     1       1.042   6.440  -0.598  0.00  0.00    +0.061 C 
ATOM     14  C   UNL     1      -0.490   5.596  -3.520  0.00  0.00    +0.201 C 
ATOM     15  O   UNL     1      -2.490   6.483  -4.258  0.00  0.00    -0.332 OA
ATOM     16  C   UNL     1      -4.175   6.629  -2.688  0.00  0.00    +0.061 C 
ENDROOT
BRANCH   8  17
ATOM     17  C   UNL     1       1.661   4.970  -4.683  0.00  0.00    +0.234 C 
BRANCH  17  18
ATOM     18  O   UNL     1       2.246   5.403  -5.859  0.00  0.00    -0.204 OA
BRANCH  18  19
ATOM     19  S   UNL     1       3.827   5.891  -5.707  0.00  0.00    +0.187 S 
ATOM     20  O   UNL     1       3.814   7.400  -5.586  0.00  0.00    -0.127 OA
ATOM     21  O   UNL     1       4.537   5.247  -4.561  0.00  0.00    -0.127 OA
ATOM     22  N   UNL     1       4.689   5.502  -7.165  0.00  0.00    +0.063 NA
ENDBRANCH  18  19
ENDBRANCH  17  18
ENDBRANCH   8  17
TORSDOF 3
ENDMDL
MODEL 9
REMARK VINA RESULT:      -5.9      2.997      5.439
REMARK  Name = 
REMARK  3 active torsions:
REMARK  status: ('A' for Active; 'I' for Inactive)
REMARK    1  A    between atoms: C_8  and  C_9
REMARK    2  A    between atoms: C_9  and  O_10
REMARK    3  A    between atoms: O_10  and  S_11
REMARK                            x       y       z     vdW  Elec       q    Type
REMARK                         _______ _______ _______ _____ _____    ______ ____
ROOT
ATOM      1  C   UNL     1       0.895   4.440  -1.436  0.00  0.00    +0.061 C 
ATOM      2  C   UNL     1       0.330   5.542  -1.898  0.00  0.00    +0.187 C 
ATOM      3  O   UNL     1       1.075   6.655  -1.949  0.00  0.00    -0.332 OA
ATOM      4  C   UNL     1       1.295   6.941  -3.392  0.00  0.00    +0.179 C 
ATOM      5  C   UNL     1      -0.319   6.529  -3.822  0.00  0.00    +0.177 C 
ATOM      6  C   UNL     1       0.104   5.720  -5.184  0.00  0.00    +0.177 C 
ATOM      7  O   UNL     1       1.230   6.191  -5.704  0.00  0.00    -0.328 OA
ATOM      8  C   UNL     1       2.442   5.809  -5.177  0.00  0.00    +0.247 C 
ATOM      9  O   UNL     1       3.095   6.970  -4.931  0.00  0.00    -0.310 OA
ATOM     10  C   UNL     1       3.769   6.706  -3.785  0.00  0.00    +0.190 C 
ATOM     11  O   UNL     1       3.234   5.736  -3.054  0.00  0.00    -0.329 OA
ATOM     12  C   UNL     1       5.187   6.342  -4.227  0.00  0.00    +0.061 C 
ATOM     13  C   UNL     1       3.975   8.005  -3.026  0.00  0.00    +0.061 C 
ATOM     14  C   UNL     1       1.920   5.373  -3.688  0.00  0.00    +0.201 C 
ATOM     15  O   UNL     1      -0.292   5.239  -3.039  0.00  0.00    -0.332 OA
ATOM     16  C   UNL     1      -0.750   5.858  -0.864  0.00  0.00    +0.061 C 
ENDROOT
BRANCH   8  17
ATOM     17  C   UNL     1       3.154   4.694  -5.782  0.00  0.00    +0.234 C 
BRANCH  17  18
ATOM     18  O   UNL     1       2.750   4.524  -7.094  0.00  0.00    -0.204 OA
BRANCH  18  19
ATOM     19  S   UNL     1       3.745   5.232  -8.222  0.00  0.00    +0.187 S 
ATOM     20  O   UNL     1       5.110   5.371  -7.583  0.00  0.00    -0.127 OA
ATOM     21  O   UNL     1       3.808   4.479  -9.511  0.00  0.00    -0.127 OA
ATOM     22  N   UNL     1       3.172   6.838  -8.562  0.00  0.00    +0.063 NA
ENDBRANCH  18  19
ENDBRANCH  17  18
ENDBRANCH   8  17
TORSDOF 3
ENDMDL
