MODEL 1
REMARK VINA RESULT:      -4.7      0.000      0.000
REMARK  Name = 
REMARK  28 active torsions:
REMARK  status: ('A' for Active; 'I' for Inactive)
REMARK    1  A    between atoms: C_2  and  C_4
REMARK    2  A    between atoms: C_4  and  O_5
REMARK    3  A    between atoms: O_5  and  C_6
REMARK    4  A    between atoms: C_6  and  C_7
REMARK    5  A    between atoms: C_9  and  O_10
REMARK    6  A    between atoms: O_10  and  C_11
REMARK    7  A    between atoms: C_12  and  O_13
REMARK    8  A    between atoms: O_13  and  C_14
REMARK    9  A    between atoms: C_14  and  C_15
REMARK   10  A    between atoms: C_18  and  O_19
REMARK   11  A    between atoms: O_19  and  C_20
REMARK   12  A    between atoms: C_20  and  C_21
REMARK   13  A    between atoms: C_24  and  O_25
REMARK   14  A    between atoms: O_25  and  C_26
REMARK   15  A    between atoms: C_26  and  C_27
REMARK   16  A    between atoms: C_31  and  C_32
REMARK   17  A    between atoms: C_32  and  O_33
REMARK   18  A    between atoms: O_33  and  C_34
REMARK   19  A    between atoms: C_34  and  C_35
REMARK   20  A    between atoms: C_38  and  O_39
REMARK   21  A    between atoms: O_39  and  C_40
REMARK   22  A    between atoms: C_40  and  C_41
REMARK   23  A    between atoms: C_44  and  O_45
REMARK   24  A    between atoms: O_45  and  C_46
REMARK   25  A    between atoms: C_46  and  C_47
REMARK   26  A    between atoms: C_50  and  O_51
REMARK   27  A    between atoms: O_51  and  C_52
REMARK   28  A    between atoms: C_52  and  C_53
REMARK                            x       y       z     vdW  Elec       q    Type
REMARK                         _______ _______ _______ _____ _____    ______ ____
ROOT
ATOM      1  O   UNL     1       2.103   6.565  -2.850  0.00  0.00    -0.326 OA
ENDROOT
BRANCH   1   2
ATOM      2  C   UNL     1       2.416   7.903  -2.141  0.00  0.00    +0.177 C 
ATOM      3  C   UNL     1       3.718   7.533  -1.126  0.00  0.00    +0.177 C 
ATOM      4  O   UNL     1       4.906   8.173  -1.578  0.00  0.00    -0.326 OA
ATOM      5  C   UNL     1       5.153   6.968  -0.594  0.00  0.00    +0.266 C 
ATOM      6  C   UNL     1       3.659   6.036  -0.680  0.00  0.00    +0.201 C 
ATOM      7  C   UNL     1       2.320   7.136  -0.577  0.00  0.00    +0.177 C 
BRANCH   3   8
ATOM      8  C   UNL     1       3.294   8.748  -0.006  0.00  0.00    +0.174 C 
BRANCH   8   9
ATOM      9  O   UNL     1       3.682   9.715  -0.776  0.00  0.00    -0.348 OA
BRANCH   9  10
ATOM     10  C   UNL     1       3.099  10.818  -0.423  0.00  0.00    +0.175 C 
BRANCH  10  11
ATOM     11  C   UNL     1       4.449  11.037   0.524  0.00  0.00    +0.181 C 
ATOM     12  O   UNL     1       4.607  12.340  -0.221  0.00  0.00    -0.220 OA
ATOM     13  C   UNL     1       3.567  11.706   1.749  0.00  0.00    +0.038 C 
ENDBRANCH  10  11
ENDBRANCH   9  10
ENDBRANCH   8   9
ENDBRANCH   3   8
BRANCH   5  14
ATOM     14  O   UNL     1       4.885   7.625   0.735  0.00  0.00    -0.326 OA
BRANCH  14  15
ATOM     15  C   UNL     1       5.688   7.767   1.671  0.00  0.00    +0.178 C 
BRANCH  15  16
ATOM     16  C   UNL     1       5.147   8.063   3.185  0.00  0.00    +0.182 C 
ATOM     17  O   UNL     1       5.080   6.607   3.605  0.00  0.00    -0.220 OA
ATOM     18  C   UNL     1       6.687   8.265   3.747  0.00  0.00    +0.038 C 
ENDBRANCH  15  16
ENDBRANCH  14  15
ENDBRANCH   5  14
BRANCH   6  19
ATOM     19  O   UNL     1       3.812   5.660  -2.116  0.00  0.00    -0.346 OA
BRANCH  19  20
ATOM     20  C   UNL     1       4.284   4.359  -2.318  0.00  0.00    +0.175 C 
BRANCH  20  21
ATOM     21  C   UNL     1       5.046   4.241  -3.758  0.00  0.00    +0.181 C 
ATOM     22  O   UNL     1       3.735   4.143  -4.523  0.00  0.00    -0.220 OA
ATOM     23  C   UNL     1       5.203   5.862  -3.989  0.00  0.00    +0.038 C 
ENDBRANCH  20  21
ENDBRANCH  19  20
ENDBRANCH   6  19
BRANCH   7  24
ATOM     24  O   UNL     1       1.209   6.237  -0.888  0.00  0.00    -0.348 OA
BRANCH  24  25
ATOM     25  C   UNL     1       0.351   6.412   0.122  0.00  0.00    +0.175 C 
BRANCH  25  26
ATOM     26  C   UNL     1       0.602   7.813   0.930  0.00  0.00    +0.181 C 
ATOM     27  O   UNL     1      -0.573   8.554   0.318  0.00  0.00    -0.220 OA
ATOM     28  C   UNL     1      -0.314   7.202   2.160  0.00  0.00    +0.038 C 
ENDBRANCH  25  26
ENDBRANCH  24  25
ENDBRANCH   7  24
ENDBRANCH   1   2
BRANCH   1  33
ATOM     29  C   UNL     1       1.921   7.086  -6.307  0.00  0.00    +0.177 C 
ATOM     30  C   UNL     1       1.311   5.463  -6.368  0.00  0.00    +0.174 C 
ATOM     31  C   UNL     1      -0.107   6.242  -5.773  0.00  0.00    +0.177 C 
ATOM     32  C   UNL     1       0.360   5.701  -4.202  0.00  0.00    +0.201 C 
ATOM     33  C   UNL     1       1.276   7.173  -3.992  0.00  0.00    +0.266 C 
ATOM     34  O   UNL     1       2.369   6.733  -4.935  0.00  0.00    -0.326 OA
BRANCH  32  35
ATOM     35  O   UNL     1      -0.866   6.316  -3.637  0.00  0.00    -0.346 OA
BRANCH  35  36
ATOM     36  C   UNL     1      -1.534   5.522  -2.812  0.00  0.00    +0.175 C 
BRANCH  36  37
ATOM     37  C   UNL     1      -2.339   6.528  -1.781  0.00  0.00    +0.181 C 
ATOM     38  O   UNL     1      -2.094   7.800  -2.577  0.00  0.00    -0.220 OA
ATOM     39  C   UNL     1      -3.765   6.266  -2.569  0.00  0.00    +0.038 C 
ENDBRANCH  36  37
ENDBRANCH  35  36
ENDBRANCH  32  35
BRANCH  31  40
ATOM     40  O   UNL     1      -1.064   5.135  -6.105  0.00  0.00    -0.348 OA
BRANCH  40  41
ATOM     41  C   UNL     1      -1.782   5.778  -7.094  0.00  0.00    +0.175 C 
BRANCH  41  42
ATOM     42  C   UNL     1      -3.371   5.791  -6.674  0.00  0.00    +0.181 C 
ATOM     43  O   UNL     1      -3.110   4.891  -5.476  0.00  0.00    -0.220 OA
ATOM     44  C   UNL     1      -3.249   7.151  -5.746  0.00  0.00    +0.038 C 
ENDBRANCH  41  42
ENDBRANCH  40  41
ENDBRANCH  31  40
BRANCH  30  45
ATOM     45  O   UNL     1       0.945   5.548  -7.800  0.00  0.00    -0.348 OA
BRANCH  45  46
ATOM     46  C   UNL     1       1.145   4.472  -8.511  0.00  0.00    +0.175 C 
BRANCH  46  47
ATOM     47  C   UNL     1       1.169   4.961 -10.086  0.00  0.00    +0.181 C 
ATOM     48  O   UNL     1      -0.152   4.271 -10.373  0.00  0.00    -0.220 OA
ATOM     49  C   UNL     1       0.418   6.366  -9.667  0.00  0.00    +0.038 C 
ENDBRANCH  46  47
ENDBRANCH  45  46
ENDBRANCH  30  45
BRANCH  29  50
ATOM     50  C   UNL     1       3.396   6.659  -6.896  0.00  0.00    +0.174 C 
BRANCH  50  51
ATOM     51  O   UNL     1       3.345   7.358  -8.107  0.00  0.00    -0.348 OA
BRANCH  51  52
ATOM     52  C   UNL     1       4.061   6.700  -9.085  0.00  0.00    +0.175 C 
BRANCH  52  54
ATOM     53  C   UNL     1       4.539   4.462  -9.511  0.00  0.00    +0.038 C 
ATOM     54  C   UNL     1       4.850   5.509  -8.271  0.00  0.00    +0.181 C 
ATOM     55  O   UNL     1       6.212   5.828  -8.829  0.00  0.00    -0.220 OA
ENDBRANCH  52  54
ENDBRANCH  51  52
ENDBRANCH  50  51
ENDBRANCH  29  50
ENDBRANCH   1  33
TORSDOF 28
ENDMDL
MODEL 2
REMARK VINA RESULT:      -3.7      1.521      2.609
REMARK  Name = 
REMARK  28 active torsions:
REMARK  status: ('A' for Active; 'I' for Inactive)
REMARK    1  A    between atoms: C_2  and  C_4
REMARK    2  A    between atoms: C_4  and  O_5
REMARK    3  A    between atoms: O_5  and  C_6
REMARK    4  A    between atoms: C_6  and  C_7
REMARK    5  A    between atoms: C_9  and  O_10
REMARK    6  A    between atoms: O_10  and  C_11
REMARK    7  A    between atoms: C_12  and  O_13
REMARK    8  A    between atoms: O_13  and  C_14
REMARK    9  A    between atoms: C_14  and  C_15
REMARK   10  A    between atoms: C_18  and  O_19
REMARK   11  A    between atoms: O_19  and  C_20
REMARK   12  A    between atoms: C_20  and  C_21
REMARK   13  A    between atoms: C_24  and  O_25
REMARK   14  A    between atoms: O_25  and  C_26
REMARK   15  A    between atoms: C_26  and  C_27
REMARK   16  A    between atoms: C_31  and  C_32
REMARK   17  A    between atoms: C_32  and  O_33
REMARK   18  A    between atoms: O_33  and  C_34
REMARK   19  A    between atoms: C_34  and  C_35
REMARK   20  A    between atoms: C_38  and  O_39
REMARK   21  A    between atoms: O_39  and  C_40
REMARK   22  A    between atoms: C_40  and  C_41
REMARK   23  A    between atoms: C_44  and  O_45
REMARK   24  A    between atoms: O_45  and  C_46
REMARK   25  A    between atoms: C_46  and  C_47
REMARK   26  A    between atoms: C_50  and  O_51
REMARK   27  A    between atoms: O_51  and  C_52
REMARK   28  A    between atoms: C_52  and  C_53
REMARK                            x       y       z     vdW  Elec       q    Type
REMARK                         _______ _______ _______ _____ _____    ______ ____
ROOT
ATOM      1  O   UNL     1       2.438   6.565  -3.125  0.00  0.00    -0.326 OA
ENDROOT
BRANCH   1   2
ATOM      2  C   UNL     1       1.632   7.078  -1.909  0.00  0.00    +0.177 C 
ATOM      3  C   UNL     1       2.820   7.585  -0.816  0.00  0.00    +0.177 C 
ATOM      4  O   UNL     1       2.805   9.001  -0.677  0.00  0.00    -0.326 OA
ATOM      5  C   UNL     1       4.139   8.316  -0.194  0.00  0.00    +0.266 C 
ATOM      6  C   UNL     1       4.129   6.749  -0.999  0.00  0.00    +0.201 C 
ATOM      7  C   UNL     1       2.546   6.056  -0.830  0.00  0.00    +0.177 C 
BRANCH   3   8
ATOM      8  C   UNL     1       1.823   7.277   0.534  0.00  0.00    +0.174 C 
BRANCH   8   9
ATOM      9  O   UNL     1       1.072   8.311   0.323  0.00  0.00    -0.348 OA
BRANCH   9  10
ATOM     10  C   UNL     1       0.087   8.316   1.166  0.00  0.00    +0.175 C 
BRANCH  10  11
ATOM     11  C   UNL     1       0.674   9.812   1.595  0.00  0.00    +0.181 C 
ATOM     12  O   UNL     1      -0.765  10.261   1.518  0.00  0.00    -0.220 OA
ATOM     13  C   UNL     1       0.603   9.457   3.206  0.00  0.00    +0.038 C 
ENDBRANCH  10  11
ENDBRANCH   9  10
ENDBRANCH   8   9
ENDBRANCH   3   8
BRANCH   5  14
ATOM     14  O   UNL     1       3.729   7.826   1.171  0.00  0.00    -0.326 OA
BRANCH  14  15
ATOM     15  C   UNL     1       4.244   8.134   2.258  0.00  0.00    +0.178 C 
BRANCH  15  16
ATOM     16  C   UNL     1       5.489   9.191   2.313  0.00  0.00    +0.182 C 
ATOM     17  O   UNL     1       5.258   9.617   3.750  0.00  0.00    -0.220 OA
ATOM     18  C   UNL     1       6.550   7.995   2.726  0.00  0.00    +0.038 C 
ENDBRANCH  15  16
ENDBRANCH  14  15
ENDBRANCH   5  14
BRANCH   6  19
ATOM     19  O   UNL     1       4.222   7.302  -2.382  0.00  0.00    -0.346 OA
BRANCH  19  20
ATOM     20  C   UNL     1       5.527   7.600  -2.790  0.00  0.00    +0.175 C 
BRANCH  20  21
ATOM     21  C   UNL     1       5.717   7.284  -4.381  0.00  0.00    +0.181 C 
ATOM     22  O   UNL     1       7.227   7.166  -4.250  0.00  0.00    -0.220 OA
ATOM     23  C   UNL     1       5.456   5.664  -4.256  0.00  0.00    +0.038 C 
ENDBRANCH  20  21
ENDBRANCH  19  20
ENDBRANCH   6  19
BRANCH   7  24
ATOM     24  O   UNL     1       2.658   4.906  -1.727  0.00  0.00    -0.348 OA
BRANCH  24  25
ATOM     25  C   UNL     1       2.623   3.848  -0.912  0.00  0.00    +0.175 C 
BRANCH  25  26
ATOM     26  C   UNL     1       3.749   2.721  -1.289  0.00  0.00    +0.181 C 
ATOM     27  O   UNL     1       4.665   3.022  -0.117  0.00  0.00    -0.220 OA
ATOM     28  C   UNL     1       2.861   1.628  -0.425  0.00  0.00    +0.038 C 
ENDBRANCH  25  26
ENDBRANCH  24  25
ENDBRANCH   7  24
ENDBRANCH   1   2
BRANCH   1  33
ATOM     29  C   UNL     1       1.904   7.046  -6.551  0.00  0.00    +0.177 C 
ATOM     30  C   UNL     1       1.563   5.345  -6.584  0.00  0.00    +0.174 C 
ATOM     31  C   UNL     1       0.089   5.884  -5.872  0.00  0.00    +0.177 C 
ATOM     32  C   UNL     1       0.759   5.428  -4.348  0.00  0.00    +0.201 C 
ATOM     33  C   UNL     1       1.437   7.030  -4.193  0.00  0.00    +0.266 C 
ATOM     34  O   UNL     1       2.510   6.772  -5.223  0.00  0.00    -0.326 OA
BRANCH  32  35
ATOM     35  O   UNL     1      -0.504   5.835  -3.683  0.00  0.00    -0.346 OA
BRANCH  35  36
ATOM     36  C   UNL     1      -0.803   5.116  -2.611  0.00  0.00    +0.175 C 
BRANCH  36  37
ATOM     37  C   UNL     1      -2.280   5.656  -2.111  0.00  0.00    +0.181 C 
ATOM     38  O   UNL     1      -1.896   5.840  -0.652  0.00  0.00    -0.220 OA
ATOM     39  C   UNL     1      -1.874   7.218  -2.454  0.00  0.00    +0.038 C 
ENDBRANCH  36  37
ENDBRANCH  35  36
ENDBRANCH  32  35
BRANCH  31  40
ATOM     40  O   UNL     1      -0.699   4.635  -6.142  0.00  0.00    -0.348 OA
BRANCH  40  41
ATOM     41  C   UNL     1      -1.731   5.200  -6.866  0.00  0.00    +0.175 C 
BRANCH  41  42
ATOM     42  C   UNL     1      -2.554   6.240  -5.895  0.00  0.00    +0.181 C 
ATOM     43  O   UNL     1      -3.546   6.562  -7.002  0.00  0.00    -0.220 OA
ATOM     44  C   UNL     1      -3.546   5.078  -5.270  0.00  0.00    +0.038 C 
ENDBRANCH  41  42
ENDBRANCH  40  41
ENDBRANCH  31  40
BRANCH  30  45
ATOM     45  O   UNL     1       1.077   5.368  -7.983  0.00  0.00    -0.348 OA
BRANCH  45  46
ATOM     46  C   UNL     1       1.387   4.335  -8.718  0.00  0.00    +0.175 C 
BRANCH  46  47
ATOM     47  C   UNL     1       1.220   4.821 -10.285  0.00  0.00    +0.181 C 
ATOM     48  O   UNL     1       0.057   3.872 -10.507  0.00  0.00    -0.220 OA
ATOM     49  C   UNL     1       0.220   6.039  -9.806  0.00  0.00    +0.038 C 
ENDBRANCH  46  47
ENDBRANCH  45  46
ENDBRANCH  30  45
BRANCH  29  50
ATOM     50  C   UNL     1       3.379   6.863  -7.258  0.00  0.00    +0.174 C 
BRANCH  50  51
ATOM     51  O   UNL     1       3.060   7.348  -8.531  0.00  0.00    -0.348 OA
BRANCH  51  52
ATOM     52  C   UNL     1       4.112   7.169  -9.403  0.00  0.00    +0.175 C 
BRANCH  52  54
ATOM     53  C   UNL     1       4.642   5.346 -10.751  0.00  0.00    +0.038 C 
ATOM     54  C   UNL     1       4.607   5.627  -9.122  0.00  0.00    +0.181 C 
ATOM     55  O   UNL     1       6.079   5.945  -9.105  0.00  0.00    -0.220 OA
ENDBRANCH  52  54
ENDBRANCH  51  52
ENDBRANCH  50  51
ENDBRANCH  29  50
ENDBRANCH   1  33
TORSDOF 28
ENDMDL
MODEL 3
REMARK VINA RESULT:      -3.5      2.125      6.300
REMARK  Name = 
REMARK  28 active torsions:
REMARK  status: ('A' for Active; 'I' for Inactive)
REMARK    1  A    between atoms: C_2  and  C_4
REMARK    2  A    between atoms: C_4  and  O_5
REMARK    3  A    between atoms: O_5  and  C_6
REMARK    4  A    between atoms: C_6  and  C_7
REMARK    5  A    between atoms: C_9  and  O_10
REMARK    6  A    between atoms: O_10  and  C_11
REMARK    7  A    between atoms: C_12  and  O_13
REMARK    8  A    between atoms: O_13  and  C_14
REMARK    9  A    between atoms: C_14  and  C_15
REMARK   10  A    between atoms: C_18  and  O_19
REMARK   11  A    between atoms: O_19  and  C_20
REMARK   12  A    between atoms: C_20  and  C_21
REMARK   13  A    between atoms: C_24  and  O_25
REMARK   14  A    between atoms: O_25  and  C_26
REMARK   15  A    between atoms: C_26  and  C_27
REMARK   16  A    between atoms: C_31  and  C_32
REMARK   17  A    between atoms: C_32  and  O_33
REMARK   18  A    between atoms: O_33  and  C_34
REMARK   19  A    between atoms: C_34  and  C_35
REMARK   20  A    between atoms: C_38  and  O_39
REMARK   21  A    between atoms: O_39  and  C_40
REMARK   22  A    between atoms: C_40  and  C_41
REMARK   23  A    between atoms: C_44  and  O_45
REMARK   24  A    between atoms: O_45  and  C_46
REMARK   25  A    between atoms: C_46  and  C_47
REMARK   26  A    between atoms: C_50  and  O_51
REMARK   27  A    between atoms: O_51  and  C_52
REMARK   28  A    between atoms: C_52  and  C_53
REMARK                            x       y       z     vdW  Elec       q    Type
REMARK                         _______ _______ _______ _____ _____    ______ ____
ROOT
ATOM      1  O   UNL     1       1.876   6.276  -4.672  0.00  0.00    -0.326 OA
ENDROOT
BRANCH   1   2
ATOM      2  C   UNL     1       1.955   5.324  -3.455  0.00  0.00    +0.177 C 
ATOM      3  C   UNL     1       0.510   5.606  -2.621  0.00  0.00    +0.177 C 
ATOM      4  O   UNL     1      -0.349   4.475  -2.705  0.00  0.00    -0.326 OA
ATOM      5  C   UNL     1      -1.076   5.812  -2.300  0.00  0.00    +0.266 C 
ATOM      6  C   UNL     1       0.026   7.077  -2.842  0.00  0.00    +0.201 C 
ATOM      7  C   UNL     1       1.637   6.643  -2.359  0.00  0.00    +0.177 C 
BRANCH   3   8
ATOM      8  C   UNL     1       1.199   5.178  -1.120  0.00  0.00    +0.174 C 
BRANCH   8   9
ATOM      9  O   UNL     1       2.151   4.483  -1.658  0.00  0.00    -0.348 OA
BRANCH   9  10
ATOM     10  C   UNL     1       2.694   3.718  -0.762  0.00  0.00    +0.175 C 
BRANCH  10  11
ATOM     11  C   UNL     1       4.126   4.347  -1.328  0.00  0.00    +0.181 C 
ATOM     12  O   UNL     1       4.079   5.228  -0.104  0.00  0.00    -0.220 OA
ATOM     13  C   UNL     1       5.016   3.167  -0.593  0.00  0.00    +0.038 C 
ENDBRANCH  10  11
ENDBRANCH   9  10
ENDBRANCH   8   9
ENDBRANCH   3   8
BRANCH   5  14
ATOM     14  O   UNL     1      -0.738   5.888  -0.834  0.00  0.00    -0.326 OA
BRANCH  14  15
ATOM     15  C   UNL     1      -1.459   6.333   0.074  0.00  0.00    +0.178 C 
BRANCH  15  16
ATOM     16  C   UNL     1      -0.894   7.483   1.088  0.00  0.00    +0.182 C 
ATOM     17  O   UNL     1      -1.359   8.659   0.251  0.00  0.00    -0.220 OA
ATOM     18  C   UNL     1      -2.279   7.439   1.987  0.00  0.00    +0.038 C 
ENDBRANCH  15  16
ENDBRANCH  14  15
ENDBRANCH   5  14
BRANCH   6  19
ATOM     19  O   UNL     1      -0.099   6.758  -4.294  0.00  0.00    -0.346 OA
BRANCH  19  20
ATOM     20  C   UNL     1      -1.064   7.519  -4.964  0.00  0.00    +0.175 C 
BRANCH  20  21
ATOM     21  C   UNL     1      -2.508   6.756  -4.953  0.00  0.00    +0.181 C 
ATOM     22  O   UNL     1      -3.189   7.883  -5.712  0.00  0.00    -0.220 OA
ATOM     23  C   UNL     1      -2.223   5.854  -6.300  0.00  0.00    +0.038 C 
ENDBRANCH  20  21
ENDBRANCH  19  20
ENDBRANCH   6  19
BRANCH   7  24
ATOM     24  O   UNL     1       2.413   7.658  -3.072  0.00  0.00    -0.348 OA
BRANCH  24  25
ATOM     25  C   UNL     1       3.345   8.037  -2.192  0.00  0.00    +0.175 C 
BRANCH  25  26
ATOM     26  C   UNL     1       2.707   8.529  -0.767  0.00  0.00    +0.181 C 
ATOM     27  O   UNL     1       3.804   7.943   0.102  0.00  0.00    -0.220 OA
ATOM     28  C   UNL     1       3.511   9.958  -0.966  0.00  0.00    +0.038 C 
ENDBRANCH  25  26
ENDBRANCH  24  25
ENDBRANCH   7  24
ENDBRANCH   1   2
BRANCH   1  33
ATOM     29  C   UNL     1       1.828   5.284  -8.028  0.00  0.00    +0.177 C 
ATOM     30  C   UNL     1       2.971   6.568  -8.268  0.00  0.00    +0.174 C 
ATOM     31  C   UNL     1       4.028   5.424  -7.530  0.00  0.00    +0.177 C 
ATOM     32  C   UNL     1       3.798   6.292  -6.056  0.00  0.00    +0.201 C 
ATOM     33  C   UNL     1       2.424   5.275  -5.699  0.00  0.00    +0.266 C 
ATOM     34  O   UNL     1       1.547   5.945  -6.728  0.00  0.00    -0.326 OA
BRANCH  32  35
ATOM     35  O   UNL     1       4.735   5.364  -5.375  0.00  0.00    -0.346 OA
BRANCH  35  36
ATOM     36  C   UNL     1       5.197   5.818  -4.219  0.00  0.00    +0.175 C 
BRANCH  36  37
ATOM     37  C   UNL     1       6.239   7.038  -4.604  0.00  0.00    +0.181 C 
ATOM     38  O   UNL     1       5.225   8.162  -4.469  0.00  0.00    -0.220 OA
ATOM     39  C   UNL     1       6.692   7.208  -3.027  0.00  0.00    +0.038 C 
ENDBRANCH  36  37
ENDBRANCH  35  36
ENDBRANCH  32  35
BRANCH  31  40
ATOM     40  O   UNL     1       5.311   6.073  -7.962  0.00  0.00    -0.348 OA
BRANCH  40  41
ATOM     41  C   UNL     1       5.952   4.950  -8.447  0.00  0.00    +0.175 C 
BRANCH  41  42
ATOM     42  C   UNL     1       6.694   5.331  -9.864  0.00  0.00    +0.181 C 
ATOM     43  O   UNL     1       6.823   6.791  -9.457  0.00  0.00    -0.220 OA
ATOM     44  C   UNL     1       8.212   4.987  -9.313  0.00  0.00    +0.038 C 
ENDBRANCH  41  42
ENDBRANCH  40  41
ENDBRANCH  31  40
BRANCH  30  45
ATOM     45  O   UNL     1       3.269   6.176  -9.665  0.00  0.00    -0.348 OA
BRANCH  45  46
ATOM     46  C   UNL     1       3.613   7.141 -10.473  0.00  0.00    +0.175 C 
BRANCH  46  47
ATOM     47  C   UNL     1       3.528   6.515 -11.996  0.00  0.00    +0.181 C 
ATOM     48  O   UNL     1       5.024   6.673 -12.198  0.00  0.00    -0.220 OA
ATOM     49  C   UNL     1       3.706   4.995 -11.387  0.00  0.00    +0.038 C 
ENDBRANCH  46  47
ENDBRANCH  45  46
ENDBRANCH  30  45
BRANCH  29  50
ATOM     50  C   UNL     1       0.593   6.122  -8.719  0.00  0.00    +0.174 C 
BRANCH  50  51
ATOM     51  O   UNL     1       0.032   5.083  -9.470  0.00  0.00    -0.348 OA
BRANCH  51  52
ATOM     52  C   UNL     1       0.057   5.380 -10.815  0.00  0.00    +0.175 C 
BRANCH  52  54
ATOM     53  C   UNL     1       0.388   6.987 -12.467  0.00  0.00    +0.038 C 
ATOM     54  C   UNL     1      -0.018   7.022 -10.865  0.00  0.00    +0.181 C 
ATOM     55  O   UNL     1      -1.485   7.093 -11.197  0.00  0.00    -0.220 OA
ENDBRANCH  52  54
ENDBRANCH  51  52
ENDBRANCH  50  51
ENDBRANCH  29  50
ENDBRANCH   1  33
TORSDOF 28
ENDMDL
MODEL 4
REMARK VINA RESULT:      -3.3      2.958      6.335
REMARK  Name = 
REMARK  28 active torsions:
REMARK  status: ('A' for Active; 'I' for Inactive)
REMARK    1  A    between atoms: C_2  and  C_4
REMARK    2  A    between atoms: C_4  and  O_5
REMARK    3  A    between atoms: O_5  and  C_6
REMARK    4  A    between atoms: C_6  and  C_7
REMARK    5  A    between atoms: C_9  and  O_10
REMARK    6  A    between atoms: O_10  and  C_11
REMARK    7  A    between atoms: C_12  and  O_13
REMARK    8  A    between atoms: O_13  and  C_14
REMARK    9  A    between atoms: C_14  and  C_15
REMARK   10  A    between atoms: C_18  and  O_19
REMARK   11  A    between atoms: O_19  and  C_20
REMARK   12  A    between atoms: C_20  and  C_21
REMARK   13  A    between atoms: C_24  and  O_25
REMARK   14  A    between atoms: O_25  and  C_26
REMARK   15  A    between atoms: C_26  and  C_27
REMARK   16  A    between atoms: C_31  and  C_32
REMARK   17  A    between atoms: C_32  and  O_33
REMARK   18  A    between atoms: O_33  and  C_34
REMARK   19  A    between atoms: C_34  and  C_35
REMARK   20  A    between atoms: C_38  and  O_39
REMARK   21  A    between atoms: O_39  and  C_40
REMARK   22  A    between atoms: C_40  and  C_41
REMARK   23  A    between atoms: C_44  and  O_45
REMARK   24  A    between atoms: O_45  and  C_46
REMARK   25  A    between atoms: C_46  and  C_47
REMARK   26  A    between atoms: C_50  and  O_51
REMARK   27  A    between atoms: O_51  and  C_52
REMARK   28  A    between atoms: C_52  and  C_53
REMARK                            x       y       z     vdW  Elec       q    Type
REMARK                         _______ _______ _______ _____ _____    ______ ____
ROOT
ATOM      1  O   UNL     1       1.894   6.490  -7.937  0.00  0.00    -0.326 OA
ENDROOT
BRANCH   1   2
ATOM      2  C   UNL     1       2.844   7.193  -6.940  0.00  0.00    +0.177 C 
ATOM      3  C   UNL     1       3.068   6.050  -5.713  0.00  0.00    +0.177 C 
ATOM      4  O   UNL     1       4.402   5.554  -5.724  0.00  0.00    -0.326 OA
ATOM      5  C   UNL     1       3.378   4.643  -4.947  0.00  0.00    +0.266 C 
ATOM      6  C   UNL     1       1.808   5.135  -5.577  0.00  0.00    +0.201 C 
ATOM      7  C   UNL     1       1.753   6.870  -5.618  0.00  0.00    +0.177 C 
BRANCH   3   8
ATOM      8  C   UNL     1       3.351   7.251  -4.535  0.00  0.00    +0.174 C 
BRANCH   8   9
ATOM      9  O   UNL     1       4.572   7.457  -4.914  0.00  0.00    -0.348 OA
BRANCH   9  10
ATOM     10  C   UNL     1       5.155   8.270  -4.088  0.00  0.00    +0.175 C 
BRANCH  10  11
ATOM     11  C   UNL     1       5.814   6.885  -3.445  0.00  0.00    +0.181 C 
ATOM     12  O   UNL     1       7.143   7.574  -3.643  0.00  0.00    -0.220 OA
ATOM     13  C   UNL     1       5.626   7.429  -1.898  0.00  0.00    +0.038 C 
ENDBRANCH  10  11
ENDBRANCH   9  10
ENDBRANCH   8   9
ENDBRANCH   3   8
BRANCH   5  14
ATOM     14  O   UNL     1       3.288   5.374  -3.633  0.00  0.00    -0.326 OA
BRANCH  14  15
ATOM     15  C   UNL     1       3.058   4.877  -2.518  0.00  0.00    +0.178 C 
BRANCH  15  16
ATOM     16  C   UNL     1       1.626   5.140  -1.776  0.00  0.00    +0.182 C 
ATOM     17  O   UNL     1       1.908   4.240  -0.588  0.00  0.00    -0.220 OA
ATOM     18  C   UNL     1       2.209   6.491  -1.026  0.00  0.00    +0.038 C 
ENDBRANCH  15  16
ENDBRANCH  14  15
ENDBRANCH   5  14
BRANCH   6  19
ATOM     19  O   UNL     1       2.065   4.669  -6.971  0.00  0.00    -0.346 OA
BRANCH  19  20
ATOM     20  C   UNL     1       2.113   3.277  -7.108  0.00  0.00    +0.175 C 
BRANCH  20  21
ATOM     21  C   UNL     1       2.617   2.864  -8.605  0.00  0.00    +0.181 C 
ATOM     22  O   UNL     1       1.668   3.847  -9.273  0.00  0.00    -0.220 OA
ATOM     23  C   UNL     1       3.900   3.894  -8.632  0.00  0.00    +0.038 C 
ENDBRANCH  20  21
ENDBRANCH  19  20
ENDBRANCH   6  19
BRANCH   7  24
ATOM     24  O   UNL     1       0.509   7.082  -6.359  0.00  0.00    -0.348 OA
BRANCH  24  25
ATOM     25  C   UNL     1      -0.415   7.254  -5.409  0.00  0.00    +0.175 C 
BRANCH  25  26
ATOM     26  C   UNL     1      -1.872   6.634  -5.823  0.00  0.00    +0.181 C 
ATOM     27  O   UNL     1      -1.323   5.551  -6.734  0.00  0.00    -0.220 OA
ATOM     28  C   UNL     1      -1.779   5.673  -4.483  0.00  0.00    +0.038 C 
ENDBRANCH  25  26
ENDBRANCH  24  25
ENDBRANCH   7  24
ENDBRANCH   1   2
BRANCH   1  33
ATOM     29  C   UNL     1       4.356   7.319 -10.284  0.00  0.00    +0.177 C 
ATOM     30  C   UNL     1       3.810   5.906 -11.131  0.00  0.00    +0.174 C 
ATOM     31  C   UNL     1       2.507   6.960 -11.533  0.00  0.00    +0.177 C 
ATOM     32  C   UNL     1       1.613   6.194 -10.270  0.00  0.00    +0.201 C 
ATOM     33  C   UNL     1       2.239   7.374  -9.144  0.00  0.00    +0.266 C 
ATOM     34  O   UNL     1       3.616   6.756  -9.125  0.00  0.00    -0.326 OA
BRANCH  32  35
ATOM     35  O   UNL     1       0.442   7.045 -10.598  0.00  0.00    -0.346 OA
BRANCH  35  36
ATOM     36  C   UNL     1      -0.706   6.384 -10.644  0.00  0.00    +0.175 C 
BRANCH  36  37
ATOM     37  C   UNL     1      -1.460   6.897 -12.019  0.00  0.00    +0.181 C 
ATOM     38  O   UNL     1      -2.744   7.343 -11.338  0.00  0.00    -0.220 OA
ATOM     39  C   UNL     1      -0.811   8.406 -11.864  0.00  0.00    +0.038 C 
ENDBRANCH  36  37
ENDBRANCH  35  36
ENDBRANCH  32  35
BRANCH  31  40
ATOM     40  O   UNL     1       1.983   6.153 -12.685  0.00  0.00    -0.348 OA
BRANCH  40  41
ATOM     41  C   UNL     1       1.725   7.192 -13.559  0.00  0.00    +0.175 C 
BRANCH  41  42
ATOM     42  C   UNL     1       0.670   6.671 -14.707  0.00  0.00    +0.181 C 
ATOM     43  O   UNL     1       1.760   6.661 -15.769  0.00  0.00    -0.220 OA
ATOM     44  C   UNL     1       0.900   5.069 -14.379  0.00  0.00    +0.038 C 
ENDBRANCH  41  42
ENDBRANCH  40  41
ENDBRANCH  31  40
BRANCH  30  45
ATOM     45  O   UNL     1       4.620   6.195 -12.337  0.00  0.00    -0.348 OA
BRANCH  45  46
ATOM     46  C   UNL     1       4.986   5.163 -13.047  0.00  0.00    +0.175 C 
BRANCH  46  47
ATOM     47  C   UNL     1       5.946   5.751 -14.252  0.00  0.00    +0.181 C 
ATOM     48  O   UNL     1       4.742   6.207 -15.056  0.00  0.00    -0.220 OA
ATOM     49  C   UNL     1       6.050   7.197 -13.469  0.00  0.00    +0.038 C 
ENDBRANCH  46  47
ENDBRANCH  45  46
ENDBRANCH  30  45
BRANCH  29  50
ATOM     50  C   UNL     1       5.733   6.591  -9.755  0.00  0.00    +0.174 C 
BRANCH  50  51
ATOM     51  O   UNL     1       6.660   7.502 -10.273  0.00  0.00    -0.348 OA
BRANCH  51  52
ATOM     52  C   UNL     1       7.932   6.971 -10.255  0.00  0.00    +0.175 C 
BRANCH  52  54
ATOM     53  C   UNL     1       8.979   5.693 -11.894  0.00  0.00    +0.038 C 
ATOM     54  C   UNL     1       7.738   5.444 -10.831  0.00  0.00    +0.181 C 
ATOM     55  O   UNL     1       8.666   4.793  -9.839  0.00  0.00    -0.220 OA
ENDBRANCH  52  54
ENDBRANCH  51  52
ENDBRANCH  50  51
ENDBRANCH  29  50
ENDBRANCH   1  33
TORSDOF 28
ENDMDL
MODEL 5
REMARK VINA RESULT:      -3.3      4.607     12.712
REMARK  Name = 
REMARK  28 active torsions:
REMARK  status: ('A' for Active; 'I' for Inactive)
REMARK    1  A    between atoms: C_2  and  C_4
REMARK    2  A    between atoms: C_4  and  O_5
REMARK    3  A    between atoms: O_5  and  C_6
REMARK    4  A    between atoms: C_6  and  C_7
REMARK    5  A    between atoms: C_9  and  O_10
REMARK    6  A    between atoms: O_10  and  C_11
REMARK    7  A    between atoms: C_12  and  O_13
REMARK    8  A    between atoms: O_13  and  C_14
REMARK    9  A    between atoms: C_14  and  C_15
REMARK   10  A    between atoms: C_18  and  O_19
REMARK   11  A    between atoms: O_19  and  C_20
REMARK   12  A    between atoms: C_20  and  C_21
REMARK   13  A    between atoms: C_24  and  O_25
REMARK   14  A    between atoms: O_25  and  C_26
REMARK   15  A    between atoms: C_26  and  C_27
REMARK   16  A    between atoms: C_31  and  C_32
REMARK   17  A    between atoms: C_32  and  O_33
REMARK   18  A    between atoms: O_33  and  C_34
REMARK   19  A    between atoms: C_34  and  C_35
REMARK   20  A    between atoms: C_38  and  O_39
REMARK   21  A    between atoms: O_39  and  C_40
REMARK   22  A    between atoms: C_40  and  C_41
REMARK   23  A    between atoms: C_44  and  O_45
REMARK   24  A    between atoms: O_45  and  C_46
REMARK   25  A    between atoms: C_46  and  C_47
REMARK   26  A    between atoms: C_50  and  O_51
REMARK   27  A    between atoms: O_51  and  C_52
REMARK   28  A    between atoms: C_52  and  C_53
REMARK                            x       y       z     vdW  Elec       q    Type
REMARK                         _______ _______ _______ _____ _____    ______ ____
ROOT
ATOM      1  O   UNL     1       2.370   6.216 -12.012  0.00  0.00    -0.326 OA
ENDROOT
BRANCH   1   2
ATOM      2  C   UNL     1       2.714   6.929 -13.340  0.00  0.00    +0.177 C 
ATOM      3  C   UNL     1       1.211   7.167 -14.078  0.00  0.00    +0.177 C 
ATOM      4  O   UNL     1       0.876   8.550 -14.106  0.00  0.00    -0.326 OA
ATOM      5  C   UNL     1      -0.350   7.582 -14.313  0.00  0.00    +0.266 C 
ATOM      6  C   UNL     1       0.208   6.043 -13.658  0.00  0.00    +0.201 C 
ATOM      7  C   UNL     1       1.813   5.745 -14.250  0.00  0.00    +0.177 C 
BRANCH   3   8
ATOM      8  C   UNL     1       1.885   7.131 -15.645  0.00  0.00    +0.174 C 
BRANCH   8   9
ATOM      9  O   UNL     1       2.347   8.339 -15.568  0.00  0.00    -0.348 OA
BRANCH   9  10
ATOM     10  C   UNL     1       2.583   8.795 -16.759  0.00  0.00    +0.175 C 
BRANCH  10  11
ATOM     11  C   UNL     1       3.891   7.768 -16.716  0.00  0.00    +0.181 C 
ATOM     12  O   UNL     1       3.679   7.636 -18.205  0.00  0.00    -0.220 OA
ATOM     13  C   UNL     1       4.964   9.014 -16.857  0.00  0.00    +0.038 C 
ENDBRANCH  10  11
ENDBRANCH   9  10
ENDBRANCH   8   9
ENDBRANCH   3   8
BRANCH   5  14
ATOM     14  O   UNL     1      -0.192   7.231 -15.770  0.00  0.00    -0.326 OA
BRANCH  14  15
ATOM     15  C   UNL     1      -1.083   7.223 -16.635  0.00  0.00    +0.178 C 
BRANCH  15  16
ATOM     16  C   UNL     1      -0.820   7.900 -18.098  0.00  0.00    +0.182 C 
ATOM     17  O   UNL     1       0.174   6.856 -18.568  0.00  0.00    -0.220 OA
ATOM     18  C   UNL     1      -2.117   7.112 -18.750  0.00  0.00    +0.038 C 
ENDBRANCH  15  16
ENDBRANCH  14  15
ENDBRANCH   5  14
BRANCH   6  19
ATOM     19  O   UNL     1       0.339   6.530 -12.254  0.00  0.00    -0.346 OA
BRANCH  19  20
ATOM     20  C   UNL     1      -0.500   5.878 -11.344  0.00  0.00    +0.175 C 
BRANCH  20  21
ATOM     21  C   UNL     1       0.358   4.862 -10.395  0.00  0.00    +0.181 C 
ATOM     22  O   UNL     1      -0.522   5.136  -9.185  0.00  0.00    -0.220 OA
ATOM     23  C   UNL     1      -0.459   3.504 -10.837  0.00  0.00    +0.038 C 
ENDBRANCH  20  21
ENDBRANCH  19  20
ENDBRANCH   6  19
BRANCH   7  24
ATOM     24  O   UNL     1       2.185   4.582 -13.444  0.00  0.00    -0.348 OA
BRANCH  24  25
ATOM     25  C   UNL     1       2.080   3.551 -14.288  0.00  0.00    +0.175 C 
BRANCH  25  26
ATOM     26  C   UNL     1       0.864   2.529 -13.891  0.00  0.00    +0.181 C 
ATOM     27  O   UNL     1       0.094   2.698 -15.188  0.00  0.00    -0.220 OA
ATOM     28  C   UNL     1       1.781   1.295 -14.496  0.00  0.00    +0.038 C 
ENDBRANCH  25  26
ENDBRANCH  24  25
ENDBRANCH   7  24
ENDBRANCH   1   2
BRANCH   1  33
ATOM     29  C   UNL     1       3.340   7.114  -8.770  0.00  0.00    +0.177 C 
ATOM     30  C   UNL     1       3.933   5.487  -8.659  0.00  0.00    +0.174 C 
ATOM     31  C   UNL     1       5.184   6.145  -9.646  0.00  0.00    +0.177 C 
ATOM     32  C   UNL     1       4.367   5.448 -10.997  0.00  0.00    +0.201 C 
ATOM     33  C   UNL     1       3.440   6.919 -11.165  0.00  0.00    +0.266 C 
ATOM     34  O   UNL     1       2.587   6.625  -9.955  0.00  0.00    -0.326 OA
BRANCH  32  35
ATOM     35  O   UNL     1       5.437   5.952 -11.892  0.00  0.00    -0.346 OA
BRANCH  35  36
ATOM     36  C   UNL     1       5.701   5.155 -12.917  0.00  0.00    +0.175 C 
BRANCH  36  37
ATOM     37  C   UNL     1       5.843   6.147 -14.227  0.00  0.00    +0.181 C 
ATOM     38  O   UNL     1       6.279   7.377 -13.448  0.00  0.00    -0.220 OA
ATOM     39  C   UNL     1       7.412   5.691 -14.458  0.00  0.00    +0.038 C 
ENDBRANCH  36  37
ENDBRANCH  35  36
ENDBRANCH  32  35
BRANCH  31  40
ATOM     40  O   UNL     1       6.183   5.048  -9.411  0.00  0.00    -0.348 OA
BRANCH  40  41
ATOM     41  C   UNL     1       7.276   5.833  -9.103  0.00  0.00    +0.175 C 
BRANCH  41  42
ATOM     42  C   UNL     1       7.552   6.873 -10.347  0.00  0.00    +0.181 C 
ATOM     43  O   UNL     1       8.600   7.628  -9.544  0.00  0.00    -0.220 OA
ATOM     44  C   UNL     1       8.701   5.924 -11.057  0.00  0.00    +0.038 C 
ENDBRANCH  41  42
ENDBRANCH  40  41
ENDBRANCH  31  40
BRANCH  30  45
ATOM     45  O   UNL     1       4.617   5.719  -7.366  0.00  0.00    -0.348 OA
BRANCH  45  46
ATOM     46  C   UNL     1       4.645   4.709  -6.540  0.00  0.00    +0.175 C 
BRANCH  46  47
ATOM     47  C   UNL     1       4.065   5.277  -5.104  0.00  0.00    +0.181 C 
ATOM     48  O   UNL     1       5.062   4.446  -4.316  0.00  0.00    -0.220 OA
ATOM     49  C   UNL     1       5.100   6.557  -5.186  0.00  0.00    +0.038 C 
ENDBRANCH  46  47
ENDBRANCH  45  46
ENDBRANCH  30  45
BRANCH  29  50
ATOM     50  C   UNL     1       2.034   6.807  -7.818  0.00  0.00    +0.174 C 
BRANCH  50  51
ATOM     51  O   UNL     1       2.240   7.803  -6.857  0.00  0.00    -0.348 OA
BRANCH  51  52
ATOM     52  C   UNL     1       1.731   7.420  -5.635  0.00  0.00    +0.175 C 
BRANCH  52  54
ATOM     53  C   UNL     1       0.530   5.658  -4.700  0.00  0.00    +0.038 C 
ATOM     54  C   UNL     1       0.330   6.647  -6.009  0.00  0.00    +0.181 C 
ATOM     55  O   UNL     1      -0.563   7.571  -5.225  0.00  0.00    -0.220 OA
ENDBRANCH  52  54
ENDBRANCH  51  52
ENDBRANCH  50  51
ENDBRANCH  29  50
ENDBRANCH   1  33
TORSDOF 28
ENDMDL
MODEL 6
REMARK VINA RESULT:      -3.1      5.029     12.966
REMARK  Name = 
REMARK  28 active torsions:
REMARK  status: ('A' for Active; 'I' for Inactive)
REMARK    1  A    between atoms: C_2  and  C_4
REMARK    2  A    between atoms: C_4  and  O_5
REMARK    3  A    between atoms: O_5  and  C_6
REMARK    4  A    between atoms: C_6  and  C_7
REMARK    5  A    between atoms: C_9  and  O_10
REMARK    6  A    between atoms: O_10  and  C_11
REMARK    7  A    between atoms: C_12  and  O_13
REMARK    8  A    between atoms: O_13  and  C_14
REMARK    9  A    between atoms: C_14  and  C_15
REMARK   10  A    between atoms: C_18  and  O_19
REMARK   11  A    between atoms: O_19  and  C_20
REMARK   12  A    between atoms: C_20  and  C_21
REMARK   13  A    between atoms: C_24  and  O_25
REMARK   14  A    between atoms: O_25  and  C_26
REMARK   15  A    between atoms: C_26  and  C_27
REMARK   16  A    between atoms: C_31  and  C_32
REMARK   17  A    between atoms: C_32  and  O_33
REMARK   18  A    between atoms: O_33  and  C_34
REMARK   19  A    between atoms: C_34  and  C_35
REMARK   20  A    between atoms: C_38  and  O_39
REMARK   21  A    between atoms: O_39  and  C_40
REMARK   22  A    between atoms: C_40  and  C_41
REMARK   23  A    between atoms: C_44  and  O_45
REMARK   24  A    between atoms: O_45  and  C_46
REMARK   25  A    between atoms: C_46  and  C_47
REMARK   26  A    between atoms: C_50  and  O_51
REMARK   27  A    between atoms: O_51  and  C_52
REMARK   28  A    between atoms: C_52  and  C_53
REMARK                            x       y       z     vdW  Elec       q    Type
REMARK                         _______ _______ _______ _____ _____    ______ ____
ROOT
ATOM      1  O   UNL     1       2.506   6.382 -12.761  0.00  0.00    -0.326 OA
ENDROOT
BRANCH   1   2
ATOM      2  C   UNL     1       2.146   7.693 -13.497  0.00  0.00    +0.177 C 
ATOM      3  C   UNL     1       0.783   7.288 -14.413  0.00  0.00    +0.177 C 
ATOM      4  O   UNL     1      -0.375   7.943 -13.910  0.00  0.00    -0.326 OA
ATOM      5  C   UNL     1      -0.681   6.703 -14.833  0.00  0.00    +0.266 C 
ATOM      6  C   UNL     1       0.817   5.775 -14.809  0.00  0.00    +0.201 C 
ATOM      7  C   UNL     1       2.145   6.871 -15.035  0.00  0.00    +0.177 C 
BRANCH   3   8
ATOM      8  C   UNL     1       1.133   8.462 -15.601  0.00  0.00    +0.174 C 
BRANCH   8   9
ATOM      9  O   UNL     1       0.814   9.456 -14.834  0.00  0.00    -0.348 OA
BRANCH   9  10
ATOM     10  C   UNL     1       1.423  10.529 -15.234  0.00  0.00    +0.175 C 
BRANCH  10  11
ATOM     11  C   UNL     1       0.130  10.682 -16.269  0.00  0.00    +0.181 C 
ATOM     12  O   UNL     1      -0.133  11.983 -15.549  0.00  0.00    -0.220 OA
ATOM     13  C   UNL     1       1.060  11.379 -17.441  0.00  0.00    +0.038 C 
ENDBRANCH  10  11
ENDBRANCH   9  10
ENDBRANCH   8   9
ENDBRANCH   3   8
BRANCH   5  14
ATOM     14  O   UNL     1      -0.499   7.313 -16.198  0.00  0.00    -0.326 OA
BRANCH  14  15
ATOM     15  C   UNL     1      -1.395   7.629 -16.998  0.00  0.00    +0.178 C 
BRANCH  15  16
ATOM     16  C   UNL     1      -1.486   6.909 -18.462  0.00  0.00    +0.182 C 
ATOM     17  O   UNL     1      -2.061   5.603 -17.949  0.00  0.00    -0.220 OA
ATOM     18  C   UNL     1      -2.971   7.572 -18.750  0.00  0.00    +0.038 C 
ENDBRANCH  15  16
ENDBRANCH  14  15
ENDBRANCH   5  14
BRANCH   6  19
ATOM     19  O   UNL     1       0.756   5.451 -13.353  0.00  0.00    -0.346 OA
BRANCH  19  20
ATOM     20  C   UNL     1       0.361   4.138 -13.077  0.00  0.00    +0.175 C 
BRANCH  20  21
ATOM     21  C   UNL     1      -0.397   4.058 -11.632  0.00  0.00    +0.181 C 
ATOM     22  O   UNL     1       0.914   3.938 -10.871  0.00  0.00    -0.220 OA
ATOM     23  C   UNL     1      -0.513   5.685 -11.422  0.00  0.00    +0.038 C 
ENDBRANCH  20  21
ENDBRANCH  19  20
ENDBRANCH   6  19
BRANCH   7  24
ATOM     24  O   UNL     1       3.275   5.984 -14.763  0.00  0.00    -0.348 OA
BRANCH  24  25
ATOM     25  C   UNL     1       4.153   6.263 -15.732  0.00  0.00    +0.175 C 
BRANCH  25  26
ATOM     26  C   UNL     1       3.874   7.711 -16.441  0.00  0.00    +0.181 C 
ATOM     27  O   UNL     1       5.123   8.386 -15.905  0.00  0.00    -0.220 OA
ATOM     28  C   UNL     1       4.653   7.141 -17.781  0.00  0.00    +0.038 C 
ENDBRANCH  25  26
ENDBRANCH  24  25
ENDBRANCH   7  24
ENDBRANCH   1   2
BRANCH   1  33
ATOM     29  C   UNL     1       2.869   7.165  -9.369  0.00  0.00    +0.177 C 
ATOM     30  C   UNL     1       3.389   5.517  -9.199  0.00  0.00    +0.174 C 
ATOM     31  C   UNL     1       4.820   6.162  -9.911  0.00  0.00    +0.177 C 
ATOM     32  C   UNL     1       4.255   5.526 -11.413  0.00  0.00    +0.201 C 
ATOM     33  C   UNL     1       3.415   7.029 -11.706  0.00  0.00    +0.266 C 
ATOM     34  O   UNL     1       2.342   6.731 -10.688  0.00  0.00    -0.326 OA
BRANCH  32  35
ATOM     35  O   UNL     1       5.489   6.020 -12.074  0.00  0.00    -0.346 OA
BRANCH  35  36
ATOM     36  C   UNL     1       6.011   5.166 -12.943  0.00  0.00    +0.175 C 
BRANCH  36  37
ATOM     37  C   UNL     1       7.407   5.869 -13.472  0.00  0.00    +0.181 C 
ATOM     38  O   UNL     1       7.062   5.811 -14.951  0.00  0.00    -0.220 OA
ATOM     39  C   UNL     1       6.750   7.377 -13.340  0.00  0.00    +0.038 C 
ENDBRANCH  36  37
ENDBRANCH  35  36
ENDBRANCH  32  35
BRANCH  31  40
ATOM     40  O   UNL     1       5.727   5.029  -9.527  0.00  0.00    -0.348 OA
BRANCH  40  41
ATOM     41  C   UNL     1       6.687   5.758  -8.851  0.00  0.00    +0.175 C 
BRANCH  41  42
ATOM     42  C   UNL     1       7.627   6.544  -9.948  0.00  0.00    +0.181 C 
ATOM     43  O   UNL     1       8.596   6.992  -8.865  0.00  0.00    -0.220 OA
ATOM     44  C   UNL     1       8.548   5.221 -10.301  0.00  0.00    +0.038 C 
ENDBRANCH  41  42
ENDBRANCH  40  41
ENDBRANCH  31  40
BRANCH  30  45
ATOM     45  O   UNL     1       3.821   5.694  -7.794  0.00  0.00    -0.348 OA
BRANCH  45  46
ATOM     46  C   UNL     1       3.667   4.663  -7.009  0.00  0.00    +0.175 C 
BRANCH  46  47
ATOM     47  C   UNL     1       4.668   4.913  -5.722  0.00  0.00    +0.181 C 
ATOM     48  O   UNL     1       4.453   6.414  -5.782  0.00  0.00    -0.220 OA
ATOM     49  C   UNL     1       3.401   4.707  -4.690  0.00  0.00    +0.038 C 
ENDBRANCH  46  47
ENDBRANCH  45  46
ENDBRANCH  30  45
BRANCH  29  50
ATOM     50  C   UNL     1       1.399   6.874  -8.689  0.00  0.00    +0.174 C 
BRANCH  50  51
ATOM     51  O   UNL     1       1.590   7.557  -7.483  0.00  0.00    -0.348 OA
BRANCH  51  52
ATOM     52  C   UNL     1       0.887   6.956  -6.461  0.00  0.00    +0.175 C 
BRANCH  52  54
ATOM     53  C   UNL     1       0.291   4.769  -5.930  0.00  0.00    +0.038 C 
ATOM     54  C   UNL     1       0.019   5.778  -7.210  0.00  0.00    +0.181 C 
ATOM     55  O   UNL     1      -1.314   6.197  -6.648  0.00  0.00    -0.220 OA
ENDBRANCH  52  54
ENDBRANCH  51  52
ENDBRANCH  50  51
ENDBRANCH  29  50
ENDBRANCH   1  33
TORSDOF 28
ENDMDL
MODEL 7
REMARK VINA RESULT:      -2.9      5.320     11.015
REMARK  Name = 
REMARK  28 active torsions:
REMARK  status: ('A' for Active; 'I' for Inactive)
REMARK    1  A    between atoms: C_2  and  C_4
REMARK    2  A    between atoms: C_4  and  O_5
REMARK    3  A    between atoms: O_5  and  C_6
REMARK    4  A    between atoms: C_6  and  C_7
REMARK    5  A    between atoms: C_9  and  O_10
REMARK    6  A    between atoms: O_10  and  C_11
REMARK    7  A    between atoms: C_12  and  O_13
REMARK    8  A    between atoms: O_13  and  C_14
REMARK    9  A    between atoms: C_14  and  C_15
REMARK   10  A    between atoms: C_18  and  O_19
REMARK   11  A    between atoms: O_19  and  C_20
REMARK   12  A    between atoms: C_20  and  C_21
REMARK   13  A    between atoms: C_24  and  O_25
REMARK   14  A    between atoms: O_25  and  C_26
REMARK   15  A    between atoms: C_26  and  C_27
REMARK   16  A    between atoms: C_31  and  C_32
REMARK   17  A    between atoms: C_32  and  O_33
REMARK   18  A    between atoms: O_33  and  C_34
REMARK   19  A    between atoms: C_34  and  C_35
REMARK   20  A    between atoms: C_38  and  O_39
REMARK   21  A    between atoms: O_39  and  C_40
REMARK   22  A    between atoms: C_40  and  C_41
REMARK   23  A    between atoms: C_44  and  O_45
REMARK   24  A    between atoms: O_45  and  C_46
REMARK   25  A    between atoms: C_46  and  C_47
REMARK   26  A    between atoms: C_50  and  O_51
REMARK   27  A    between atoms: O_51  and  C_52
REMARK   28  A    between atoms: C_52  and  C_53
REMARK                            x       y       z     vdW  Elec       q    Type
REMARK                         _______ _______ _______ _____ _____    ______ ____
ROOT
ATOM      1  O   UNL     1       2.819   5.750 -12.870  0.00  0.00    -0.326 OA
ENDROOT
BRANCH   1   2
ATOM      2  C   UNL     1       3.157   6.211 -11.433  0.00  0.00    +0.177 C 
ATOM      3  C   UNL     1       2.002   5.432 -10.472  0.00  0.00    +0.177 C 
ATOM      4  O   UNL     1       2.611   4.432  -9.663  0.00  0.00    -0.326 OA
ATOM      5  C   UNL     1       1.052   4.272  -9.828  0.00  0.00    +0.266 C 
ATOM      6  C   UNL     1       0.680   5.207 -11.275  0.00  0.00    +0.201 C 
ATOM      7  C   UNL     1       1.511   6.728 -11.174  0.00  0.00    +0.177 C 
BRANCH   3   8
ATOM      8  C   UNL     1       2.050   6.655  -9.283  0.00  0.00    +0.174 C 
BRANCH   8   9
ATOM      9  O   UNL     1       3.055   6.128  -8.658  0.00  0.00    -0.348 OA
BRANCH   9  10
ATOM     10  C   UNL     1       3.422   6.904  -7.686  0.00  0.00    +0.175 C 
BRANCH  10  11
ATOM     11  C   UNL     1       3.653   5.481  -6.854  0.00  0.00    +0.181 C 
ATOM     12  O   UNL     1       5.013   5.464  -7.509  0.00  0.00    -0.220 OA
ATOM     13  C   UNL     1       4.179   6.274  -5.505  0.00  0.00    +0.038 C 
ENDBRANCH  10  11
ENDBRANCH   9  10
ENDBRANCH   8   9
ENDBRANCH   3   8
BRANCH   5  14
ATOM     14  O   UNL     1       0.555   5.279  -8.824  0.00  0.00    -0.326 OA
BRANCH  14  15
ATOM     15  C   UNL     1      -0.492   5.213  -8.160  0.00  0.00    +0.178 C 
BRANCH  15  16
ATOM     16  C   UNL     1      -0.430   5.060  -6.534  0.00  0.00    +0.182 C 
ATOM     17  O   UNL     1       0.206   6.413  -6.282  0.00  0.00    -0.220 OA
ATOM     18  C   UNL     1      -1.970   5.635  -6.373  0.00  0.00    +0.038 C 
ENDBRANCH  15  16
ENDBRANCH  14  15
ENDBRANCH   5  14
BRANCH   6  19
ATOM     19  O   UNL     1       1.459   4.339 -12.206  0.00  0.00    -0.346 OA
BRANCH  19  20
ATOM     20  C   UNL     1       0.684   3.404 -12.899  0.00  0.00    +0.175 C 
BRANCH  20  21
ATOM     21  C   UNL     1       0.974   3.492 -14.504  0.00  0.00    +0.181 C 
ATOM     22  O   UNL     1       1.466   2.055 -14.566  0.00  0.00    -0.220 OA
ATOM     23  C   UNL     1      -0.561   3.116 -14.965  0.00  0.00    +0.038 C 
ENDBRANCH  20  21
ENDBRANCH  19  20
ENDBRANCH   6  19
BRANCH   7  24
ATOM     24  O   UNL     1       1.277   7.252 -12.520  0.00  0.00    -0.348 OA
BRANCH  24  25
ATOM     25  C   UNL     1       0.260   8.106 -12.368  0.00  0.00    +0.175 C 
BRANCH  25  26
ATOM     26  C   UNL     1      -0.837   7.594 -11.267  0.00  0.00    +0.181 C 
ATOM     27  O   UNL     1      -1.562   8.922 -11.144  0.00  0.00    -0.220 OA
ATOM     28  C   UNL     1      -1.784   7.096 -12.526  0.00  0.00    +0.038 C 
ENDBRANCH  25  26
ENDBRANCH  24  25
ENDBRANCH   7  24
ENDBRANCH   1   2
BRANCH   1  33
ATOM     29  C   UNL     1       5.852   6.933 -14.157  0.00  0.00    +0.177 C 
ATOM     30  C   UNL     1       5.472   5.957 -15.540  0.00  0.00    +0.174 C 
ATOM     31  C   UNL     1       4.380   7.255 -15.841  0.00  0.00    +0.177 C 
ATOM     32  C   UNL     1       3.145   6.259 -15.160  0.00  0.00    +0.201 C 
ATOM     33  C   UNL     1       3.517   6.916 -13.585  0.00  0.00    +0.266 C 
ATOM     34  O   UNL     1       4.804   6.138 -13.465  0.00  0.00    -0.326 OA
BRANCH  32  35
ATOM     35  O   UNL     1       2.149   7.324 -15.433  0.00  0.00    -0.346 OA
BRANCH  35  36
ATOM     36  C   UNL     1       0.936   6.868 -15.709  0.00  0.00    +0.175 C 
BRANCH  36  37
ATOM     37  C   UNL     1       0.319   7.899 -16.839  0.00  0.00    +0.181 C 
ATOM     38  O   UNL     1       0.841   7.140 -18.048  0.00  0.00    -0.220 OA
ATOM     39  C   UNL     1      -1.105   7.067 -16.885  0.00  0.00    +0.038 C 
ENDBRANCH  36  37
ENDBRANCH  35  36
ENDBRANCH  32  35
BRANCH  31  40
ATOM     40  O   UNL     1       4.134   6.941 -17.288  0.00  0.00    -0.348 OA
BRANCH  40  41
ATOM     41  C   UNL     1       4.493   8.163 -17.824  0.00  0.00    +0.175 C 
BRANCH  41  42
ATOM     42  C   UNL     1       4.168   9.341 -16.724  0.00  0.00    +0.181 C 
ATOM     43  O   UNL     1       5.406  10.125 -17.130  0.00  0.00    -0.220 OA
ATOM     44  C   UNL     1       3.213  10.215 -17.748  0.00  0.00    +0.038 C 
ENDBRANCH  41  42
ENDBRANCH  40  41
ENDBRANCH  31  40
BRANCH  30  45
ATOM     45  O   UNL     1       6.585   6.499 -16.353  0.00  0.00    -0.348 OA
BRANCH  45  46
ATOM     46  C   UNL     1       7.250   5.635 -17.070  0.00  0.00    +0.175 C 
BRANCH  46  47
ATOM     47  C   UNL     1       7.660   6.416 -18.464  0.00  0.00    +0.181 C 
ATOM     48  O   UNL     1       8.624   7.328 -17.728  0.00  0.00    -0.220 OA
ATOM     49  C   UNL     1       8.836   5.298 -18.750  0.00  0.00    +0.038 C 
ENDBRANCH  46  47
ENDBRANCH  45  46
ENDBRANCH  30  45
BRANCH  29  50
ATOM     50  C   UNL     1       7.000   5.888 -13.612  0.00  0.00    +0.174 C 
BRANCH  50  51
ATOM     51  O   UNL     1       7.264   6.495 -12.379  0.00  0.00    -0.348 OA
BRANCH  51  52
ATOM     52  C   UNL     1       8.275   5.836 -11.713  0.00  0.00    +0.175 C 
BRANCH  52  54
ATOM     53  C   UNL     1       7.435   7.404 -10.212  0.00  0.00    +0.038 C 
ATOM     54  C   UNL     1       7.761   5.784 -10.153  0.00  0.00    +0.181 C 
ATOM     55  O   UNL     1       6.331   5.444 -10.481  0.00  0.00    -0.220 OA
ENDBRANCH  52  54
ENDBRANCH  51  52
ENDBRANCH  50  51
ENDBRANCH  29  50
ENDBRANCH   1  33
TORSDOF 28
ENDMDL
MODEL 8
REMARK VINA RESULT:      -2.7      3.398     10.581
REMARK  Name = 
REMARK  28 active torsions:
REMARK  status: ('A' for Active; 'I' for Inactive)
REMARK    1  A    between atoms: C_2  and  C_4
REMARK    2  A    between atoms: C_4  and  O_5
REMARK    3  A    between atoms: O_5  and  C_6
REMARK    4  A    between atoms: C_6  and  C_7
REMARK    5  A    between atoms: C_9  and  O_10
REMARK    6  A    between atoms: O_10  and  C_11
REMARK    7  A    between atoms: C_12  and  O_13
REMARK    8  A    between atoms: O_13  and  C_14
REMARK    9  A    between atoms: C_14  and  C_15
REMARK   10  A    between atoms: C_18  and  O_19
REMARK   11  A    between atoms: O_19  and  C_20
REMARK   12  A    between atoms: C_20  and  C_21
REMARK   13  A    between atoms: C_24  and  O_25
REMARK   14  A    between atoms: O_25  and  C_26
REMARK   15  A    between atoms: C_26  and  C_27
REMARK   16  A    between atoms: C_31  and  C_32
REMARK   17  A    between atoms: C_32  and  O_33
REMARK   18  A    between atoms: O_33  and  C_34
REMARK   19  A    between atoms: C_34  and  C_35
REMARK   20  A    between atoms: C_38  and  O_39
REMARK   21  A    between atoms: O_39  and  C_40
REMARK   22  A    between atoms: C_40  and  C_41
REMARK   23  A    between atoms: C_44  and  O_45
REMARK   24  A    between atoms: O_45  and  C_46
REMARK   25  A    between atoms: C_46  and  C_47
REMARK   26  A    between atoms: C_50  and  O_51
REMARK   27  A    between atoms: O_51  and  C_52
REMARK   28  A    between atoms: C_52  and  C_53
REMARK                            x       y       z     vdW  Elec       q    Type
REMARK                         _______ _______ _______ _____ _____    ______ ____
ROOT
ATOM      1  O   UNL     1       1.698   5.310  -9.957  0.00  0.00    -0.326 OA
ENDROOT
BRANCH   1   2
ATOM      2  C   UNL     1       2.990   4.990 -10.744  0.00  0.00    +0.177 C 
ATOM      3  C   UNL     1       2.912   6.012 -12.090  0.00  0.00    +0.177 C 
ATOM      4  O   UNL     1       3.911   7.023 -12.014  0.00  0.00    -0.326 OA
ATOM      5  C   UNL     1       2.735   7.347 -13.012  0.00  0.00    +0.266 C 
ATOM      6  C   UNL     1       1.424   6.294 -12.481  0.00  0.00    +0.201 C 
ATOM      7  C   UNL     1       2.074   4.708 -12.202  0.00  0.00    +0.177 C 
BRANCH   3   8
ATOM      8  C   UNL     1       3.832   4.946 -13.053  0.00  0.00    +0.174 C 
BRANCH   8   9
ATOM      9  O   UNL     1       4.939   5.592 -12.863  0.00  0.00    -0.348 OA
BRANCH   9  10
ATOM     10  C   UNL     1       5.891   5.042 -13.551  0.00  0.00    +0.175 C 
BRANCH  10  11
ATOM     11  C   UNL     1       6.470   6.596 -13.685  0.00  0.00    +0.181 C 
ATOM     12  O   UNL     1       7.837   5.960 -13.607  0.00  0.00    -0.220 OA
ATOM     13  C   UNL     1       6.411   6.550 -15.335  0.00  0.00    +0.038 C 
ENDBRANCH  10  11
ENDBRANCH   9  10
ENDBRANCH   8   9
ENDBRANCH   3   8
BRANCH   5  14
ATOM     14  O   UNL     1       3.149   6.536 -14.212  0.00  0.00    -0.326 OA
BRANCH  14  15
ATOM     15  C   UNL     1       2.773   6.696 -15.385  0.00  0.00    +0.178 C 
BRANCH  15  16
ATOM     16  C   UNL     1       1.877   8.001 -15.794  0.00  0.00    +0.182 C 
ATOM     17  O   UNL     1       2.231   7.966 -17.268  0.00  0.00    -0.220 OA
ATOM     18  C   UNL     1       0.525   7.072 -15.988  0.00  0.00    +0.038 C 
ENDBRANCH  15  16
ENDBRANCH  14  15
ENDBRANCH   5  14
BRANCH   6  19
ATOM     19  O   UNL     1       1.256   6.943 -11.148  0.00  0.00    -0.346 OA
BRANCH  19  20
ATOM     20  C   UNL     1      -0.073   7.216 -10.810  0.00  0.00    +0.175 C 
BRANCH  20  21
ATOM     21  C   UNL     1      -1.048   7.025 -12.107  0.00  0.00    +0.181 C 
ATOM     22  O   UNL     1      -2.223   7.694 -11.411  0.00  0.00    -0.220 OA
ATOM     23  C   UNL     1      -0.562   8.398 -12.874  0.00  0.00    +0.038 C 
ENDBRANCH  20  21
ENDBRANCH  19  20
ENDBRANCH   6  19
BRANCH   7  24
ATOM     24  O   UNL     1       0.928   4.056 -11.568  0.00  0.00    -0.348 OA
BRANCH  24  25
ATOM     25  C   UNL     1       0.255   3.512 -12.586  0.00  0.00    +0.175 C 
BRANCH  25  26
ATOM     26  C   UNL     1       0.997   3.735 -14.027  0.00  0.00    +0.181 C 
ATOM     27  O   UNL     1       1.303   2.268 -14.270  0.00  0.00    -0.220 OA
ATOM     28  C   UNL     1      -0.487   3.632 -14.744  0.00  0.00    +0.038 C 
ENDBRANCH  25  26
ENDBRANCH  24  25
ENDBRANCH   7  24
ENDBRANCH   1   2
BRANCH   1  33
ATOM     29  C   UNL     1       4.182   5.074  -7.503  0.00  0.00    +0.177 C 
ATOM     30  C   UNL     1       3.436   6.486  -6.825  0.00  0.00    +0.174 C 
ATOM     31  C   UNL     1       2.270   5.320  -6.324  0.00  0.00    +0.177 C 
ATOM     32  C   UNL     1       1.319   5.818  -7.676  0.00  0.00    +0.201 C 
ATOM     33  C   UNL     1       2.122   4.616  -8.655  0.00  0.00    +0.266 C 
ATOM     34  O   UNL     1       3.407   5.404  -8.727  0.00  0.00    -0.326 OA
BRANCH  32  35
ATOM     35  O   UNL     1       0.259   4.862  -7.269  0.00  0.00    -0.346 OA
BRANCH  35  36
ATOM     36  C   UNL     1      -0.970   5.349  -7.363  0.00  0.00    +0.175 C 
BRANCH  36  37
ATOM     37  C   UNL     1      -1.571   5.340  -5.827  0.00  0.00    +0.181 C 
ATOM     38  O   UNL     1      -1.401   6.831  -5.582  0.00  0.00    -0.220 OA
ATOM     39  C   UNL     1      -3.109   5.569  -6.380  0.00  0.00    +0.038 C 
ENDBRANCH  36  37
ENDBRANCH  35  36
ENDBRANCH  32  35
BRANCH  31  40
ATOM     40  O   UNL     1       1.615   6.171  -5.276  0.00  0.00    -0.348 OA
BRANCH  40  41
ATOM     41  C   UNL     1       1.581   5.243  -4.254  0.00  0.00    +0.175 C 
BRANCH  41  42
ATOM     42  C   UNL     1       0.980   5.962  -2.903  0.00  0.00    +0.181 C 
ATOM     43  O   UNL     1      -0.008   4.826  -2.682  0.00  0.00    -0.220 OA
ATOM     44  C   UNL     1       2.083   5.273  -1.886  0.00  0.00    +0.038 C 
ENDBRANCH  41  42
ENDBRANCH  40  41
ENDBRANCH  31  40
BRANCH  30  45
ATOM     45  O   UNL     1       4.244   6.440  -5.585  0.00  0.00    -0.348 OA
BRANCH  45  46
ATOM     46  C   UNL     1       4.445   7.581  -4.985  0.00  0.00    +0.175 C 
BRANCH  46  47
ATOM     47  C   UNL     1       5.578   7.295  -3.822  0.00  0.00    +0.181 C 
ATOM     48  O   UNL     1       4.600   7.643  -2.714  0.00  0.00    -0.220 OA
ATOM     49  C   UNL     1       5.149   5.704  -3.789  0.00  0.00    +0.038 C 
ENDBRANCH  46  47
ENDBRANCH  45  46
ENDBRANCH  30  45
BRANCH  29  50
ATOM     50  C   UNL     1       5.467   5.915  -8.093  0.00  0.00    +0.174 C 
BRANCH  50  51
ATOM     51  O   UNL     1       6.040   4.902  -8.868  0.00  0.00    -0.348 OA
BRANCH  51  52
ATOM     52  C   UNL     1       6.514   5.404 -10.062  0.00  0.00    +0.175 C 
BRANCH  52  54
ATOM     53  C   UNL     1       8.713   5.712 -10.760  0.00  0.00    +0.038 C 
ATOM     54  C   UNL     1       7.740   6.404  -9.617  0.00  0.00    +0.181 C 
ATOM     55  O   UNL     1       7.366   7.522 -10.555  0.00  0.00    -0.220 OA
ENDBRANCH  52  54
ENDBRANCH  51  52
ENDBRANCH  50  51
ENDBRANCH  29  50
ENDBRANCH   1  33
TORSDOF 28
ENDMDL
MODEL 9
REMARK VINA RESULT:      -2.3      3.018      7.658
REMARK  Name = 
REMARK  28 active torsions:
REMARK  status: ('A' for Active; 'I' for Inactive)
REMARK    1  A    between atoms: C_2  and  C_4
REMARK    2  A    between atoms: C_4  and  O_5
REMARK    3  A    between atoms: O_5  and  C_6
REMARK    4  A    between atoms: C_6  and  C_7
REMARK    5  A    between atoms: C_9  and  O_10
REMARK    6  A    between atoms: O_10  and  C_11
REMARK    7  A    between atoms: C_12  and  O_13
REMARK    8  A    between atoms: O_13  and  C_14
REMARK    9  A    between atoms: C_14  and  C_15
REMARK   10  A    between atoms: C_18  and  O_19
REMARK   11  A    between atoms: O_19  and  C_20
REMARK   12  A    between atoms: C_20  and  C_21
REMARK   13  A    between atoms: C_24  and  O_25
REMARK   14  A    between atoms: O_25  and  C_26
REMARK   15  A    between atoms: C_26  and  C_27
REMARK   16  A    between atoms: C_31  and  C_32
REMARK   17  A    between atoms: C_32  and  O_33
REMARK   18  A    between atoms: O_33  and  C_34
REMARK   19  A    between atoms: C_34  and  C_35
REMARK   20  A    between atoms: C_38  and  O_39
REMARK   21  A    between atoms: O_39  and  C_40
REMARK   22  A    between atoms: C_40  and  C_41
REMARK   23  A    between atoms: C_44  and  O_45
REMARK   24  A    between atoms: O_45  and  C_46
REMARK   25  A    between atoms: C_46  and  C_47
REMARK   26  A    between atoms: C_50  and  O_51
REMARK   27  A    between atoms: O_51  and  C_52
REMARK   28  A    between atoms: C_52  and  C_53
REMARK                            x       y       z     vdW  Elec       q    Type
REMARK                         _______ _______ _______ _____ _____    ______ ____
ROOT
ATOM      1  O   UNL     1       3.472   5.416  -7.058  0.00  0.00    -0.326 OA
ENDROOT
BRANCH   1   2
ATOM      2  C   UNL     1       1.961   5.106  -6.941  0.00  0.00    +0.177 C 
ATOM      3  C   UNL     1       1.412   6.188  -5.762  0.00  0.00    +0.177 C 
ATOM      4  O   UNL     1       0.564   7.174  -6.339  0.00  0.00    -0.326 OA
ATOM      5  C   UNL     1       1.148   7.566  -4.929  0.00  0.00    +0.266 C 
ATOM      6  C   UNL     1       2.552   6.517  -4.744  0.00  0.00    +0.201 C 
ATOM      7  C   UNL     1       2.101   4.908  -5.213  0.00  0.00    +0.177 C 
BRANCH   3   8
ATOM      8  C   UNL     1       0.148   5.147  -5.281  0.00  0.00    +0.174 C 
BRANCH   8   9
ATOM      9  O   UNL     1      -0.575   5.403  -6.324  0.00  0.00    -0.348 OA
BRANCH   9  10
ATOM     10  C   UNL     1      -1.660   4.694  -6.289  0.00  0.00    +0.175 C 
BRANCH  10  11
ATOM     11  C   UNL     1      -2.371   6.102  -5.761  0.00  0.00    +0.181 C 
ATOM     12  O   UNL     1      -3.392   5.846  -6.843  0.00  0.00    -0.220 OA
ATOM     13  C   UNL     1      -3.231   5.314  -4.594  0.00  0.00    +0.038 C 
ENDBRANCH  10  11
ENDBRANCH   9  10
ENDBRANCH   8   9
ENDBRANCH   3   8
BRANCH   5  14
ATOM     14  O   UNL     1       0.224   6.801  -4.016  0.00  0.00    -0.326 OA
BRANCH  14  15
ATOM     15  C   UNL     1      -0.345   7.233  -3.001  0.00  0.00    +0.178 C 
BRANCH  15  16
ATOM     16  C   UNL     1      -0.879   6.201  -1.852  0.00  0.00    +0.182 C 
ATOM     17  O   UNL     1       0.142   6.604  -0.805  0.00  0.00    -0.220 OA
ATOM     18  C   UNL     1      -2.003   7.291  -1.327  0.00  0.00    +0.038 C 
ENDBRANCH  15  16
ENDBRANCH  14  15
ENDBRANCH   5  14
BRANCH   6  19
ATOM     19  O   UNL     1       3.318   7.109  -5.879  0.00  0.00    -0.346 OA
BRANCH  19  20
ATOM     20  C   UNL     1       4.585   7.587  -5.526  0.00  0.00    +0.175 C 
BRANCH  20  21
ATOM     21  C   UNL     1       5.038   6.994  -4.073  0.00  0.00    +0.181 C 
ATOM     22  O   UNL     1       6.478   7.446  -4.259  0.00  0.00    -0.220 OA
ATOM     23  C   UNL     1       4.601   8.328  -3.213  0.00  0.00    +0.038 C 
ENDBRANCH  20  21
ENDBRANCH  19  20
ENDBRANCH   6  19
BRANCH   7  24
ATOM     24  O   UNL     1       3.408   4.251  -5.215  0.00  0.00    -0.348 OA
BRANCH  24  25
ATOM     25  C   UNL     1       3.559   3.815  -3.961  0.00  0.00    +0.175 C 
BRANCH  25  26
ATOM     26  C   UNL     1       3.246   4.973  -2.847  0.00  0.00    +0.181 C 
ATOM     27  O   UNL     1       2.120   4.222  -2.159  0.00  0.00    -0.220 OA
ATOM     28  C   UNL     1       4.404   4.285  -1.890  0.00  0.00    +0.038 C 
ENDBRANCH  25  26
ENDBRANCH  24  25
ENDBRANCH   7  24
ENDBRANCH   1   2
BRANCH   1  33
ATOM     29  C   UNL     1       2.187   4.534 -10.193  0.00  0.00    +0.177 C 
ATOM     30  C   UNL     1       2.847   6.050 -10.721  0.00  0.00    +0.174 C 
ATOM     31  C   UNL     1       4.317   5.154 -10.628  0.00  0.00    +0.177 C 
ATOM     32  C   UNL     1       4.575   5.906  -9.095  0.00  0.00    +0.201 C 
ATOM     33  C   UNL     1       3.710   4.594  -8.333  0.00  0.00    +0.266 C 
ATOM     34  O   UNL     1       2.367   5.077  -8.822  0.00  0.00    -0.326 OA
BRANCH  32  35
ATOM     35  O   UNL     1       5.873   5.195  -8.977  0.00  0.00    -0.346 OA
BRANCH  35  36
ATOM     36  C   UNL     1       6.747   5.801  -8.188  0.00  0.00    +0.175 C 
BRANCH  36  37
ATOM     37  C   UNL     1       8.196   5.703  -8.971  0.00  0.00    +0.181 C 
ATOM     38  O   UNL     1       7.731   4.732 -10.044  0.00  0.00    -0.220 OA
ATOM     39  C   UNL     1       7.818   6.996  -9.924  0.00  0.00    +0.038 C 
ENDBRANCH  36  37
ENDBRANCH  35  36
ENDBRANCH  32  35
BRANCH  31  40
ATOM     40  O   UNL     1       5.140   6.089 -11.466  0.00  0.00    -0.348 OA
BRANCH  40  41
ATOM     41  C   UNL     1       5.707   5.156 -12.312  0.00  0.00    +0.175 C 
BRANCH  41  42
ATOM     42  C   UNL     1       6.227   5.918 -13.673  0.00  0.00    +0.181 C 
ATOM     43  O   UNL     1       6.215   7.270 -12.975  0.00  0.00    -0.220 OA
ATOM     44  C   UNL     1       7.829   5.700 -13.341  0.00  0.00    +0.038 C 
ENDBRANCH  41  42
ENDBRANCH  40  41
ENDBRANCH  31  40
BRANCH  30  45
ATOM     45  O   UNL     1       2.589   5.776 -12.154  0.00  0.00    -0.348 OA
BRANCH  45  46
ATOM     46  C   UNL     1       2.609   6.808 -12.951  0.00  0.00    +0.175 C 
BRANCH  46  47
ATOM     47  C   UNL     1       2.012   6.284 -14.396  0.00  0.00    +0.181 C 
ATOM     48  O   UNL     1       3.317   6.596 -15.106  0.00  0.00    -0.220 OA
ATOM     49  C   UNL     1       2.496   4.748 -14.045  0.00  0.00    +0.038 C 
ENDBRANCH  46  47
ENDBRANCH  45  46
ENDBRANCH  30  45
BRANCH  29  50
ATOM     50  C   UNL     1       0.639   5.090 -10.208  0.00  0.00    +0.174 C 
BRANCH  50  51
ATOM     51  O   UNL     1       0.259   4.609 -11.465  0.00  0.00    -0.348 OA
BRANCH  51  52
ATOM     52  C   UNL     1      -0.636   5.465 -12.069  0.00  0.00    +0.175 C 
BRANCH  52  54
ATOM     53  C   UNL     1      -0.307   7.752 -12.352  0.00  0.00    +0.038 C 
ATOM     54  C   UNL     1      -0.675   6.772 -11.073  0.00  0.00    +0.181 C 
ATOM     55  O   UNL     1      -2.147   7.041 -11.240  0.00  0.00    -0.220 OA
ENDBRANCH  52  54
ENDBRANCH  51  52
ENDBRANCH  50  51
ENDBRANCH  29  50
ENDBRANCH   1  33
TORSDOF 28
ENDMDL
