MODEL 1
REMARK VINA RESULT:      -9.3      0.000      0.000
REMARK  Name = 
REMARK  20 active torsions:
REMARK  status: ('A' for Active; 'I' for Inactive)
REMARK    1  A    between atoms: C_2  and  C_4
REMARK    2  A    between atoms: C_6  and  C_7
REMARK    3  A    between atoms: C_7  and  N_8
REMARK    4  A    between atoms: N_12  and  C_13
REMARK    5  A    between atoms: C_13  and  C_14
REMARK    6  A    between atoms: C_13  and  C_22
REMARK    7  A    between atoms: C_14  and  C_15
REMARK    8  A    between atoms: C_15  and  N_16
REMARK    9  A    between atoms: N_24  and  C_25
REMARK   10  A    between atoms: C_25  and  C_26
REMARK   11  A    between atoms: C_25  and  C_46
REMARK   12  A    between atoms: C_26  and  C_27
REMARK   13  A    between atoms: C_27  and  C_28
REMARK   14  A    between atoms: C_28  and  C_29
REMARK   15  A    between atoms: C_28  and  N_36
REMARK   16  A    between atoms: C_29  and  C_30
REMARK   17  A    between atoms: C_37  and  O_39
REMARK   18  A    between atoms: O_39  and  C_40
REMARK   19  A    between atoms: C_40  and  C_41
REMARK   20  A    between atoms: C_46  and  C_47
REMARK                            x       y       z     vdW  Elec       q    Type
REMARK                         _______ _______ _______ _____ _____    ______ ____
ROOT
ATOM      1  C   UNL     1       2.423   5.871  -6.234  0.00  0.00    +0.100 C 
ENDROOT
BRANCH   1   3
ATOM      2  C   UNL     1       3.412   5.423  -3.939  0.00  0.00    +0.261 C 
ATOM      3  N   UNL     1       2.795   6.317  -4.767  0.00  0.00    -0.205 NA
ATOM      4  O   UNL     1       3.905   4.344  -4.394  0.00  0.00    -0.271 OA
BRANCH   2   5
ATOM      5  C   UNL     1       2.916   5.181  -2.414  0.00  0.00    +0.176 C 
BRANCH   5   8
ATOM      6  N   UNL     1       4.476   7.625   0.055  0.00  0.00    -0.255 N 
ATOM      7  C   UNL     1       4.285   6.399  -0.662  0.00  0.00    +0.324 C 
ATOM      8  N   UNL     1       3.643   6.501  -1.913  0.00  0.00    -0.181 NA
ATOM      9  O   UNL     1       4.332   5.338  -0.004  0.00  0.00    -0.251 OA
ATOM     10  C   UNL     1       5.670   7.735   0.865  0.00  0.00    +0.117 C 
BRANCH   6  11
ATOM     11  C   UNL     1       3.325   8.414   0.419  0.00  0.00    +0.141 C 
BRANCH  11  15
ATOM     12  C   UNL     1       3.946  11.814   1.493  0.00  0.00    +0.088 A 
ATOM     13  S   UNL     1       3.953  12.172  -0.189  0.00  0.00    -0.071 S 
ATOM     14  C   UNL     1       3.568  10.599  -0.766  0.00  0.00    +0.053 A 
ATOM     15  C   UNL     1       3.623   9.883   0.428  0.00  0.00    +0.086 A 
ATOM     16  N   UNL     1       3.245  10.655   1.460  0.00  0.00    -0.245 NA
BRANCH  12  18
ATOM     17  C   UNL     1       4.223  13.142   2.626  0.00  0.00    +0.007 C 
ATOM     18  C   UNL     1       3.991  12.800   2.618  0.00  0.00    +0.047 C 
ATOM     19  C   UNL     1       2.979  12.372   3.673  0.00  0.00    +0.007 C 
ENDBRANCH  12  18
ENDBRANCH  11  15
ENDBRANCH   6  11
ENDBRANCH   5   8
BRANCH   5  20
ATOM     20  C   UNL     1       1.444   5.916  -2.579  0.00  0.00    +0.048 C 
BRANCH  20  21
ATOM     21  C   UNL     1       0.412   5.053  -1.983  0.00  0.00    +0.075 C 
BRANCH  21  22
ATOM     22  N   UNL     1      -0.405   5.766  -1.127  0.00  0.00    -0.268 NA
ATOM     23  C   UNL     1       0.135   6.425  -0.005  0.00  0.00    +0.105 C 
ATOM     24  C   UNL     1      -0.436   7.836   0.071  0.00  0.00    +0.159 C 
ATOM     25  O   UNL     1      -1.807   7.856  -0.094  0.00  0.00    -0.351 OA
ATOM     26  C   UNL     1      -2.228   7.260  -1.283  0.00  0.00    +0.159 C 
ATOM     27  C   UNL     1      -1.799   5.797  -1.313  0.00  0.00    +0.105 C 
ENDBRANCH  21  22
ENDBRANCH  20  21
ENDBRANCH   5  20
ENDBRANCH   2   5
ENDBRANCH   1   3
BRANCH   1  28
ATOM     28  C   UNL     1       3.751   6.620  -6.864  0.00  0.00    +0.024 C 
BRANCH  28  29
ATOM     29  C   UNL     1       3.235   6.788  -8.290  0.00  0.00    +0.024 C 
BRANCH  29  30
ATOM     30  C   UNL     1       4.256   5.804  -9.131  0.00  0.00    +0.103 C 
BRANCH  30  31
ATOM     31  N   UNL     1       3.106   5.375 -10.125  0.00  0.00    -0.170 NA
ATOM     32  C   UNL     1       2.180   4.542  -9.419  0.00  0.00    +0.421 C 
ATOM     33  O   UNL     1       2.588   3.526  -8.779  0.00  0.00    -0.225 OA
BRANCH  32  34
ATOM     34  O   UNL     1       0.805   4.570  -9.635  0.00  0.00    -0.428 OA
BRANCH  34  35
ATOM     35  C   UNL     1       0.239   4.294 -10.917  0.00  0.00    +0.245 C 
BRANCH  35  36
ATOM     36  C   UNL     1       0.207   5.612 -11.625  0.00  0.00    +0.071 A 
ATOM     37  S   UNL     1       0.903   6.115 -13.111  0.00  0.00    -0.065 S 
ATOM     38  C   UNL     1       0.422   7.764 -13.061  0.00  0.00    +0.134 A 
ATOM     39  N   UNL     1      -0.483   7.712 -12.052  0.00  0.00    -0.235 NA
ATOM     40  C   UNL     1      -0.105   6.861 -11.096  0.00  0.00    +0.105 A 
ENDBRANCH  35  36
ENDBRANCH  34  35
ENDBRANCH  32  34
ENDBRANCH  30  31
BRANCH  30  41
ATOM     41  C   UNL     1       4.735   7.041 -10.112  0.00  0.00    +0.048 C 
BRANCH  41  42
ATOM     42  C   UNL     1       6.115   6.698 -10.526  0.00  0.00    -0.020 A 
ATOM     43  C   UNL     1       6.468   6.977 -11.828  0.00  0.00    -0.004 A 
ATOM     44  C   UNL     1       7.646   6.501 -12.364  0.00  0.00    -0.000 A 
ATOM     45  C   UNL     1       8.418   5.644 -11.630  0.00  0.00    -0.000 A 
ATOM     46  C   UNL     1       8.067   5.325 -10.336  0.00  0.00    -0.000 A 
ATOM     47  C   UNL     1       7.001   5.984  -9.765  0.00  0.00    -0.004 A 
ENDBRANCH  41  42
ENDBRANCH  30  41
ENDBRANCH  29  30
ENDBRANCH  28  29
ENDBRANCH   1  28
BRANCH   1  48
ATOM     48  C   UNL     1       1.487   7.210  -6.470  0.00  0.00    +0.048 C 
BRANCH  48  49
ATOM     49  C   UNL     1       0.124   6.732  -6.136  0.00  0.00    -0.020 A 
ATOM     50  C   UNL     1      -0.646   7.303  -5.133  0.00  0.00    -0.004 A 
ATOM     51  C   UNL     1      -2.003   7.041  -5.024  0.00  0.00    -0.000 A 
ATOM     52  C   UNL     1      -2.508   5.936  -5.660  0.00  0.00    -0.000 A 
ATOM     53  C   UNL     1      -1.655   5.157  -6.422  0.00  0.00    -0.000 A 
ATOM     54  C   UNL     1      -0.507   5.766  -6.903  0.00  0.00    -0.004 A 
ENDBRANCH  48  49
ENDBRANCH   1  48
TORSDOF 20
ENDMDL
MODEL 2
REMARK VINA RESULT:      -9.2      1.213      1.431
REMARK  Name = 
REMARK  20 active torsions:
REMARK  status: ('A' for Active; 'I' for Inactive)
REMARK    1  A    between atoms: C_2  and  C_4
REMARK    2  A    between atoms: C_6  and  C_7
REMARK    3  A    between atoms: C_7  and  N_8
REMARK    4  A    between atoms: N_12  and  C_13
REMARK    5  A    between atoms: C_13  and  C_14
REMARK    6  A    between atoms: C_13  and  C_22
REMARK    7  A    between atoms: C_14  and  C_15
REMARK    8  A    between atoms: C_15  and  N_16
REMARK    9  A    between atoms: N_24  and  C_25
REMARK   10  A    between atoms: C_25  and  C_26
REMARK   11  A    between atoms: C_25  and  C_46
REMARK   12  A    between atoms: C_26  and  C_27
REMARK   13  A    between atoms: C_27  and  C_28
REMARK   14  A    between atoms: C_28  and  C_29
REMARK   15  A    between atoms: C_28  and  N_36
REMARK   16  A    between atoms: C_29  and  C_30
REMARK   17  A    between atoms: C_37  and  O_39
REMARK   18  A    between atoms: O_39  and  C_40
REMARK   19  A    between atoms: C_40  and  C_41
REMARK   20  A    between atoms: C_46  and  C_47
REMARK                            x       y       z     vdW  Elec       q    Type
REMARK                         _______ _______ _______ _____ _____    ______ ____
ROOT
ATOM      1  C   UNL     1       2.478   5.801  -6.446  0.00  0.00    +0.100 C 
ENDROOT
BRANCH   1   3
ATOM      2  C   UNL     1       3.472   5.344  -4.154  0.00  0.00    +0.261 C 
ATOM      3  N   UNL     1       2.908   6.258  -4.998  0.00  0.00    -0.205 NA
ATOM      4  O   UNL     1       3.876   4.219  -4.587  0.00  0.00    -0.271 OA
BRANCH   2   5
ATOM      5  C   UNL     1       2.986   5.181  -2.616  0.00  0.00    +0.176 C 
BRANCH   5   8
ATOM      6  N   UNL     1       4.403   7.824  -0.270  0.00  0.00    -0.255 N 
ATOM      7  C   UNL     1       4.052   6.518  -0.746  0.00  0.00    +0.324 C 
ATOM      8  N   UNL     1       3.912   6.380  -2.142  0.00  0.00    -0.181 NA
ATOM      9  O   UNL     1       3.532   5.731   0.074  0.00  0.00    -0.251 OA
ATOM     10  C   UNL     1       5.243   7.893   0.906  0.00  0.00    +0.117 C 
BRANCH   6  11
ATOM     11  C   UNL     1       3.528   8.935  -0.553  0.00  0.00    +0.141 C 
BRANCH  11  15
ATOM     12  C   UNL     1       2.146  10.525   2.389  0.00  0.00    +0.088 A 
ATOM     13  S   UNL     1       3.502  11.574   2.260  0.00  0.00    -0.071 S 
ATOM     14  C   UNL     1       4.163  10.928   0.811  0.00  0.00    +0.053 A 
ATOM     15  C   UNL     1       3.333   9.823   0.638  0.00  0.00    +0.086 A 
ATOM     16  N   UNL     1       2.101  10.078   1.111  0.00  0.00    -0.245 NA
BRANCH  12  18
ATOM     17  C   UNL     1       1.004  10.844   3.701  0.00  0.00    +0.007 C 
ATOM     18  C   UNL     1       0.987  10.670   3.326  0.00  0.00    +0.047 C 
ATOM     19  C   UNL     1      -0.263  10.147   2.630  0.00  0.00    +0.007 C 
ENDBRANCH  12  18
ENDBRANCH  11  15
ENDBRANCH   6  11
ENDBRANCH   5   8
BRANCH   5  20
ATOM     20  C   UNL     1       1.634   6.124  -2.747  0.00  0.00    +0.048 C 
BRANCH  20  21
ATOM     21  C   UNL     1       0.443   5.270  -2.619  0.00  0.00    +0.075 C 
BRANCH  21  22
ATOM     22  N   UNL     1      -0.387   5.713  -1.609  0.00  0.00    -0.268 NA
ATOM     23  C   UNL     1       0.152   6.257  -0.426  0.00  0.00    +0.105 C 
ATOM     24  C   UNL     1      -0.590   7.542  -0.080  0.00  0.00    +0.159 C 
ATOM     25  O   UNL     1      -1.961   7.392  -0.157  0.00  0.00    -0.351 OA
ATOM     26  C   UNL     1      -2.397   6.937  -1.402  0.00  0.00    +0.159 C 
ATOM     27  C   UNL     1      -1.783   5.574  -1.703  0.00  0.00    +0.105 C 
ENDBRANCH  21  22
ENDBRANCH  20  21
ENDBRANCH   5  20
ENDBRANCH   2   5
ENDBRANCH   1   3
BRANCH   1  28
ATOM     28  C   UNL     1       3.783   6.540  -7.132  0.00  0.00    +0.024 C 
BRANCH  28  29
ATOM     29  C   UNL     1       3.182   6.777  -8.514  0.00  0.00    +0.024 C 
BRANCH  29  30
ATOM     30  C   UNL     1       4.158   5.848  -9.465  0.00  0.00    +0.103 C 
BRANCH  30  31
ATOM     31  N   UNL     1       3.029   5.693 -10.560  0.00  0.00    -0.170 NA
ATOM     32  C   UNL     1       1.904   5.037  -9.964  0.00  0.00    +0.421 C 
ATOM     33  O   UNL     1       2.052   3.938  -9.349  0.00  0.00    -0.225 OA
BRANCH  32  34
ATOM     34  O   UNL     1       0.583   5.347 -10.276  0.00  0.00    -0.428 OA
BRANCH  34  35
ATOM     35  C   UNL     1      -0.091   4.741 -11.379  0.00  0.00    +0.245 C 
BRANCH  35  36
ATOM     36  C   UNL     1       0.576   5.294 -12.600  0.00  0.00    +0.071 A 
ATOM     37  S   UNL     1       0.695   6.901 -13.194  0.00  0.00    -0.065 S 
ATOM     38  C   UNL     1       1.540   6.561 -14.650  0.00  0.00    +0.134 A 
ATOM     39  N   UNL     1       1.916   5.280 -14.408  0.00  0.00    -0.235 NA
ATOM     40  C   UNL     1       0.973   4.609 -13.744  0.00  0.00    +0.105 A 
ENDBRANCH  35  36
ENDBRANCH  34  35
ENDBRANCH  32  34
ENDBRANCH  30  31
BRANCH  30  41
ATOM     41  C   UNL     1       4.793   7.176 -10.211  0.00  0.00    +0.048 C 
BRANCH  41  42
ATOM     42  C   UNL     1       6.155   6.772 -10.631  0.00  0.00    -0.020 A 
ATOM     43  C   UNL     1       6.504   7.009 -11.942  0.00  0.00    -0.004 A 
ATOM     44  C   UNL     1       7.659   6.479 -12.479  0.00  0.00    -0.000 A 
ATOM     45  C   UNL     1       8.405   5.609 -11.734  0.00  0.00    -0.000 A 
ATOM     46  C   UNL     1       8.056   5.332 -10.429  0.00  0.00    -0.000 A 
ATOM     47  C   UNL     1       7.022   6.042  -9.863  0.00  0.00    -0.004 A 
ENDBRANCH  41  42
ENDBRANCH  30  41
ENDBRANCH  29  30
ENDBRANCH  28  29
ENDBRANCH   1  28
BRANCH   1  48
ATOM     48  C   UNL     1       1.538   7.141  -6.657  0.00  0.00    +0.048 C 
BRANCH  48  49
ATOM     49  C   UNL     1       0.187   6.670  -6.270  0.00  0.00    -0.020 A 
ATOM     50  C   UNL     1      -0.580   7.304  -5.303  0.00  0.00    -0.004 A 
ATOM     51  C   UNL     1      -1.932   7.030  -5.157  0.00  0.00    -0.000 A 
ATOM     52  C   UNL     1      -2.427   5.873  -5.701  0.00  0.00    -0.000 A 
ATOM     53  C   UNL     1      -1.570   5.052  -6.414  0.00  0.00    -0.000 A 
ATOM     54  C   UNL     1      -0.438   5.640  -6.954  0.00  0.00    -0.004 A 
ENDBRANCH  48  49
ENDBRANCH   1  48
TORSDOF 20
ENDMDL
MODEL 3
REMARK VINA RESULT:      -9.1      2.649      5.189
REMARK  Name = 
REMARK  20 active torsions:
REMARK  status: ('A' for Active; 'I' for Inactive)
REMARK    1  A    between atoms: C_2  and  C_4
REMARK    2  A    between atoms: C_6  and  C_7
REMARK    3  A    between atoms: C_7  and  N_8
REMARK    4  A    between atoms: N_12  and  C_13
REMARK    5  A    between atoms: C_13  and  C_14
REMARK    6  A    between atoms: C_13  and  C_22
REMARK    7  A    between atoms: C_14  and  C_15
REMARK    8  A    between atoms: C_15  and  N_16
REMARK    9  A    between atoms: N_24  and  C_25
REMARK   10  A    between atoms: C_25  and  C_26
REMARK   11  A    between atoms: C_25  and  C_46
REMARK   12  A    between atoms: C_26  and  C_27
REMARK   13  A    between atoms: C_27  and  C_28
REMARK   14  A    between atoms: C_28  and  C_29
REMARK   15  A    between atoms: C_28  and  N_36
REMARK   16  A    between atoms: C_29  and  C_30
REMARK   17  A    between atoms: C_37  and  O_39
REMARK   18  A    between atoms: O_39  and  C_40
REMARK   19  A    between atoms: C_40  and  C_41
REMARK   20  A    between atoms: C_46  and  C_47
REMARK                            x       y       z     vdW  Elec       q    Type
REMARK                         _______ _______ _______ _____ _____    ______ ____
ROOT
ATOM      1  C   UNL     1       1.898   5.591  -6.409  0.00  0.00    +0.100 C 
ENDROOT
BRANCH   1   3
ATOM      2  C   UNL     1       0.778   5.776  -4.137  0.00  0.00    +0.261 C 
ATOM      3  N   UNL     1       1.028   5.000  -5.233  0.00  0.00    -0.205 NA
ATOM      4  O   UNL     1       1.019   7.023  -4.153  0.00  0.00    -0.271 OA
BRANCH   2   5
ATOM      5  C   UNL     1       0.965   5.215  -2.627  0.00  0.00    +0.176 C 
BRANCH   5   8
ATOM      6  N   UNL     1       3.503   7.180  -0.578  0.00  0.00    -0.255 N 
ATOM      7  C   UNL     1       2.835   6.036  -1.127  0.00  0.00    +0.324 C 
ATOM      8  N   UNL     1       2.143   6.240  -2.337  0.00  0.00    -0.181 NA
ATOM      9  O   UNL     1       2.587   5.090  -0.348  0.00  0.00    -0.251 OA
ATOM     10  C   UNL     1       4.739   6.942   0.136  0.00  0.00    +0.117 C 
BRANCH   6  11
ATOM     11  C   UNL     1       2.731   8.350  -0.239  0.00  0.00    +0.141 C 
BRANCH  11  15
ATOM     12  C   UNL     1      -0.437   7.724   1.394  0.00  0.00    +0.088 A 
ATOM     13  S   UNL     1       0.488   7.757   2.843  0.00  0.00    -0.071 S 
ATOM     14  C   UNL     1       2.009   8.146   2.143  0.00  0.00    +0.053 A 
ATOM     15  C   UNL     1       1.681   8.060   0.791  0.00  0.00    +0.086 A 
ATOM     16  N   UNL     1       0.403   8.420   0.590  0.00  0.00    -0.245 NA
BRANCH  12  18
ATOM     17  C   UNL     1      -2.142   7.355   1.106  0.00  0.00    +0.007 C 
ATOM     18  C   UNL     1      -1.930   7.660   1.286  0.00  0.00    +0.047 C 
ATOM     19  C   UNL     1      -2.517   8.859   2.019  0.00  0.00    +0.007 C 
ENDBRANCH  12  18
ENDBRANCH  11  15
ENDBRANCH   6  11
ENDBRANCH   5   8
BRANCH   5  20
ATOM     20  C   UNL     1      -0.192   6.169  -1.930  0.00  0.00    +0.048 C 
BRANCH  20  21
ATOM     21  C   UNL     1      -1.507   5.540  -2.123  0.00  0.00    +0.075 C 
BRANCH  21  22
ATOM     22  N   UNL     1      -2.236   6.191  -3.100  0.00  0.00    -0.268 NA
ATOM     23  C   UNL     1      -2.372   7.592  -3.078  0.00  0.00    +0.105 C 
ATOM     24  C   UNL     1      -2.116   8.144  -4.474  0.00  0.00    +0.159 C 
ATOM     25  O   UNL     1      -2.799   7.444  -5.448  0.00  0.00    -0.351 OA
ATOM     26  C   UNL     1      -2.520   6.076  -5.442  0.00  0.00    +0.159 C 
ATOM     27  C   UNL     1      -2.914   5.470  -4.100  0.00  0.00    +0.105 C 
ENDBRANCH  21  22
ENDBRANCH  20  21
ENDBRANCH   5  20
ENDBRANCH   2   5
ENDBRANCH   1   3
BRANCH   1  28
ATOM     28  C   UNL     1       1.309   4.485  -7.482  0.00  0.00    +0.024 C 
BRANCH  28  29
ATOM     29  C   UNL     1       2.575   4.315  -8.316  0.00  0.00    +0.024 C 
BRANCH  29  30
ATOM     30  C   UNL     1       2.436   5.559  -9.390  0.00  0.00    +0.103 C 
BRANCH  30  31
ATOM     31  N   UNL     1       3.794   5.168 -10.096  0.00  0.00    -0.170 NA
ATOM     32  C   UNL     1       4.734   6.231  -9.896  0.00  0.00    +0.421 C 
ATOM     33  O   UNL     1       4.428   7.424 -10.196  0.00  0.00    -0.225 OA
BRANCH  32  34
ATOM     34  O   UNL     1       6.094   6.022  -9.690  0.00  0.00    -0.428 OA
BRANCH  34  35
ATOM     35  C   UNL     1       7.085   6.798 -10.364  0.00  0.00    +0.245 C 
BRANCH  35  36
ATOM     36  C   UNL     1       7.104   6.281 -11.768  0.00  0.00    +0.071 A 
ATOM     37  S   UNL     1       6.435   6.914 -13.217  0.00  0.00    -0.065 S 
ATOM     38  C   UNL     1       6.875   5.631 -14.271  0.00  0.00    +0.134 A 
ATOM     39  N   UNL     1       7.754   4.969 -13.478  0.00  0.00    -0.235 NA
ATOM     40  C   UNL     1       7.371   4.985 -12.199  0.00  0.00    +0.105 A 
ENDBRANCH  35  36
ENDBRANCH  34  35
ENDBRANCH  32  34
ENDBRANCH  30  31
BRANCH  30  41
ATOM     41  C   UNL     1       1.551   4.637 -10.433  0.00  0.00    +0.048 C 
BRANCH  41  42
ATOM     42  C   UNL     1       0.839   5.606 -11.300  0.00  0.00    -0.020 A 
ATOM     43  C   UNL     1       1.367   5.837 -12.550  0.00  0.00    -0.004 A 
ATOM     44  C   UNL     1       0.905   6.869 -13.339  0.00  0.00    -0.000 A 
ATOM     45  C   UNL     1      -0.008   7.747 -12.825  0.00  0.00    -0.000 A 
ATOM     46  C   UNL     1      -0.527   7.554 -11.563  0.00  0.00    -0.000 A 
ATOM     47  C   UNL     1      -0.201   6.397 -10.891  0.00  0.00    -0.004 A 
ENDBRANCH  41  42
ENDBRANCH  30  41
ENDBRANCH  29  30
ENDBRANCH  28  29
ENDBRANCH   1  28
BRANCH   1  48
ATOM     48  C   UNL     1       3.180   4.623  -6.030  0.00  0.00    +0.048 C 
BRANCH  48  49
ATOM     49  C   UNL     1       4.051   5.515  -5.229  0.00  0.00    -0.020 A 
ATOM     50  C   UNL     1       4.159   6.876  -5.473  0.00  0.00    -0.004 A 
ATOM     51  C   UNL     1       4.745   7.732  -4.553  0.00  0.00    -0.000 A 
ATOM     52  C   UNL     1       5.552   7.196  -3.583  0.00  0.00    -0.000 A 
ATOM     53  C   UNL     1       5.710   5.822  -3.531  0.00  0.00    -0.000 A 
ATOM     54  C   UNL     1       4.710   5.051  -4.101  0.00  0.00    -0.004 A 
ENDBRANCH  48  49
ENDBRANCH   1  48
TORSDOF 20
ENDMDL
MODEL 4
REMARK VINA RESULT:      -8.8      2.168      3.753
REMARK  Name = 
REMARK  20 active torsions:
REMARK  status: ('A' for Active; 'I' for Inactive)
REMARK    1  A    between atoms: C_2  and  C_4
REMARK    2  A    between atoms: C_6  and  C_7
REMARK    3  A    between atoms: C_7  and  N_8
REMARK    4  A    between atoms: N_12  and  C_13
REMARK    5  A    between atoms: C_13  and  C_14
REMARK    6  A    between atoms: C_13  and  C_22
REMARK    7  A    between atoms: C_14  and  C_15
REMARK    8  A    between atoms: C_15  and  N_16
REMARK    9  A    between atoms: N_24  and  C_25
REMARK   10  A    between atoms: C_25  and  C_26
REMARK   11  A    between atoms: C_25  and  C_46
REMARK   12  A    between atoms: C_26  and  C_27
REMARK   13  A    between atoms: C_27  and  C_28
REMARK   14  A    between atoms: C_28  and  C_29
REMARK   15  A    between atoms: C_28  and  N_36
REMARK   16  A    between atoms: C_29  and  C_30
REMARK   17  A    between atoms: C_37  and  O_39
REMARK   18  A    between atoms: O_39  and  C_40
REMARK   19  A    between atoms: C_40  and  C_41
REMARK   20  A    between atoms: C_46  and  C_47
REMARK                            x       y       z     vdW  Elec       q    Type
REMARK                         _______ _______ _______ _____ _____    ______ ____
ROOT
ATOM      1  C   UNL     1       0.971   5.921  -6.340  0.00  0.00    +0.100 C 
ENDROOT
BRANCH   1   3
ATOM      2  C   UNL     1      -0.789   6.300  -4.550  0.00  0.00    +0.261 C 
ATOM      3  N   UNL     1      -0.241   5.436  -5.455  0.00  0.00    -0.205 NA
ATOM      4  O   UNL     1      -0.511   7.539  -4.580  0.00  0.00    -0.271 OA
BRANCH   2   5
ATOM      5  C   UNL     1      -1.100   5.860  -3.021  0.00  0.00    +0.176 C 
BRANCH   5   8
ATOM      6  N   UNL     1       2.084   6.167  -0.955  0.00  0.00    -0.255 N 
ATOM      7  C   UNL     1       1.142   5.592  -1.869  0.00  0.00    +0.324 C 
ATOM      8  N   UNL     1       0.264   6.491  -2.508  0.00  0.00    -0.181 NA
ATOM      9  O   UNL     1       0.903   4.370  -1.751  0.00  0.00    -0.251 OA
ATOM     10  C   UNL     1       3.382   5.534  -0.861  0.00  0.00    +0.117 C 
BRANCH   6  11
ATOM     11  C   UNL     1       1.599   6.906   0.184  0.00  0.00    +0.141 C 
BRANCH  11  15
ATOM     12  C   UNL     1       3.351  10.071   0.243  0.00  0.00    +0.088 A 
ATOM     13  S   UNL     1       4.250   9.365   1.528  0.00  0.00    -0.071 S 
ATOM     14  C   UNL     1       3.525   7.807   1.494  0.00  0.00    +0.053 A 
ATOM     15  C   UNL     1       2.513   8.032   0.563  0.00  0.00    +0.086 A 
ATOM     16  N   UNL     1       2.901   8.939  -0.349  0.00  0.00    -0.245 NA
BRANCH  12  18
ATOM     17  C   UNL     1       3.441  11.516  -0.772  0.00  0.00    +0.007 C 
ATOM     18  C   UNL     1       3.627  11.381  -0.428  0.00  0.00    +0.047 C 
ATOM     19  C   UNL     1       4.630  12.154   0.419  0.00  0.00    +0.007 C 
ENDBRANCH  12  18
ENDBRANCH  11  15
ENDBRANCH   6  11
ENDBRANCH   5   8
BRANCH   5  20
ATOM     20  C   UNL     1      -1.998   7.189  -2.623  0.00  0.00    +0.048 C 
BRANCH  20  21
ATOM     21  C   UNL     1      -2.785   6.890  -1.417  0.00  0.00    +0.075 C 
BRANCH  21  22
ATOM     22  N   UNL     1      -2.076   7.183  -0.269  0.00  0.00    -0.268 NA
ATOM     23  C   UNL     1      -1.532   8.468  -0.072  0.00  0.00    +0.105 C 
ATOM     24  C   UNL     1      -1.849   8.935   1.343  0.00  0.00    +0.159 C 
ATOM     25  O   UNL     1      -1.578   7.965   2.289  0.00  0.00    -0.351 OA
ATOM     26  C   UNL     1      -2.241   6.761   2.049  0.00  0.00    +0.159 C 
ATOM     27  C   UNL     1      -1.819   6.194   0.698  0.00  0.00    +0.105 C 
ENDBRANCH  21  22
ENDBRANCH  20  21
ENDBRANCH   5  20
ENDBRANCH   2   5
ENDBRANCH   1   3
BRANCH   1  28
ATOM     28  C   UNL     1       0.457   5.038  -7.635  0.00  0.00    +0.024 C 
BRANCH  28  29
ATOM     29  C   UNL     1       0.462   6.163  -8.666  0.00  0.00    +0.024 C 
BRANCH  29  30
ATOM     30  C   UNL     1       1.659   5.673  -9.688  0.00  0.00    +0.103 C 
BRANCH  30  31
ATOM     31  N   UNL     1       1.098   6.573 -10.858  0.00  0.00    -0.170 NA
ATOM     32  C   UNL     1       1.292   5.883 -12.098  0.00  0.00    +0.421 C 
ATOM     33  O   UNL     1       2.438   5.442 -12.415  0.00  0.00    -0.225 OA
BRANCH  32  34
ATOM     34  O   UNL     1       0.384   5.930 -13.152  0.00  0.00    -0.428 OA
BRANCH  34  35
ATOM     35  C   UNL     1       0.761   5.586 -14.485  0.00  0.00    +0.245 C 
BRANCH  35  36
ATOM     36  C   UNL     1       0.548   6.831 -15.289  0.00  0.00    +0.071 A 
ATOM     37  S   UNL     1      -0.596   7.206 -16.512  0.00  0.00    -0.065 S 
ATOM     38  C   UNL     1      -0.033   8.782 -16.898  0.00  0.00    +0.134 A 
ATOM     39  N   UNL     1       0.799   8.996 -15.848  0.00  0.00    -0.235 NA
ATOM     40  C   UNL     1       1.438   7.880 -15.493  0.00  0.00    +0.105 A 
ENDBRANCH  35  36
ENDBRANCH  34  35
ENDBRANCH  32  34
ENDBRANCH  30  31
BRANCH  30  41
ATOM     41  C   UNL     1       2.673   6.865  -9.167  0.00  0.00    +0.048 C 
BRANCH  41  42
ATOM     42  C   UNL     1       4.040   6.335  -9.382  0.00  0.00    -0.020 A 
ATOM     43  C   UNL     1       4.559   5.519  -8.401  0.00  0.00    -0.004 A 
ATOM     44  C   UNL     1       5.889   5.156  -8.407  0.00  0.00    -0.000 A 
ATOM     45  C   UNL     1       6.730   5.708  -9.333  0.00  0.00    -0.000 A 
ATOM     46  C   UNL     1       6.238   6.553 -10.304  0.00  0.00    -0.000 A 
ATOM     47  C   UNL     1       4.875   6.723 -10.395  0.00  0.00    -0.004 A 
ENDBRANCH  41  42
ENDBRANCH  30  41
ENDBRANCH  29  30
ENDBRANCH  28  29
ENDBRANCH   1  28
BRANCH   1  48
ATOM     48  C   UNL     1       1.932   4.688  -5.811  0.00  0.00    +0.048 C 
BRANCH  48  49
ATOM     49  C   UNL     1       3.034   5.393  -5.115  0.00  0.00    -0.020 A 
ATOM     50  C   UNL     1       4.077   4.725  -4.490  0.00  0.00    -0.004 A 
ATOM     51  C   UNL     1       5.230   5.387  -4.097  0.00  0.00    -0.000 A 
ATOM     52  C   UNL     1       5.191   6.753  -3.979  0.00  0.00    -0.000 A 
ATOM     53  C   UNL     1       4.020   7.416  -4.301  0.00  0.00    -0.000 A 
ATOM     54  C   UNL     1       3.148   6.773  -5.164  0.00  0.00    -0.004 A 
ENDBRANCH  48  49
ENDBRANCH   1  48
TORSDOF 20
ENDMDL
MODEL 5
REMARK VINA RESULT:      -8.5      1.773      5.182
REMARK  Name = 
REMARK  20 active torsions:
REMARK  status: ('A' for Active; 'I' for Inactive)
REMARK    1  A    between atoms: C_2  and  C_4
REMARK    2  A    between atoms: C_6  and  C_7
REMARK    3  A    between atoms: C_7  and  N_8
REMARK    4  A    between atoms: N_12  and  C_13
REMARK    5  A    between atoms: C_13  and  C_14
REMARK    6  A    between atoms: C_13  and  C_22
REMARK    7  A    between atoms: C_14  and  C_15
REMARK    8  A    between atoms: C_15  and  N_16
REMARK    9  A    between atoms: N_24  and  C_25
REMARK   10  A    between atoms: C_25  and  C_26
REMARK   11  A    between atoms: C_25  and  C_46
REMARK   12  A    between atoms: C_26  and  C_27
REMARK   13  A    between atoms: C_27  and  C_28
REMARK   14  A    between atoms: C_28  and  C_29
REMARK   15  A    between atoms: C_28  and  N_36
REMARK   16  A    between atoms: C_29  and  C_30
REMARK   17  A    between atoms: C_37  and  O_39
REMARK   18  A    between atoms: O_39  and  C_40
REMARK   19  A    between atoms: C_40  and  C_41
REMARK   20  A    between atoms: C_46  and  C_47
REMARK                            x       y       z     vdW  Elec       q    Type
REMARK                         _______ _______ _______ _____ _____    ______ ____
ROOT
ATOM      1  C   UNL     1       3.983   6.131  -6.841  0.00  0.00    +0.100 C 
ENDROOT
BRANCH   1   3
ATOM      2  C   UNL     1       2.710   6.103  -4.644  0.00  0.00    +0.261 C 
ATOM      3  N   UNL     1       2.982   5.464  -5.820  0.00  0.00    -0.205 NA
ATOM      4  O   UNL     1       3.046   7.315  -4.467  0.00  0.00    -0.271 OA
BRANCH   2   5
ATOM      5  C   UNL     1       2.737   5.329  -3.219  0.00  0.00    +0.176 C 
BRANCH   5   8
ATOM      6  N   UNL     1       4.463   7.533  -0.639  0.00  0.00    -0.255 N 
ATOM      7  C   UNL     1       3.939   6.337  -1.229  0.00  0.00    +0.324 C 
ATOM      8  N   UNL     1       3.814   6.337  -2.633  0.00  0.00    -0.181 NA
ATOM      9  O   UNL     1       3.293   5.567  -0.486  0.00  0.00    -0.251 OA
ATOM     10  C   UNL     1       5.276   7.382   0.548  0.00  0.00    +0.117 C 
BRANCH   6  11
ATOM     11  C   UNL     1       3.763   8.779  -0.835  0.00  0.00    +0.141 C 
BRANCH  11  15
ATOM     12  C   UNL     1       2.082   9.523   2.282  0.00  0.00    +0.088 A 
ATOM     13  S   UNL     1       3.079  10.923   2.299  0.00  0.00    -0.071 S 
ATOM     14  C   UNL     1       3.850  10.681   0.781  0.00  0.00    +0.053 A 
ATOM     15  C   UNL     1       3.362   9.416   0.461  0.00  0.00    +0.086 A 
ATOM     16  N   UNL     1       2.124   9.247   0.956  0.00  0.00    -0.245 NA
BRANCH  12  18
ATOM     17  C   UNL     1       0.737   9.492   3.429  0.00  0.00    +0.007 C 
ATOM     18  C   UNL     1       0.960   9.212   3.224  0.00  0.00    +0.047 C 
ATOM     19  C   UNL     1       0.735   7.705   3.223  0.00  0.00    +0.007 C 
ENDBRANCH  12  18
ENDBRANCH  11  15
ENDBRANCH   6  11
ENDBRANCH   5   8
BRANCH   5  20
ATOM     20  C   UNL     1       1.454   6.127  -2.549  0.00  0.00    +0.048 C 
BRANCH  20  21
ATOM     21  C   UNL     1       0.373   5.163  -2.294  0.00  0.00    +0.075 C 
BRANCH  21  22
ATOM     22  N   UNL     1      -0.568   5.681  -1.427  0.00  0.00    -0.268 NA
ATOM     23  C   UNL     1      -0.168   6.367  -0.263  0.00  0.00    +0.105 C 
ATOM     24  C   UNL     1      -0.975   7.654  -0.136  0.00  0.00    +0.159 C 
ATOM     25  O   UNL     1      -2.326   7.446  -0.332  0.00  0.00    -0.351 OA
ATOM     26  C   UNL     1      -2.619   6.846  -1.558  0.00  0.00    +0.159 C 
ATOM     27  C   UNL     1      -1.943   5.482  -1.644  0.00  0.00    +0.105 C 
ENDBRANCH  21  22
ENDBRANCH  20  21
ENDBRANCH   5  20
ENDBRANCH   2   5
ENDBRANCH   1   3
BRANCH   1  28
ATOM     28  C   UNL     1       2.747   6.793  -7.712  0.00  0.00    +0.024 C 
BRANCH  28  29
ATOM     29  C   UNL     1       1.923   5.522  -7.897  0.00  0.00    +0.024 C 
BRANCH  29  30
ATOM     30  C   UNL     1       0.441   6.139  -8.272  0.00  0.00    +0.103 C 
BRANCH  30  31
ATOM     31  N   UNL     1       0.305   5.183  -9.523  0.00  0.00    -0.170 NA
ATOM     32  C   UNL     1       0.493   5.960 -10.712  0.00  0.00    +0.421 C 
ATOM     33  O   UNL     1      -0.186   7.013 -10.907  0.00  0.00    -0.225 OA
BRANCH  32  34
ATOM     34  O   UNL     1       1.146   5.481 -11.844  0.00  0.00    -0.428 OA
BRANCH  34  35
ATOM     35  C   UNL     1       2.056   6.293 -12.587  0.00  0.00    +0.245 C 
BRANCH  35  36
ATOM     36  C   UNL     1       1.318   6.673 -13.833  0.00  0.00    +0.071 A 
ATOM     37  S   UNL     1       0.679   8.178 -14.354  0.00  0.00    -0.065 S 
ATOM     38  C   UNL     1      -0.047   7.642 -15.817  0.00  0.00    +0.134 A 
ATOM     39  N   UNL     1       0.520   6.414 -15.921  0.00  0.00    -0.235 NA
ATOM     40  C   UNL     1       0.660   5.834 -14.728  0.00  0.00    +0.105 A 
ENDBRANCH  35  36
ENDBRANCH  34  35
ENDBRANCH  32  34
ENDBRANCH  30  31
BRANCH  30  41
ATOM     41  C   UNL     1      -0.322   5.062  -7.283  0.00  0.00    +0.048 C 
BRANCH  41  42
ATOM     42  C   UNL     1      -1.053   5.891  -6.295  0.00  0.00    -0.020 A 
ATOM     43  C   UNL     1      -2.428   5.886  -6.366  0.00  0.00    -0.004 A 
ATOM     44  C   UNL     1      -3.181   6.783  -5.639  0.00  0.00    -0.000 A 
ATOM     45  C   UNL     1      -2.551   7.766  -4.929  0.00  0.00    -0.000 A 
ATOM     46  C   UNL     1      -1.174   7.809  -4.870  0.00  0.00    -0.000 A 
ATOM     47  C   UNL     1      -0.462   6.774  -5.433  0.00  0.00    -0.004 A 
ENDBRANCH  41  42
ENDBRANCH  30  41
ENDBRANCH  29  30
ENDBRANCH  28  29
ENDBRANCH   1  28
BRANCH   1  48
ATOM     48  C   UNL     1       4.007   4.784  -7.794  0.00  0.00    +0.048 C 
BRANCH  48  49
ATOM     49  C   UNL     1       4.990   5.133  -8.847  0.00  0.00    -0.020 A 
ATOM     50  C   UNL     1       4.665   5.171 -10.195  0.00  0.00    -0.004 A 
ATOM     51  C   UNL     1       5.503   5.766 -11.126  0.00  0.00    -0.000 A 
ATOM     52  C   UNL     1       6.814   5.978 -10.783  0.00  0.00    -0.000 A 
ATOM     53  C   UNL     1       7.234   5.635  -9.510  0.00  0.00    -0.000 A 
ATOM     54  C   UNL     1       6.264   5.570  -8.522  0.00  0.00    -0.004 A 
ENDBRANCH  48  49
ENDBRANCH   1  48
TORSDOF 20
ENDMDL
MODEL 6
REMARK VINA RESULT:      -8.5      1.781      3.528
REMARK  Name = 
REMARK  20 active torsions:
REMARK  status: ('A' for Active; 'I' for Inactive)
REMARK    1  A    between atoms: C_2  and  C_4
REMARK    2  A    between atoms: C_6  and  C_7
REMARK    3  A    between atoms: C_7  and  N_8
REMARK    4  A    between atoms: N_12  and  C_13
REMARK    5  A    between atoms: C_13  and  C_14
REMARK    6  A    between atoms: C_13  and  C_22
REMARK    7  A    between atoms: C_14  and  C_15
REMARK    8  A    between atoms: C_15  and  N_16
REMARK    9  A    between atoms: N_24  and  C_25
REMARK   10  A    between atoms: C_25  and  C_26
REMARK   11  A    between atoms: C_25  and  C_46
REMARK   12  A    between atoms: C_26  and  C_27
REMARK   13  A    between atoms: C_27  and  C_28
REMARK   14  A    between atoms: C_28  and  C_29
REMARK   15  A    between atoms: C_28  and  N_36
REMARK   16  A    between atoms: C_29  and  C_30
REMARK   17  A    between atoms: C_37  and  O_39
REMARK   18  A    between atoms: O_39  and  C_40
REMARK   19  A    between atoms: C_40  and  C_41
REMARK   20  A    between atoms: C_46  and  C_47
REMARK                            x       y       z     vdW  Elec       q    Type
REMARK                         _______ _______ _______ _____ _____    ______ ____
ROOT
ATOM      1  C   UNL     1       2.499   5.921  -6.076  0.00  0.00    +0.100 C 
ENDROOT
BRANCH   1   3
ATOM      2  C   UNL     1       3.561   5.530  -3.803  0.00  0.00    +0.261 C 
ATOM      3  N   UNL     1       2.904   6.398  -4.628  0.00  0.00    -0.205 NA
ATOM      4  O   UNL     1       4.062   4.453  -4.255  0.00  0.00    -0.271 OA
BRANCH   2   5
ATOM      5  C   UNL     1       3.113   5.303  -2.261  0.00  0.00    +0.176 C 
BRANCH   5   8
ATOM      6  N   UNL     1       4.354   7.992   0.132  0.00  0.00    -0.255 N 
ATOM      7  C   UNL     1       4.195   6.684  -0.433  0.00  0.00    +0.324 C 
ATOM      8  N   UNL     1       3.847   6.632  -1.797  0.00  0.00    -0.181 NA
ATOM      9  O   UNL     1       3.995   5.739   0.360  0.00  0.00    -0.251 OA
ATOM     10  C   UNL     1       5.353   8.146   1.166  0.00  0.00    +0.117 C 
BRANCH   6  11
ATOM     11  C   UNL     1       3.238   8.905   0.116  0.00  0.00    +0.141 C 
BRANCH  11  15
ATOM     12  C   UNL     1       4.147  12.117   1.512  0.00  0.00    +0.088 A 
ATOM     13  S   UNL     1       4.220  12.628  -0.128  0.00  0.00    -0.071 S 
ATOM     14  C   UNL     1       3.703  11.158  -0.855  0.00  0.00    +0.053 A 
ATOM     15  C   UNL     1       3.669  10.333   0.267  0.00  0.00    +0.086 A 
ATOM     16  N   UNL     1       3.343  11.037   1.363  0.00  0.00    -0.245 NA
BRANCH  12  18
ATOM     17  C   UNL     1       4.010  13.303   2.817  0.00  0.00    +0.007 C 
ATOM     18  C   UNL     1       4.260  12.986   2.727  0.00  0.00    +0.047 C 
ATOM     19  C   UNL     1       5.388  12.451   3.599  0.00  0.00    +0.007 C 
ENDBRANCH  12  18
ENDBRANCH  11  15
ENDBRANCH   6  11
ENDBRANCH   5   8
BRANCH   5  20
ATOM     20  C   UNL     1       1.632   6.027  -2.390  0.00  0.00    +0.048 C 
BRANCH  20  21
ATOM     21  C   UNL     1       0.608   5.117  -1.854  0.00  0.00    +0.075 C 
BRANCH  21  22
ATOM     22  N   UNL     1      -0.298   5.792  -1.061  0.00  0.00    -0.268 NA
ATOM     23  C   UNL     1       0.132   6.483   0.089  0.00  0.00    +0.105 C 
ATOM     24  C   UNL     1      -0.511   7.864   0.115  0.00  0.00    +0.159 C 
ATOM     25  O   UNL     1      -1.868   7.815  -0.141  0.00  0.00    -0.351 OA
ATOM     26  C   UNL     1      -2.178   7.193  -1.351  0.00  0.00    +0.159 C 
ATOM     27  C   UNL     1      -1.676   5.753  -1.339  0.00  0.00    +0.105 C 
ENDBRANCH  21  22
ENDBRANCH  20  21
ENDBRANCH   5  20
ENDBRANCH   2   5
ENDBRANCH   1   3
BRANCH   1  28
ATOM     28  C   UNL     1       3.772   6.719  -6.759  0.00  0.00    +0.024 C 
BRANCH  28  29
ATOM     29  C   UNL     1       4.263   5.589  -7.659  0.00  0.00    +0.024 C 
BRANCH  29  30
ATOM     30  C   UNL     1       3.709   6.075  -9.135  0.00  0.00    +0.103 C 
BRANCH  30  31
ATOM     31  N   UNL     1       4.890   5.333  -9.878  0.00  0.00    -0.170 NA
ATOM     32  C   UNL     1       4.958   5.819 -11.223  0.00  0.00    +0.421 C 
ATOM     33  O   UNL     1       3.926   5.818 -11.960  0.00  0.00    -0.225 OA
BRANCH  32  34
ATOM     34  O   UNL     1       6.154   6.005 -11.911  0.00  0.00    -0.428 OA
BRANCH  34  35
ATOM     35  C   UNL     1       6.451   5.290 -13.110  0.00  0.00    +0.245 C 
BRANCH  35  36
ATOM     36  C   UNL     1       6.129   6.237 -14.224  0.00  0.00    +0.071 A 
ATOM     37  S   UNL     1       4.678   6.496 -15.104  0.00  0.00    -0.065 S 
ATOM     38  C   UNL     1       5.268   7.677 -16.204  0.00  0.00    +0.134 A 
ATOM     39  N   UNL     1       6.447   7.983 -15.608  0.00  0.00    -0.235 NA
ATOM     40  C   UNL     1       7.016   6.907 -15.061  0.00  0.00    +0.105 A 
ENDBRANCH  35  36
ENDBRANCH  34  35
ENDBRANCH  32  34
ENDBRANCH  30  31
BRANCH  30  41
ATOM     41  C   UNL     1       2.717   4.763  -9.260  0.00  0.00    +0.048 C 
BRANCH  41  42
ATOM     42  C   UNL     1       1.470   5.275  -9.876  0.00  0.00    -0.020 A 
ATOM     43  C   UNL     1       0.681   4.366 -10.544  0.00  0.00    -0.004 A 
ATOM     44  C   UNL     1      -0.376   4.781 -11.326  0.00  0.00    -0.000 A 
ATOM     45  C   UNL     1      -0.571   6.118 -11.534  0.00  0.00    -0.000 A 
ATOM     46  C   UNL     1       0.228   7.045 -10.900  0.00  0.00    -0.000 A 
ATOM     47  C   UNL     1       1.134   6.598  -9.964  0.00  0.00    -0.004 A 
ENDBRANCH  41  42
ENDBRANCH  30  41
ENDBRANCH  29  30
ENDBRANCH  28  29
ENDBRANCH   1  28
BRANCH   1  48
ATOM     48  C   UNL     1       1.500   7.217  -6.291  0.00  0.00    +0.048 C 
BRANCH  48  49
ATOM     49  C   UNL     1       0.149   6.636  -6.105  0.00  0.00    -0.020 A 
ATOM     50  C   UNL     1      -0.722   7.064  -5.114  0.00  0.00    -0.004 A 
ATOM     51  C   UNL     1      -2.064   6.718  -5.131  0.00  0.00    -0.000 A 
ATOM     52  C   UNL     1      -2.456   5.655  -5.903  0.00  0.00    -0.000 A 
ATOM     53  C   UNL     1      -1.506   5.002  -6.669  0.00  0.00    -0.000 A 
ATOM     54  C   UNL     1      -0.367   5.716  -7.004  0.00  0.00    -0.004 A 
ENDBRANCH  48  49
ENDBRANCH   1  48
TORSDOF 20
ENDMDL
MODEL 7
REMARK VINA RESULT:      -8.5      4.239     12.377
REMARK  Name = 
REMARK  20 active torsions:
REMARK  status: ('A' for Active; 'I' for Inactive)
REMARK    1  A    between atoms: C_2  and  C_4
REMARK    2  A    between atoms: C_6  and  C_7
REMARK    3  A    between atoms: C_7  and  N_8
REMARK    4  A    between atoms: N_12  and  C_13
REMARK    5  A    between atoms: C_13  and  C_14
REMARK    6  A    between atoms: C_13  and  C_22
REMARK    7  A    between atoms: C_14  and  C_15
REMARK    8  A    between atoms: C_15  and  N_16
REMARK    9  A    between atoms: N_24  and  C_25
REMARK   10  A    between atoms: C_25  and  C_26
REMARK   11  A    between atoms: C_25  and  C_46
REMARK   12  A    between atoms: C_26  and  C_27
REMARK   13  A    between atoms: C_27  and  C_28
REMARK   14  A    between atoms: C_28  and  C_29
REMARK   15  A    between atoms: C_28  and  N_36
REMARK   16  A    between atoms: C_29  and  C_30
REMARK   17  A    between atoms: C_37  and  O_39
REMARK   18  A    between atoms: O_39  and  C_40
REMARK   19  A    between atoms: C_40  and  C_41
REMARK   20  A    between atoms: C_46  and  C_47
REMARK                            x       y       z     vdW  Elec       q    Type
REMARK                         _______ _______ _______ _____ _____    ______ ____
ROOT
ATOM      1  C   UNL     1       2.498   5.839 -10.081  0.00  0.00    +0.100 C 
ENDROOT
BRANCH   1   3
ATOM      2  C   UNL     1       1.686   5.605 -12.476  0.00  0.00    +0.261 C 
ATOM      3  N   UNL     1       2.292   6.397 -11.543  0.00  0.00    -0.205 NA
ATOM      4  O   UNL     1       1.076   4.544 -12.134  0.00  0.00    -0.271 OA
BRANCH   2   5
ATOM      5  C   UNL     1       2.297   5.412 -13.966  0.00  0.00    +0.176 C 
BRANCH   5   8
ATOM      6  N   UNL     1      -0.154   7.205 -16.263  0.00  0.00    -0.255 N 
ATOM      7  C   UNL     1       0.322   6.229 -15.326  0.00  0.00    +0.324 C 
ATOM      8  N   UNL     1       1.424   6.610 -14.535  0.00  0.00    -0.181 NA
ATOM      9  O   UNL     1       0.008   5.037 -15.534  0.00  0.00    -0.251 OA
ATOM     10  C   UNL     1      -1.576   7.228 -16.526  0.00  0.00    +0.117 C 
BRANCH   6  11
ATOM     11  C   UNL     1       0.739   7.695 -17.283  0.00  0.00    +0.141 C 
BRANCH  11  15
ATOM     12  C   UNL     1       0.920  11.137 -16.181  0.00  0.00    +0.088 A 
ATOM     13  S   UNL     1       0.950  11.504 -17.860  0.00  0.00    -0.071 S 
ATOM     14  C   UNL     1       0.772   9.901 -18.454  0.00  0.00    +0.053 A 
ATOM     15  C   UNL     1       0.864   9.189 -17.260  0.00  0.00    +0.086 A 
ATOM     16  N   UNL     1       0.359   9.905 -16.242  0.00  0.00    -0.245 NA
BRANCH  12  18
ATOM     17  C   UNL     1       1.068  12.143 -14.734  0.00  0.00    +0.007 C 
ATOM     18  C   UNL     1       0.806  12.115 -15.052  0.00  0.00    +0.047 C 
ATOM     19  C   UNL     1      -0.379  13.032 -15.328  0.00  0.00    +0.007 C 
ENDBRANCH  12  18
ENDBRANCH  11  15
ENDBRANCH   6  11
ENDBRANCH   5   8
BRANCH   5  20
ATOM     20  C   UNL     1       3.641   6.347 -13.738  0.00  0.00    +0.048 C 
BRANCH  20  21
ATOM     21  C   UNL     1       4.744   5.801 -14.544  0.00  0.00    +0.075 C 
BRANCH  21  22
ATOM     22  N   UNL     1       5.326   6.778 -15.327  0.00  0.00    -0.268 NA
ATOM     23  C   UNL     1       6.669   7.151 -15.127  0.00  0.00    +0.105 C 
ATOM     24  C   UNL     1       7.377   7.222 -16.474  0.00  0.00    +0.159 C 
ATOM     25  O   UNL     1       6.646   7.921 -17.414  0.00  0.00    -0.351 OA
ATOM     26  C   UNL     1       5.360   7.411 -17.603  0.00  0.00    +0.159 C 
ATOM     27  C   UNL     1       4.578   7.472 -16.296  0.00  0.00    +0.105 C 
ENDBRANCH  21  22
ENDBRANCH  20  21
ENDBRANCH   5  20
ENDBRANCH   2   5
ENDBRANCH   1   3
BRANCH   1  28
ATOM     28  C   UNL     1       1.071   6.488  -9.568  0.00  0.00    +0.024 C 
BRANCH  28  29
ATOM     29  C   UNL     1       0.722   5.423  -8.532  0.00  0.00    +0.024 C 
BRANCH  29  30
ATOM     30  C   UNL     1       1.196   6.154  -7.131  0.00  0.00    +0.103 C 
BRANCH  30  31
ATOM     31  N   UNL     1      -0.033   5.550  -6.342  0.00  0.00    -0.170 NA
ATOM     32  C   UNL     1      -0.715   6.617  -5.675  0.00  0.00    +0.421 C 
ATOM     33  O   UNL     1      -0.079   7.416  -4.923  0.00  0.00    -0.225 OA
BRANCH  32  34
ATOM     34  O   UNL     1      -2.098   6.668  -5.527  0.00  0.00    -0.428 OA
BRANCH  34  35
ATOM     35  C   UNL     1      -2.718   7.469  -4.521  0.00  0.00    +0.245 C 
BRANCH  35  36
ATOM     36  C   UNL     1      -2.481   6.739  -3.235  0.00  0.00    +0.071 A 
ATOM     37  S   UNL     1      -1.889   7.282  -1.719  0.00  0.00    -0.065 S 
ATOM     38  C   UNL     1      -1.881   5.770  -0.904  0.00  0.00    +0.134 A 
ATOM     39  N   UNL     1      -2.613   5.032  -1.775  0.00  0.00    -0.235 NA
ATOM     40  C   UNL     1      -2.356   5.367  -3.041  0.00  0.00    +0.105 A 
ENDBRANCH  35  36
ENDBRANCH  34  35
ENDBRANCH  32  34
ENDBRANCH  30  31
BRANCH  30  41
ATOM     41  C   UNL     1       2.166   4.882  -6.728  0.00  0.00    +0.048 C 
BRANCH  41  42
ATOM     42  C   UNL     1       3.259   5.469  -5.917  0.00  0.00    -0.020 A 
ATOM     43  C   UNL     1       3.889   4.638  -5.017  0.00  0.00    -0.004 A 
ATOM     44  C   UNL     1       4.762   5.140  -4.076  0.00  0.00    -0.000 A 
ATOM     45  C   UNL     1       4.914   6.493  -3.957  0.00  0.00    -0.000 A 
ATOM     46  C   UNL     1       4.267   7.345  -4.827  0.00  0.00    -0.000 A 
ATOM     47  C   UNL     1       3.575   6.800  -5.884  0.00  0.00    -0.004 A 
ENDBRANCH  41  42
ENDBRANCH  30  41
ENDBRANCH  29  30
ENDBRANCH  28  29
ENDBRANCH   1  28
BRANCH   1  48
ATOM     48  C   UNL     1       3.339   7.182  -9.620  0.00  0.00    +0.048 C 
BRANCH  48  49
ATOM     49  C   UNL     1       4.749   6.797  -9.861  0.00  0.00    -0.020 A 
ATOM     50  C   UNL     1       5.537   7.399 -10.832  0.00  0.00    -0.004 A 
ATOM     51  C   UNL     1       6.913   7.232 -10.854  0.00  0.00    -0.000 A 
ATOM     52  C   UNL     1       7.455   6.181 -10.159  0.00  0.00    -0.000 A 
ATOM     53  C   UNL     1       6.614   5.361  -9.428  0.00  0.00    -0.000 A 
ATOM     54  C   UNL     1       5.399   5.897  -9.032  0.00  0.00    -0.004 A 
ENDBRANCH  48  49
ENDBRANCH   1  48
TORSDOF 20
ENDMDL
MODEL 8
REMARK VINA RESULT:      -8.2      1.397      1.795
REMARK  Name = 
REMARK  20 active torsions:
REMARK  status: ('A' for Active; 'I' for Inactive)
REMARK    1  A    between atoms: C_2  and  C_4
REMARK    2  A    between atoms: C_6  and  C_7
REMARK    3  A    between atoms: C_7  and  N_8
REMARK    4  A    between atoms: N_12  and  C_13
REMARK    5  A    between atoms: C_13  and  C_14
REMARK    6  A    between atoms: C_13  and  C_22
REMARK    7  A    between atoms: C_14  and  C_15
REMARK    8  A    between atoms: C_15  and  N_16
REMARK    9  A    between atoms: N_24  and  C_25
REMARK   10  A    between atoms: C_25  and  C_26
REMARK   11  A    between atoms: C_25  and  C_46
REMARK   12  A    between atoms: C_26  and  C_27
REMARK   13  A    between atoms: C_27  and  C_28
REMARK   14  A    between atoms: C_28  and  C_29
REMARK   15  A    between atoms: C_28  and  N_36
REMARK   16  A    between atoms: C_29  and  C_30
REMARK   17  A    between atoms: C_37  and  O_39
REMARK   18  A    between atoms: O_39  and  C_40
REMARK   19  A    between atoms: C_40  and  C_41
REMARK   20  A    between atoms: C_46  and  C_47
REMARK                            x       y       z     vdW  Elec       q    Type
REMARK                         _______ _______ _______ _____ _____    ______ ____
ROOT
ATOM      1  C   UNL     1       2.179   5.960  -5.876  0.00  0.00    +0.100 C 
ENDROOT
BRANCH   1   3
ATOM      2  C   UNL     1       3.223   5.453  -3.617  0.00  0.00    +0.261 C 
ATOM      3  N   UNL     1       2.556   6.356  -4.396  0.00  0.00    -0.205 NA
ATOM      4  O   UNL     1       3.753   4.417  -4.128  0.00  0.00    -0.271 OA
BRANCH   2   5
ATOM      5  C   UNL     1       2.762   5.123  -2.098  0.00  0.00    +0.176 C 
BRANCH   5   8
ATOM      6  N   UNL     1       4.551   7.422   0.354  0.00  0.00    -0.255 N 
ATOM      7  C   UNL     1       4.345   6.288  -0.499  0.00  0.00    +0.324 C 
ATOM      8  N   UNL     1       3.424   6.458  -1.551  0.00  0.00    -0.181 NA
ATOM      9  O   UNL     1       4.669   5.168  -0.048  0.00  0.00    -0.251 OA
ATOM     10  C   UNL     1       5.878   7.602   0.901  0.00  0.00    +0.117 C 
BRANCH   6  11
ATOM     11  C   UNL     1       3.431   7.971   1.077  0.00  0.00    +0.141 C 
BRANCH  11  15
ATOM     12  C   UNL     1       3.752  11.487   0.285  0.00  0.00    +0.088 A 
ATOM     13  S   UNL     1       3.680  11.711   1.988  0.00  0.00    -0.071 S 
ATOM     14  C   UNL     1       3.620  10.054   2.442  0.00  0.00    +0.053 A 
ATOM     15  C   UNL     1       3.501   9.464   1.185  0.00  0.00    +0.086 A 
ATOM     16  N   UNL     1       4.146  10.191   0.258  0.00  0.00    -0.245 NA
BRANCH  12  18
ATOM     17  C   UNL     1       3.873  12.557  -1.117  0.00  0.00    +0.007 C 
ATOM     18  C   UNL     1       4.050  12.533  -0.745  0.00  0.00    +0.047 C 
ATOM     19  C   UNL     1       5.043  13.524  -0.151  0.00  0.00    +0.007 C 
ENDBRANCH  12  18
ENDBRANCH  11  15
ENDBRANCH   6  11
ENDBRANCH   5   8
BRANCH   5  20
ATOM     20  C   UNL     1       1.251   5.782  -2.215  0.00  0.00    +0.048 C 
BRANCH  20  21
ATOM     21  C   UNL     1       0.366   5.121  -1.244  0.00  0.00    +0.075 C 
BRANCH  21  22
ATOM     22  N   UNL     1      -0.447   6.034  -0.602  0.00  0.00    -0.268 NA
ATOM     23  C   UNL     1       0.025   6.752   0.515  0.00  0.00    +0.105 C 
ATOM     24  C   UNL     1      -0.336   8.223   0.356  0.00  0.00    +0.159 C 
ATOM     25  O   UNL     1      -1.654   8.402  -0.017  0.00  0.00    -0.351 OA
ATOM     26  C   UNL     1      -1.991   7.723  -1.189  0.00  0.00    +0.159 C 
ATOM     27  C   UNL     1      -1.782   6.224  -1.001  0.00  0.00    +0.105 C 
ENDBRANCH  21  22
ENDBRANCH  20  21
ENDBRANCH   5  20
ENDBRANCH   2   5
ENDBRANCH   1   3
BRANCH   1  28
ATOM     28  C   UNL     1       3.483   6.765  -6.487  0.00  0.00    +0.024 C 
BRANCH  28  29
ATOM     29  C   UNL     1       2.947   6.980  -7.899  0.00  0.00    +0.024 C 
BRANCH  29  30
ATOM     30  C   UNL     1       3.496   5.631  -8.672  0.00  0.00    +0.103 C 
BRANCH  30  31
ATOM     31  N   UNL     1       2.023   5.151  -8.986  0.00  0.00    -0.170 NA
ATOM     32  C   UNL     1       1.371   6.161  -9.764  0.00  0.00    +0.421 C 
ATOM     33  O   UNL     1       1.349   7.365  -9.367  0.00  0.00    -0.225 OA
BRANCH  32  34
ATOM     34  O   UNL     1       0.468   5.878 -10.785  0.00  0.00    -0.428 OA
BRANCH  34  35
ATOM     35  C   UNL     1       0.796   4.989 -11.853  0.00  0.00    +0.245 C 
BRANCH  35  36
ATOM     36  C   UNL     1       0.903   5.856 -13.069  0.00  0.00    +0.071 A 
ATOM     37  S   UNL     1       0.517   7.511 -13.315  0.00  0.00    -0.065 S 
ATOM     38  C   UNL     1       0.877   7.598 -14.993  0.00  0.00    +0.134 A 
ATOM     39  N   UNL     1       1.543   6.426 -15.150  0.00  0.00    -0.235 NA
ATOM     40  C   UNL     1       1.017   5.458 -14.397  0.00  0.00    +0.105 A 
ENDBRANCH  35  36
ENDBRANCH  34  35
ENDBRANCH  32  34
ENDBRANCH  30  31
BRANCH  30  41
ATOM     41  C   UNL     1       3.612   6.431 -10.110  0.00  0.00    +0.048 C 
BRANCH  41  42
ATOM     42  C   UNL     1       5.066   6.541 -10.378  0.00  0.00    -0.020 A 
ATOM     43  C   UNL     1       5.901   5.717  -9.656  0.00  0.00    -0.004 A 
ATOM     44  C   UNL     1       7.268   5.896  -9.677  0.00  0.00    -0.000 A 
ATOM     45  C   UNL     1       7.793   6.977 -10.329  0.00  0.00    -0.000 A 
ATOM     46  C   UNL     1       6.972   7.833 -11.031  0.00  0.00    -0.000 A 
ATOM     47  C   UNL     1       5.641   7.503 -11.163  0.00  0.00    -0.004 A 
ENDBRANCH  41  42
ENDBRANCH  30  41
ENDBRANCH  29  30
ENDBRANCH  28  29
ENDBRANCH   1  28
BRANCH   1  48
ATOM     48  C   UNL     1       1.210   7.284  -6.049  0.00  0.00    +0.048 C 
BRANCH  48  49
ATOM     49  C   UNL     1      -0.153   6.732  -5.867  0.00  0.00    -0.020 A 
ATOM     50  C   UNL     1      -1.040   7.220  -4.919  0.00  0.00    -0.004 A 
ATOM     51  C   UNL     1      -2.387   6.892  -4.951  0.00  0.00    -0.000 A 
ATOM     52  C   UNL     1      -2.776   5.797  -5.678  0.00  0.00    -0.000 A 
ATOM     53  C   UNL     1      -1.818   5.094  -6.388  0.00  0.00    -0.000 A 
ATOM     54  C   UNL     1      -0.661   5.775  -6.731  0.00  0.00    -0.004 A 
ENDBRANCH  48  49
ENDBRANCH   1  48
TORSDOF 20
ENDMDL
MODEL 9
REMARK VINA RESULT:      -7.9      2.374      5.137
REMARK  Name = 
REMARK  20 active torsions:
REMARK  status: ('A' for Active; 'I' for Inactive)
REMARK    1  A    between atoms: C_2  and  C_4
REMARK    2  A    between atoms: C_6  and  C_7
REMARK    3  A    between atoms: C_7  and  N_8
REMARK    4  A    between atoms: N_12  and  C_13
REMARK    5  A    between atoms: C_13  and  C_14
REMARK    6  A    between atoms: C_13  and  C_22
REMARK    7  A    between atoms: C_14  and  C_15
REMARK    8  A    between atoms: C_15  and  N_16
REMARK    9  A    between atoms: N_24  and  C_25
REMARK   10  A    between atoms: C_25  and  C_26
REMARK   11  A    between atoms: C_25  and  C_46
REMARK   12  A    between atoms: C_26  and  C_27
REMARK   13  A    between atoms: C_27  and  C_28
REMARK   14  A    between atoms: C_28  and  C_29
REMARK   15  A    between atoms: C_28  and  N_36
REMARK   16  A    between atoms: C_29  and  C_30
REMARK   17  A    between atoms: C_37  and  O_39
REMARK   18  A    between atoms: O_39  and  C_40
REMARK   19  A    between atoms: C_40  and  C_41
REMARK   20  A    between atoms: C_46  and  C_47
REMARK                            x       y       z     vdW  Elec       q    Type
REMARK                         _______ _______ _______ _____ _____    ______ ____
ROOT
ATOM      1  C   UNL     1       0.274   4.720  -5.077  0.00  0.00    +0.100 C 
ENDROOT
BRANCH   1   3
ATOM      2  C   UNL     1       1.169   5.405  -2.802  0.00  0.00    +0.261 C 
ATOM      3  N   UNL     1       1.353   5.409  -4.155  0.00  0.00    -0.205 NA
ATOM      4  O   UNL     1       0.292   4.659  -2.265  0.00  0.00    -0.271 OA
BRANCH   2   5
ATOM      5  C   UNL     1       1.350   6.746  -1.906  0.00  0.00    +0.176 C 
BRANCH   5   8
ATOM      6  N   UNL     1      -1.064   6.868   1.036  0.00  0.00    -0.255 N 
ATOM      7  C   UNL     1      -0.551   7.133  -0.276  0.00  0.00    +0.324 C 
ATOM      8  N   UNL     1       0.366   6.194  -0.789  0.00  0.00    -0.181 NA
ATOM      9  O   UNL     1      -0.634   8.307  -0.696  0.00  0.00    -0.251 OA
ATOM     10  C   UNL     1      -2.426   7.272   1.305  0.00  0.00    +0.117 C 
BRANCH   6  11
ATOM     11  C   UNL     1      -0.145   6.773   2.144  0.00  0.00    +0.141 C 
BRANCH  11  15
ATOM     12  C   UNL     1       2.841   8.790   1.819  0.00  0.00    +0.088 A 
ATOM     13  S   UNL     1       1.920   9.996   2.627  0.00  0.00    -0.071 S 
ATOM     14  C   UNL     1       0.501   9.065   2.899  0.00  0.00    +0.053 A 
ATOM     15  C   UNL     1       0.823   7.917   2.179  0.00  0.00    +0.086 A 
ATOM     16  N   UNL     1       2.148   7.695   2.211  0.00  0.00    -0.245 NA
BRANCH  12  18
ATOM     17  C   UNL     1       4.512   9.199   1.410  0.00  0.00    +0.007 C 
ATOM     18  C   UNL     1       4.300   8.853   1.484  0.00  0.00    +0.047 C 
ATOM     19  C   UNL     1       4.869   7.441   1.550  0.00  0.00    +0.007 C 
ENDBRANCH  12  18
ENDBRANCH  11  15
ENDBRANCH   6  11
ENDBRANCH   5   8
BRANCH   5  20
ATOM     20  C   UNL     1       2.714   6.256  -1.112  0.00  0.00    +0.048 C 
BRANCH  20  21
ATOM     21  C   UNL     1       3.420   5.267  -1.941  0.00  0.00    +0.075 C 
BRANCH  21  22
ATOM     22  N   UNL     1       4.354   5.872  -2.758  0.00  0.00    -0.268 NA
ATOM     23  C   UNL     1       4.830   5.216  -3.910  0.00  0.00    +0.105 C 
ATOM     24  C   UNL     1       4.818   6.188  -5.083  0.00  0.00    +0.159 C 
ATOM     25  O   UNL     1       5.375   7.409  -4.758  0.00  0.00    -0.351 OA
ATOM     26  C   UNL     1       4.767   8.017  -3.658  0.00  0.00    +0.159 C 
ATOM     27  C   UNL     1       4.903   7.125  -2.430  0.00  0.00    +0.105 C 
ENDBRANCH  21  22
ENDBRANCH  20  21
ENDBRANCH   5  20
ENDBRANCH   2   5
ENDBRANCH   1   3
BRANCH   1  28
ATOM     28  C   UNL     1       1.290   4.730  -6.377  0.00  0.00    +0.024 C 
BRANCH  28  29
ATOM     29  C   UNL     1       1.333   6.240  -6.592  0.00  0.00    +0.024 C 
BRANCH  29  30
ATOM     30  C   UNL     1       1.704   6.337  -8.196  0.00  0.00    +0.103 C 
BRANCH  30  31
ATOM     31  N   UNL     1       2.664   5.086  -8.101  0.00  0.00    -0.170 NA
ATOM     32  C   UNL     1       3.685   5.217  -9.096  0.00  0.00    +0.421 C 
ATOM     33  O   UNL     1       3.378   5.425 -10.309  0.00  0.00    -0.225 OA
BRANCH  32  34
ATOM     34  O   UNL     1       5.003   4.817  -8.899  0.00  0.00    -0.428 OA
BRANCH  34  35
ATOM     35  C   UNL     1       6.059   5.763  -8.727  0.00  0.00    +0.245 C 
BRANCH  35  36
ATOM     36  C   UNL     1       6.527   6.087 -10.111  0.00  0.00    +0.071 A 
ATOM     37  S   UNL     1       7.756   5.385 -11.083  0.00  0.00    -0.065 S 
ATOM     38  C   UNL     1       7.630   6.438 -12.435  0.00  0.00    +0.134 A 
ATOM     39  N   UNL     1       6.455   7.051 -12.144  0.00  0.00    -0.235 NA
ATOM     40  C   UNL     1       6.320   7.258 -10.833  0.00  0.00    +0.105 A 
ENDBRANCH  35  36
ENDBRANCH  34  35
ENDBRANCH  32  34
ENDBRANCH  30  31
BRANCH  30  41
ATOM     41  C   UNL     1       0.412   5.400  -8.611  0.00  0.00    +0.048 C 
BRANCH  41  42
ATOM     42  C   UNL     1       0.217   5.627 -10.062  0.00  0.00    -0.020 A 
ATOM     43  C   UNL     1       0.240   4.520 -10.881  0.00  0.00    -0.004 A 
ATOM     44  C   UNL     1       0.283   4.649 -12.253  0.00  0.00    -0.000 A 
ATOM     45  C   UNL     1       0.424   5.892 -12.804  0.00  0.00    -0.000 A 
ATOM     46  C   UNL     1       0.436   7.013 -12.002  0.00  0.00    -0.000 A 
ATOM     47  C   UNL     1       0.178   6.859 -10.658  0.00  0.00    -0.004 A 
ENDBRANCH  41  42
ENDBRANCH  30  41
ENDBRANCH  29  30
ENDBRANCH  28  29
ENDBRANCH   1  28
BRANCH   1  48
ATOM     48  C   UNL     1      -0.378   6.174  -5.506  0.00  0.00    +0.048 C 
BRANCH  48  49
ATOM     49  C   UNL     1      -1.544   6.301  -4.600  0.00  0.00    -0.020 A 
ATOM     50  C   UNL     1      -2.447   5.270  -4.389  0.00  0.00    -0.004 A 
ATOM     51  C   UNL     1      -3.353   5.303  -3.340  0.00  0.00    -0.000 A 
ATOM     52  C   UNL     1      -3.617   6.509  -2.743  0.00  0.00    -0.000 A 
ATOM     53  C   UNL     1      -2.935   7.632  -3.178  0.00  0.00    -0.000 A 
ATOM     54  C   UNL     1      -1.719   7.426  -3.809  0.00  0.00    -0.004 A 
ENDBRANCH  48  49
ENDBRANCH   1  48
TORSDOF 20
ENDMDL
