MODEL 1
REMARK VINA RESULT:      -7.8      0.000      0.000
REMARK  Name = 
REMARK  18 active torsions:
REMARK  status: ('A' for Active; 'I' for Inactive)
REMARK    1  A    between atoms: C_2  and  C_3
REMARK    2  A    between atoms: C_3  and  C_4
REMARK    3  A    between atoms: C_4  and  C_5
REMARK    4  A    between atoms: C_10  and  N_11
REMARK    5  A    between atoms: N_11  and  S_12
REMARK    6  A    between atoms: C_18  and  C_19
REMARK    7  A    between atoms: C_19  and  C_21
REMARK    8  A    between atoms: C_24  and  O_25
REMARK    9  A    between atoms: O_25  and  C_26
REMARK   10  A    between atoms: C_26  and  C_27
REMARK   11  A    between atoms: C_27  and  C_28
REMARK   12  A    between atoms: C_28  and  N_29
REMARK   13  A    between atoms: N_29  and  C_30
REMARK   14  A    between atoms: N_29  and  C_34
REMARK   15  A    between atoms: C_30  and  C_31
REMARK   16  A    between atoms: C_31  and  C_32
REMARK   17  A    between atoms: C_34  and  C_35
REMARK   18  A    between atoms: C_35  and  C_36
REMARK                            x       y       z     vdW  Elec       q    Type
REMARK                         _______ _______ _______ _____ _____    ______ ____
ROOT
ATOM      1  C   UNL     1       2.779   7.110  -7.469  0.00  0.00    +0.198 C 
ATOM      2  O   UNL     1       2.243   8.225  -7.746  0.00  0.00    -0.286 OA
ENDROOT
BRANCH   1   4
ATOM      3  C   UNL     1       3.443   4.954  -8.688  0.00  0.00    +0.126 A 
ATOM      4  C   UNL     1       2.611   6.038  -8.443  0.00  0.00    +0.072 A 
ATOM      5  C   UNL     1       1.467   5.886  -9.220  0.00  0.00    +0.042 A 
ATOM      6  C   UNL     1       1.583   4.599  -9.731  0.00  0.00    +0.145 A 
ATOM      7  C   UNL     1       0.616   4.220 -10.650  0.00  0.00    +0.039 A 
ATOM      8  C   UNL     1      -0.107   5.163 -11.359  0.00  0.00    +0.021 A 
ATOM      9  C   UNL     1      -0.031   6.510 -11.027  0.00  0.00    +0.091 A 
ATOM     10  C   UNL     1       0.588   6.784  -9.815  0.00  0.00    +0.021 A 
ATOM     11  O   UNL     1       2.762   4.119  -9.431  0.00  0.00    -0.458 OA
BRANCH   3  12
ATOM     12  C   UNL     1       4.921   4.988  -8.456  0.00  0.00    +0.065 C 
BRANCH  12  13
ATOM     13  C   UNL     1       5.499   5.825  -9.591  0.00  0.00    +0.008 C 
BRANCH  13  15
ATOM     14  C   UNL     1       7.530   6.734 -10.574  0.00  0.00    +0.000 C 
ATOM     15  C   UNL     1       7.017   5.841  -9.459  0.00  0.00    +0.000 C 
ENDBRANCH  13  15
ENDBRANCH  12  13
ENDBRANCH   3  12
BRANCH   9  16
ATOM     16  N   UNL     1      -0.330   7.539 -11.978  0.00  0.00    -0.101 NA
BRANCH  16  17
ATOM     17  S   UNL     1       0.548   7.545 -13.455  0.00  0.00    +0.075 S 
ATOM     18  O   UNL     1       0.808   8.927 -13.956  0.00  0.00    -0.153 OA
ATOM     19  O   UNL     1      -0.302   6.848 -14.484  0.00  0.00    -0.153 OA
ATOM     20  C   UNL     1       2.095   6.731 -13.195  0.00  0.00    +0.202 C 
ENDBRANCH  16  17
ENDBRANCH   9  16
ENDBRANCH   1   4
BRANCH   1  21
ATOM     21  C   UNL     1       2.778   6.712  -6.055  0.00  0.00    +0.039 A 
ATOM     22  C   UNL     1       2.291   5.442  -5.769  0.00  0.00    +0.006 A 
ATOM     23  C   UNL     1       2.634   4.812  -4.583  0.00  0.00    +0.037 A 
ATOM     24  C   UNL     1       3.393   5.492  -3.639  0.00  0.00    +0.139 A 
ATOM     25  C   UNL     1       4.130   6.566  -4.077  0.00  0.00    +0.037 A 
ATOM     26  C   UNL     1       3.875   7.139  -5.317  0.00  0.00    +0.006 A 
BRANCH  24  27
ATOM     27  O   UNL     1       3.261   5.153  -2.296  0.00  0.00    -0.475 OA
BRANCH  27  28
ATOM     28  C   UNL     1       2.846   6.179  -1.399  0.00  0.00    +0.207 C 
BRANCH  28  29
ATOM     29  C   UNL     1       1.416   6.584  -1.727  0.00  0.00    +0.065 C 
BRANCH  29  30
ATOM     30  C   UNL     1       0.515   5.454  -1.294  0.00  0.00    +0.076 C 
BRANCH  30  31
ATOM     31  N   UNL     1      -0.636   5.286  -2.140  0.00  0.00    -0.273 NA
BRANCH  31  32
ATOM     32  C   UNL     1      -1.883   5.560  -1.439  0.00  0.00    +0.072 C 
BRANCH  32  33
ATOM     33  C   UNL     1      -1.619   6.227  -0.111  0.00  0.00    +0.017 C 
BRANCH  33  34
ATOM     34  C   UNL     1      -2.037   7.671  -0.090  0.00  0.00    +0.001 C 
ATOM     35  C   UNL     1      -1.030   8.450   0.710  0.00  0.00    +0.000 C 
ENDBRANCH  33  34
ENDBRANCH  32  33
ENDBRANCH  31  32
BRANCH  31  36
ATOM     36  C   UNL     1      -0.494   6.160  -3.302  0.00  0.00    +0.072 C 
BRANCH  36  37
ATOM     37  C   UNL     1      -1.515   5.680  -4.323  0.00  0.00    +0.017 C 
BRANCH  37  38
ATOM     38  C   UNL     1      -1.139   6.306  -5.658  0.00  0.00    +0.001 C 
ATOM     39  C   UNL     1      -1.335   5.315  -6.781  0.00  0.00    +0.000 C 
ENDBRANCH  37  38
ENDBRANCH  36  37
ENDBRANCH  31  36
ENDBRANCH  30  31
ENDBRANCH  29  30
ENDBRANCH  28  29
ENDBRANCH  27  28
ENDBRANCH  24  27
ENDBRANCH   1  21
TORSDOF 18
ENDMDL
MODEL 2
REMARK VINA RESULT:      -7.7      2.460      4.565
REMARK  Name = 
REMARK  18 active torsions:
REMARK  status: ('A' for Active; 'I' for Inactive)
REMARK    1  A    between atoms: C_2  and  C_3
REMARK    2  A    between atoms: C_3  and  C_4
REMARK    3  A    between atoms: C_4  and  C_5
REMARK    4  A    between atoms: C_10  and  N_11
REMARK    5  A    between atoms: N_11  and  S_12
REMARK    6  A    between atoms: C_18  and  C_19
REMARK    7  A    between atoms: C_19  and  C_21
REMARK    8  A    between atoms: C_24  and  O_25
REMARK    9  A    between atoms: O_25  and  C_26
REMARK   10  A    between atoms: C_26  and  C_27
REMARK   11  A    between atoms: C_27  and  C_28
REMARK   12  A    between atoms: C_28  and  N_29
REMARK   13  A    between atoms: N_29  and  C_30
REMARK   14  A    between atoms: N_29  and  C_34
REMARK   15  A    between atoms: C_30  and  C_31
REMARK   16  A    between atoms: C_31  and  C_32
REMARK   17  A    between atoms: C_34  and  C_35
REMARK   18  A    between atoms: C_35  and  C_36
REMARK                            x       y       z     vdW  Elec       q    Type
REMARK                         _______ _______ _______ _____ _____    ______ ____
ROOT
ATOM      1  C   UNL     1       4.868   6.712 -10.765  0.00  0.00    +0.198 C 
ATOM      2  O   UNL     1       5.090   7.951 -10.914  0.00  0.00    -0.286 OA
ENDROOT
BRANCH   1   4
ATOM      3  C   UNL     1       5.390   5.177 -12.753  0.00  0.00    +0.126 A 
ATOM      4  C   UNL     1       4.545   5.951 -11.967  0.00  0.00    +0.072 A 
ATOM      5  C   UNL     1       3.249   5.794 -12.446  0.00  0.00    +0.042 A 
ATOM      6  C   UNL     1       3.360   4.759 -13.366  0.00  0.00    +0.145 A 
ATOM      7  C   UNL     1       2.214   4.467 -14.092  0.00  0.00    +0.039 A 
ATOM      8  C   UNL     1       1.208   5.402 -14.250  0.00  0.00    +0.021 A 
ATOM      9  C   UNL     1       1.219   6.585 -13.520  0.00  0.00    +0.091 A 
ATOM     10  C   UNL     1       2.134   6.624 -12.476  0.00  0.00    +0.021 A 
ATOM     11  O   UNL     1       4.622   4.467 -13.539  0.00  0.00    -0.458 OA
BRANCH   3  12
ATOM     12  C   UNL     1       6.855   5.448 -12.891  0.00  0.00    +0.065 C 
BRANCH  12  13
ATOM     13  C   UNL     1       6.964   6.745 -13.684  0.00  0.00    +0.008 C 
BRANCH  13  15
ATOM     14  C   UNL     1       5.828   7.389 -15.736  0.00  0.00    +0.000 C 
ATOM     15  C   UNL     1       6.847   6.418 -15.167  0.00  0.00    +0.000 C 
ENDBRANCH  13  15
ENDBRANCH  12  13
ENDBRANCH   3  12
BRANCH   9  16
ATOM     16  N   UNL     1       0.532   7.757 -13.973  0.00  0.00    -0.101 NA
BRANCH  16  17
ATOM     17  S   UNL     1       0.845   8.302 -15.572  0.00  0.00    +0.075 S 
ATOM     18  O   UNL     1      -0.247   7.936 -16.521  0.00  0.00    -0.153 OA
ATOM     19  O   UNL     1       2.098   7.613 -16.043  0.00  0.00    -0.153 OA
ATOM     20  C   UNL     1       1.014  10.062 -15.545  0.00  0.00    +0.202 C 
ENDBRANCH  16  17
ENDBRANCH   9  16
ENDBRANCH   1   4
BRANCH   1  21
ATOM     21  C   UNL     1       4.176   6.310  -9.534  0.00  0.00    +0.039 A 
ATOM     22  C   UNL     1       4.913   5.561  -8.625  0.00  0.00    +0.006 A 
ATOM     23  C   UNL     1       4.530   5.502  -7.294  0.00  0.00    +0.037 A 
ATOM     24  C   UNL     1       3.355   6.121  -6.890  0.00  0.00    +0.139 A 
ATOM     25  C   UNL     1       2.852   7.113  -7.699  0.00  0.00    +0.037 A 
ATOM     26  C   UNL     1       3.310   7.258  -9.003  0.00  0.00    +0.006 A 
BRANCH  24  27
ATOM     27  O   UNL     1       2.674   5.621  -5.784  0.00  0.00    -0.475 OA
BRANCH  27  28
ATOM     28  C   UNL     1       2.083   6.564  -4.895  0.00  0.00    +0.207 C 
BRANCH  28  29
ATOM     29  C   UNL     1       0.989   5.877  -4.089  0.00  0.00    +0.065 C 
BRANCH  29  30
ATOM     30  C   UNL     1       0.061   5.204  -5.069  0.00  0.00    +0.076 C 
BRANCH  30  31
ATOM     31  N   UNL     1      -0.901   6.101  -5.651  0.00  0.00    -0.273 NA
BRANCH  31  32
ATOM     32  C   UNL     1      -1.303   5.690  -6.989  0.00  0.00    +0.072 C 
BRANCH  32  33
ATOM     33  C   UNL     1      -0.142   5.080  -7.736  0.00  0.00    +0.017 C 
BRANCH  33  34
ATOM     34  C   UNL     1      -0.080   5.514  -9.175  0.00  0.00    +0.001 C 
ATOM     35  C   UNL     1       0.859   4.599  -9.912  0.00  0.00    +0.000 C 
ENDBRANCH  33  34
ENDBRANCH  32  33
ENDBRANCH  31  32
BRANCH  31  36
ATOM     36  C   UNL     1      -2.061   6.182  -4.766  0.00  0.00    +0.072 C 
BRANCH  36  37
ATOM     37  C   UNL     1      -2.078   7.601  -4.216  0.00  0.00    +0.017 C 
BRANCH  37  38
ATOM     38  C   UNL     1      -2.214   7.491  -2.705  0.00  0.00    +0.001 C 
ATOM     39  C   UNL     1      -3.085   6.312  -2.337  0.00  0.00    +0.000 C 
ENDBRANCH  37  38
ENDBRANCH  36  37
ENDBRANCH  31  36
ENDBRANCH  30  31
ENDBRANCH  29  30
ENDBRANCH  28  29
ENDBRANCH  27  28
ENDBRANCH  24  27
ENDBRANCH   1  21
TORSDOF 18
ENDMDL
MODEL 3
REMARK VINA RESULT:      -7.6      1.914      3.922
REMARK  Name = 
REMARK  18 active torsions:
REMARK  status: ('A' for Active; 'I' for Inactive)
REMARK    1  A    between atoms: C_2  and  C_3
REMARK    2  A    between atoms: C_3  and  C_4
REMARK    3  A    between atoms: C_4  and  C_5
REMARK    4  A    between atoms: C_10  and  N_11
REMARK    5  A    between atoms: N_11  and  S_12
REMARK    6  A    between atoms: C_18  and  C_19
REMARK    7  A    between atoms: C_19  and  C_21
REMARK    8  A    between atoms: C_24  and  O_25
REMARK    9  A    between atoms: O_25  and  C_26
REMARK   10  A    between atoms: C_26  and  C_27
REMARK   11  A    between atoms: C_27  and  C_28
REMARK   12  A    between atoms: C_28  and  N_29
REMARK   13  A    between atoms: N_29  and  C_30
REMARK   14  A    between atoms: N_29  and  C_34
REMARK   15  A    between atoms: C_30  and  C_31
REMARK   16  A    between atoms: C_31  and  C_32
REMARK   17  A    between atoms: C_34  and  C_35
REMARK   18  A    between atoms: C_35  and  C_36
REMARK                            x       y       z     vdW  Elec       q    Type
REMARK                         _______ _______ _______ _____ _____    ______ ____
ROOT
ATOM      1  C   UNL     1       1.907   4.410  -7.229  0.00  0.00    +0.198 C 
ATOM      2  O   UNL     1       2.198   3.325  -6.641  0.00  0.00    -0.286 OA
ENDROOT
BRANCH   1   4
ATOM      3  C   UNL     1       4.045   5.826  -7.195  0.00  0.00    +0.126 A 
ATOM      4  C   UNL     1       3.011   5.150  -7.829  0.00  0.00    +0.072 A 
ATOM      5  C   UNL     1       3.255   5.178  -9.198  0.00  0.00    +0.042 A 
ATOM      6  C   UNL     1       4.544   5.688  -9.293  0.00  0.00    +0.145 A 
ATOM      7  C   UNL     1       5.006   5.935 -10.578  0.00  0.00    +0.039 A 
ATOM      8  C   UNL     1       4.130   6.120 -11.632  0.00  0.00    +0.021 A 
ATOM      9  C   UNL     1       2.772   5.863 -11.478  0.00  0.00    +0.091 A 
ATOM     10  C   UNL     1       2.430   5.182 -10.317  0.00  0.00    +0.021 A 
ATOM     11  O   UNL     1       4.939   6.089  -8.113  0.00  0.00    -0.458 OA
BRANCH   3  12
ATOM     12  C   UNL     1       3.909   6.440  -5.836  0.00  0.00    +0.065 C 
BRANCH  12  13
ATOM     13  C   UNL     1       4.669   5.519  -4.889  0.00  0.00    +0.008 C 
BRANCH  13  15
ATOM     14  C   UNL     1       5.178   7.794  -4.193  0.00  0.00    +0.000 C 
ATOM     15  C   UNL     1       5.197   6.350  -3.725  0.00  0.00    +0.000 C 
ENDBRANCH  13  15
ENDBRANCH  12  13
ENDBRANCH   3  12
BRANCH   9  16
ATOM     16  N   UNL     1       1.789   6.480 -12.316  0.00  0.00    -0.101 NA
BRANCH  16  17
ATOM     17  S   UNL     1       1.568   5.843 -13.896  0.00  0.00    +0.075 S 
ATOM     18  O   UNL     1       2.860   5.646 -14.616  0.00  0.00    -0.153 OA
ATOM     19  O   UNL     1       0.770   6.853 -14.679  0.00  0.00    -0.153 OA
ATOM     20  C   UNL     1       0.742   4.286 -13.767  0.00  0.00    +0.202 C 
ENDBRANCH  16  17
ENDBRANCH   9  16
ENDBRANCH   1   4
BRANCH   1  21
ATOM     21  C   UNL     1       0.830   5.213  -6.635  0.00  0.00    +0.039 A 
ATOM     22  C   UNL     1      -0.358   5.284  -7.352  0.00  0.00    +0.006 A 
ATOM     23  C   UNL     1      -1.540   5.628  -6.715  0.00  0.00    +0.037 A 
ATOM     24  C   UNL     1      -1.517   5.991  -5.375  0.00  0.00    +0.139 A 
ATOM     25  C   UNL     1      -0.435   5.585  -4.630  0.00  0.00    +0.037 A 
ATOM     26  C   UNL     1       0.719   5.128  -5.252  0.00  0.00    +0.006 A 
BRANCH  24  27
ATOM     27  O   UNL     1      -2.496   6.854  -4.893  0.00  0.00    -0.475 OA
BRANCH  27  28
ATOM     28  C   UNL     1      -2.375   7.295  -3.543  0.00  0.00    +0.207 C 
BRANCH  28  29
ATOM     29  C   UNL     1      -3.313   6.479  -2.664  0.00  0.00    +0.065 C 
BRANCH  29  30
ATOM     30  C   UNL     1      -2.532   6.049  -1.447  0.00  0.00    +0.076 C 
BRANCH  30  31
ATOM     31  N   UNL     1      -1.274   6.733  -1.306  0.00  0.00    -0.273 NA
BRANCH  31  32
ATOM     32  C   UNL     1      -1.314   7.760  -0.275  0.00  0.00    +0.072 C 
BRANCH  32  33
ATOM     33  C   UNL     1      -2.245   7.363   0.845  0.00  0.00    +0.017 C 
BRANCH  33  34
ATOM     34  C   UNL     1      -1.958   8.092   2.129  0.00  0.00    +0.001 C 
ATOM     35  C   UNL     1      -1.945   9.570   1.849  0.00  0.00    +0.000 C 
ENDBRANCH  33  34
ENDBRANCH  32  33
ENDBRANCH  31  32
BRANCH  31  36
ATOM     36  C   UNL     1      -0.236   5.747  -1.013  0.00  0.00    +0.072 C 
BRANCH  36  37
ATOM     37  C   UNL     1       1.043   6.534  -0.773  0.00  0.00    +0.017 C 
BRANCH  37  38
ATOM     38  C   UNL     1       2.062   6.051  -1.794  0.00  0.00    +0.001 C 
ATOM     39  C   UNL     1       2.850   4.884  -1.244  0.00  0.00    +0.000 C 
ENDBRANCH  37  38
ENDBRANCH  36  37
ENDBRANCH  31  36
ENDBRANCH  30  31
ENDBRANCH  29  30
ENDBRANCH  28  29
ENDBRANCH  27  28
ENDBRANCH  24  27
ENDBRANCH   1  21
TORSDOF 18
ENDMDL
MODEL 4
REMARK VINA RESULT:      -7.6      2.593      3.991
REMARK  Name = 
REMARK  18 active torsions:
REMARK  status: ('A' for Active; 'I' for Inactive)
REMARK    1  A    between atoms: C_2  and  C_3
REMARK    2  A    between atoms: C_3  and  C_4
REMARK    3  A    between atoms: C_4  and  C_5
REMARK    4  A    between atoms: C_10  and  N_11
REMARK    5  A    between atoms: N_11  and  S_12
REMARK    6  A    between atoms: C_18  and  C_19
REMARK    7  A    between atoms: C_19  and  C_21
REMARK    8  A    between atoms: C_24  and  O_25
REMARK    9  A    between atoms: O_25  and  C_26
REMARK   10  A    between atoms: C_26  and  C_27
REMARK   11  A    between atoms: C_27  and  C_28
REMARK   12  A    between atoms: C_28  and  N_29
REMARK   13  A    between atoms: N_29  and  C_30
REMARK   14  A    between atoms: N_29  and  C_34
REMARK   15  A    between atoms: C_30  and  C_31
REMARK   16  A    between atoms: C_31  and  C_32
REMARK   17  A    between atoms: C_34  and  C_35
REMARK   18  A    between atoms: C_35  and  C_36
REMARK                            x       y       z     vdW  Elec       q    Type
REMARK                         _______ _______ _______ _____ _____    ______ ____
ROOT
ATOM      1  C   UNL     1       4.379   5.261  -6.873  0.00  0.00    +0.198 C 
ATOM      2  O   UNL     1       5.554   5.447  -7.313  0.00  0.00    -0.286 OA
ENDROOT
BRANCH   1   4
ATOM      3  C   UNL     1       1.936   5.121  -7.639  0.00  0.00    +0.126 A 
ATOM      4  C   UNL     1       3.291   5.350  -7.839  0.00  0.00    +0.072 A 
ATOM      5  C   UNL     1       3.460   5.820  -9.138  0.00  0.00    +0.042 A 
ATOM      6  C   UNL     1       2.162   6.052  -9.576  0.00  0.00    +0.145 A 
ATOM      7  C   UNL     1       2.028   6.424 -10.906  0.00  0.00    +0.039 A 
ATOM      8  C   UNL     1       3.010   6.130 -11.835  0.00  0.00    +0.021 A 
ATOM      9  C   UNL     1       4.245   5.639 -11.429  0.00  0.00    +0.091 A 
ATOM     10  C   UNL     1       4.491   5.719 -10.064  0.00  0.00    +0.021 A 
ATOM     11  O   UNL     1       1.317   5.591  -8.691  0.00  0.00    -0.458 OA
BRANCH   3  12
ATOM     12  C   UNL     1       1.410   4.176  -6.604  0.00  0.00    +0.065 C 
BRANCH  12  13
ATOM     13  C   UNL     1       0.228   4.887  -5.956  0.00  0.00    +0.008 C 
BRANCH  13  15
ATOM     14  C   UNL     1       0.736   6.700  -4.417  0.00  0.00    +0.000 C 
ATOM     15  C   UNL     1       0.580   5.192  -4.506  0.00  0.00    +0.000 C 
ENDBRANCH  13  15
ENDBRANCH  12  13
ENDBRANCH   3  12
BRANCH   9  16
ATOM     16  N   UNL     1       5.079   4.875 -12.308  0.00  0.00    -0.101 NA
BRANCH  16  17
ATOM     17  S   UNL     1       6.607   5.534 -12.736  0.00  0.00    +0.075 S 
ATOM     18  O   UNL     1       7.733   4.600 -12.438  0.00  0.00    -0.153 OA
ATOM     19  O   UNL     1       6.815   6.767 -11.897  0.00  0.00    -0.153 OA
ATOM     20  C   UNL     1       6.603   5.890 -14.468  0.00  0.00    +0.202 C 
ENDBRANCH  16  17
ENDBRANCH   9  16
ENDBRANCH   1   4
BRANCH   1  21
ATOM     21  C   UNL     1       4.095   5.764  -5.523  0.00  0.00    +0.039 A 
ATOM     22  C   UNL     1       4.247   4.859  -4.479  0.00  0.00    +0.006 A 
ATOM     23  C   UNL     1       4.429   5.311  -3.182  0.00  0.00    +0.037 A 
ATOM     24  C   UNL     1       4.370   6.672  -2.914  0.00  0.00    +0.139 A 
ATOM     25  C   UNL     1       4.567   7.532  -3.969  0.00  0.00    +0.037 A 
ATOM     26  C   UNL     1       4.501   7.070  -5.277  0.00  0.00    +0.006 A 
BRANCH  24  27
ATOM     27  O   UNL     1       3.976   7.095  -1.649  0.00  0.00    -0.475 OA
BRANCH  27  28
ATOM     28  C   UNL     1       3.162   6.209  -0.885  0.00  0.00    +0.207 C 
BRANCH  28  29
ATOM     29  C   UNL     1       1.788   6.836  -0.687  0.00  0.00    +0.065 C 
BRANCH  29  30
ATOM     30  C   UNL     1       0.767   5.732  -0.805  0.00  0.00    +0.076 C 
BRANCH  30  31
ATOM     31  N   UNL     1      -0.550   6.124  -0.377  0.00  0.00    -0.273 NA
BRANCH  31  32
ATOM     32  C   UNL     1      -0.656   7.560  -0.160  0.00  0.00    +0.072 C 
BRANCH  32  33
ATOM     33  C   UNL     1      -0.952   7.865   1.288  0.00  0.00    +0.017 C 
BRANCH  33  34
ATOM     34  C   UNL     1      -2.139   8.772   1.463  0.00  0.00    +0.001 C 
ATOM     35  C   UNL     1      -1.669  10.066   2.069  0.00  0.00    +0.000 C 
ENDBRANCH  33  34
ENDBRANCH  32  33
ENDBRANCH  31  32
BRANCH  31  36
ATOM     36  C   UNL     1      -1.518   5.679  -1.377  0.00  0.00    +0.072 C 
BRANCH  36  37
ATOM     37  C   UNL     1      -2.254   6.927  -1.841  0.00  0.00    +0.017 C 
BRANCH  37  38
ATOM     38  C   UNL     1      -3.444   6.461  -2.666  0.00  0.00    +0.001 C 
ATOM     39  C   UNL     1      -3.072   5.251  -3.493  0.00  0.00    +0.000 C 
ENDBRANCH  37  38
ENDBRANCH  36  37
ENDBRANCH  31  36
ENDBRANCH  30  31
ENDBRANCH  29  30
ENDBRANCH  28  29
ENDBRANCH  27  28
ENDBRANCH  24  27
ENDBRANCH   1  21
TORSDOF 18
ENDMDL
MODEL 5
REMARK VINA RESULT:      -7.5      3.603     10.096
REMARK  Name = 
REMARK  18 active torsions:
REMARK  status: ('A' for Active; 'I' for Inactive)
REMARK    1  A    between atoms: C_2  and  C_3
REMARK    2  A    between atoms: C_3  and  C_4
REMARK    3  A    between atoms: C_4  and  C_5
REMARK    4  A    between atoms: C_10  and  N_11
REMARK    5  A    between atoms: N_11  and  S_12
REMARK    6  A    between atoms: C_18  and  C_19
REMARK    7  A    between atoms: C_19  and  C_21
REMARK    8  A    between atoms: C_24  and  O_25
REMARK    9  A    between atoms: O_25  and  C_26
REMARK   10  A    between atoms: C_26  and  C_27
REMARK   11  A    between atoms: C_27  and  C_28
REMARK   12  A    between atoms: C_28  and  N_29
REMARK   13  A    between atoms: N_29  and  C_30
REMARK   14  A    between atoms: N_29  and  C_34
REMARK   15  A    between atoms: C_30  and  C_31
REMARK   16  A    between atoms: C_31  and  C_32
REMARK   17  A    between atoms: C_34  and  C_35
REMARK   18  A    between atoms: C_35  and  C_36
REMARK                            x       y       z     vdW  Elec       q    Type
REMARK                         _______ _______ _______ _____ _____    ______ ____
ROOT
ATOM      1  C   UNL     1       0.827   5.444  -1.551  0.00  0.00    +0.198 C 
ATOM      2  O   UNL     1       0.720   4.181  -1.574  0.00  0.00    -0.286 OA
ENDROOT
BRANCH   1   4
ATOM      3  C   UNL     1      -1.526   6.038  -0.722  0.00  0.00    +0.126 A 
ATOM      4  C   UNL     1      -0.144   6.173  -0.743  0.00  0.00    +0.072 A 
ATOM      5  C   UNL     1       0.216   7.069   0.258  0.00  0.00    +0.042 A 
ATOM      6  C   UNL     1      -0.962   7.259   0.970  0.00  0.00    +0.145 A 
ATOM      7  C   UNL     1      -0.916   8.214   1.975  0.00  0.00    +0.039 A 
ATOM      8  C   UNL     1       0.034   9.219   1.967  0.00  0.00    +0.021 A 
ATOM      9  C   UNL     1       1.095   9.184   1.069  0.00  0.00    +0.091 A 
ATOM     10  C   UNL     1       1.258   7.978   0.398  0.00  0.00    +0.021 A 
ATOM     11  O   UNL     1      -1.948   6.677   0.339  0.00  0.00    -0.458 OA
BRANCH   3  12
ATOM     12  C   UNL     1      -2.322   5.587  -1.906  0.00  0.00    +0.065 C 
BRANCH  12  13
ATOM     13  C   UNL     1      -3.068   6.822  -2.398  0.00  0.00    +0.008 C 
BRANCH  13  15
ATOM     14  C   UNL     1      -2.442   7.129  -4.728  0.00  0.00    +0.000 C 
ATOM     15  C   UNL     1      -2.147   7.612  -3.319  0.00  0.00    +0.000 C 
ENDBRANCH  13  15
ENDBRANCH  12  13
ENDBRANCH   3  12
BRANCH   9  16
ATOM     16  N   UNL     1       1.791  10.372   0.677  0.00  0.00    -0.101 NA
BRANCH  16  17
ATOM     17  S   UNL     1       3.480  10.252   0.386  0.00  0.00    +0.075 S 
ATOM     18  O   UNL     1       4.147  11.587   0.351  0.00  0.00    -0.153 OA
ATOM     19  O   UNL     1       3.658   9.628  -0.973  0.00  0.00    -0.153 OA
ATOM     20  C   UNL     1       4.207   9.282   1.673  0.00  0.00    +0.202 C 
ENDBRANCH  16  17
ENDBRANCH   9  16
ENDBRANCH   1   4
BRANCH   1  21
ATOM     21  C   UNL     1       1.255   6.091  -2.798  0.00  0.00    +0.039 A 
ATOM     22  C   UNL     1       2.518   6.671  -2.793  0.00  0.00    +0.006 A 
ATOM     23  C   UNL     1       3.182   6.912  -3.986  0.00  0.00    +0.037 A 
ATOM     24  C   UNL     1       2.541   6.656  -5.191  0.00  0.00    +0.139 A 
ATOM     25  C   UNL     1       1.476   5.787  -5.168  0.00  0.00    +0.037 A 
ATOM     26  C   UNL     1       0.872   5.444  -3.966  0.00  0.00    +0.006 A 
BRANCH  24  27
ATOM     27  O   UNL     1       2.905   7.387  -6.318  0.00  0.00    -0.475 OA
BRANCH  27  28
ATOM     28  C   UNL     1       1.943   7.507  -7.362  0.00  0.00    +0.207 C 
BRANCH  28  29
ATOM     29  C   UNL     1       2.620   7.242  -8.700  0.00  0.00    +0.065 C 
BRANCH  29  30
ATOM     30  C   UNL     1       2.135   5.901  -9.194  0.00  0.00    +0.076 C 
BRANCH  30  31
ATOM     31  N   UNL     1       2.929   5.368 -10.269  0.00  0.00    -0.273 NA
BRANCH  31  32
ATOM     32  C   UNL     1       2.687   6.055 -11.530  0.00  0.00    +0.072 C 
BRANCH  32  33
ATOM     33  C   UNL     1       1.290   5.781 -12.033  0.00  0.00    +0.017 C 
BRANCH  33  34
ATOM     34  C   UNL     1       0.585   7.022 -12.505  0.00  0.00    +0.001 C 
ATOM     35  C   UNL     1      -0.459   7.397 -11.490  0.00  0.00    +0.000 C 
ENDBRANCH  33  34
ENDBRANCH  32  33
ENDBRANCH  31  32
BRANCH  31  36
ATOM     36  C   UNL     1       4.339   5.455  -9.896  0.00  0.00    +0.072 C 
BRANCH  36  37
ATOM     37  C   UNL     1       5.074   5.966 -11.126  0.00  0.00    +0.017 C 
BRANCH  37  38
ATOM     38  C   UNL     1       6.277   6.754 -10.631  0.00  0.00    +0.001 C 
ATOM     39  C   UNL     1       6.443   8.025 -11.431  0.00  0.00    +0.000 C 
ENDBRANCH  37  38
ENDBRANCH  36  37
ENDBRANCH  31  36
ENDBRANCH  30  31
ENDBRANCH  29  30
ENDBRANCH  28  29
ENDBRANCH  27  28
ENDBRANCH  24  27
ENDBRANCH   1  21
TORSDOF 18
ENDMDL
MODEL 6
REMARK VINA RESULT:      -7.5      3.559      6.522
REMARK  Name = 
REMARK  18 active torsions:
REMARK  status: ('A' for Active; 'I' for Inactive)
REMARK    1  A    between atoms: C_2  and  C_3
REMARK    2  A    between atoms: C_3  and  C_4
REMARK    3  A    between atoms: C_4  and  C_5
REMARK    4  A    between atoms: C_10  and  N_11
REMARK    5  A    between atoms: N_11  and  S_12
REMARK    6  A    between atoms: C_18  and  C_19
REMARK    7  A    between atoms: C_19  and  C_21
REMARK    8  A    between atoms: C_24  and  O_25
REMARK    9  A    between atoms: O_25  and  C_26
REMARK   10  A    between atoms: C_26  and  C_27
REMARK   11  A    between atoms: C_27  and  C_28
REMARK   12  A    between atoms: C_28  and  N_29
REMARK   13  A    between atoms: N_29  and  C_30
REMARK   14  A    between atoms: N_29  and  C_34
REMARK   15  A    between atoms: C_30  and  C_31
REMARK   16  A    between atoms: C_31  and  C_32
REMARK   17  A    between atoms: C_34  and  C_35
REMARK   18  A    between atoms: C_35  and  C_36
REMARK                            x       y       z     vdW  Elec       q    Type
REMARK                         _______ _______ _______ _____ _____    ______ ____
ROOT
ATOM      1  C   UNL     1       2.355   4.789  -6.788  0.00  0.00    +0.198 C 
ATOM      2  O   UNL     1       3.119   4.461  -7.746  0.00  0.00    -0.286 OA
ENDROOT
BRANCH   1   4
ATOM      3  C   UNL     1       0.496   5.556  -8.380  0.00  0.00    +0.126 A 
ATOM      4  C   UNL     1       0.999   5.196  -7.136  0.00  0.00    +0.072 A 
ATOM      5  C   UNL     1      -0.063   5.161  -6.238  0.00  0.00    +0.042 A 
ATOM      6  C   UNL     1      -1.185   5.294  -7.047  0.00  0.00    +0.145 A 
ATOM      7  C   UNL     1      -2.399   5.407  -6.387  0.00  0.00    +0.039 A 
ATOM      8  C   UNL     1      -2.464   5.832  -5.072  0.00  0.00    +0.021 A 
ATOM      9  C   UNL     1      -1.307   5.961  -4.312  0.00  0.00    +0.091 A 
ATOM     10  C   UNL     1      -0.168   5.398  -4.872  0.00  0.00    +0.021 A 
ATOM     11  O   UNL     1      -0.807   5.564  -8.269  0.00  0.00    -0.458 OA
BRANCH   3  12
ATOM     12  C   UNL     1       1.336   6.178  -9.452  0.00  0.00    +0.065 C 
BRANCH  12  13
ATOM     13  C   UNL     1       0.626   5.868 -10.765  0.00  0.00    +0.008 C 
BRANCH  13  15
ATOM     14  C   UNL     1       0.270   7.367 -12.648  0.00  0.00    +0.000 C 
ATOM     15  C   UNL     1      -0.138   7.109 -11.208  0.00  0.00    +0.000 C 
ENDBRANCH  13  15
ENDBRANCH  12  13
ENDBRANCH   3  12
BRANCH   9  16
ATOM     16  N   UNL     1      -1.245   6.831  -3.175  0.00  0.00    -0.101 NA
BRANCH  16  17
ATOM     17  S   UNL     1      -1.426   6.128  -1.618  0.00  0.00    +0.075 S 
ATOM     18  O   UNL     1      -2.459   5.052  -1.596  0.00  0.00    -0.153 OA
ATOM     19  O   UNL     1      -1.893   7.216  -0.687  0.00  0.00    -0.153 OA
ATOM     20  C   UNL     1       0.127   5.441  -1.125  0.00  0.00    +0.202 C 
ENDBRANCH  16  17
ENDBRANCH   9  16
ENDBRANCH   1   4
BRANCH   1  21
ATOM     21  C   UNL     1       2.979   5.494  -5.661  0.00  0.00    +0.039 A 
ATOM     22  C   UNL     1       3.720   4.719  -4.778  0.00  0.00    +0.006 A 
ATOM     23  C   UNL     1       4.677   5.306  -3.965  0.00  0.00    +0.037 A 
ATOM     24  C   UNL     1       4.829   6.686  -3.970  0.00  0.00    +0.139 A 
ATOM     25  C   UNL     1       4.353   7.369  -5.064  0.00  0.00    +0.037 A 
ATOM     26  C   UNL     1       3.481   6.756  -5.954  0.00  0.00    +0.006 A 
BRANCH  24  27
ATOM     27  O   UNL     1       5.312   7.316  -2.827  0.00  0.00    -0.475 OA
BRANCH  27  28
ATOM     28  C   UNL     1       4.354   7.793  -1.886  0.00  0.00    +0.207 C 
BRANCH  28  29
ATOM     29  C   UNL     1       4.622   7.155  -0.530  0.00  0.00    +0.065 C 
BRANCH  29  30
ATOM     30  C   UNL     1       3.348   7.250   0.273  0.00  0.00    +0.076 C 
BRANCH  30  31
ATOM     31  N   UNL     1       3.558   7.700   1.624  0.00  0.00    -0.273 NA
BRANCH  31  32
ATOM     32  C   UNL     1       4.629   8.682   1.720  0.00  0.00    +0.072 C 
BRANCH  32  33
ATOM     33  C   UNL     1       4.084  10.036   2.107  0.00  0.00    +0.017 C 
BRANCH  33  34
ATOM     34  C   UNL     1       4.491  11.123   1.151  0.00  0.00    +0.001 C 
ATOM     35  C   UNL     1       3.607  11.050  -0.063  0.00  0.00    +0.000 C 
ENDBRANCH  33  34
ENDBRANCH  32  33
ENDBRANCH  31  32
BRANCH  31  36
ATOM     36  C   UNL     1       2.304   8.250   2.133  0.00  0.00    +0.072 C 
BRANCH  36  37
ATOM     37  C   UNL     1       1.318   8.204   0.975  0.00  0.00    +0.017 C 
BRANCH  37  38
ATOM     38  C   UNL     1       0.494   9.481   1.041  0.00  0.00    +0.001 C 
ATOM     39  C   UNL     1      -0.554   9.378   2.126  0.00  0.00    +0.000 C 
ENDBRANCH  37  38
ENDBRANCH  36  37
ENDBRANCH  31  36
ENDBRANCH  30  31
ENDBRANCH  29  30
ENDBRANCH  28  29
ENDBRANCH  27  28
ENDBRANCH  24  27
ENDBRANCH   1  21
TORSDOF 18
ENDMDL
MODEL 7
REMARK VINA RESULT:      -7.4      0.949      2.641
REMARK  Name = 
REMARK  18 active torsions:
REMARK  status: ('A' for Active; 'I' for Inactive)
REMARK    1  A    between atoms: C_2  and  C_3
REMARK    2  A    between atoms: C_3  and  C_4
REMARK    3  A    between atoms: C_4  and  C_5
REMARK    4  A    between atoms: C_10  and  N_11
REMARK    5  A    between atoms: N_11  and  S_12
REMARK    6  A    between atoms: C_18  and  C_19
REMARK    7  A    between atoms: C_19  and  C_21
REMARK    8  A    between atoms: C_24  and  O_25
REMARK    9  A    between atoms: O_25  and  C_26
REMARK   10  A    between atoms: C_26  and  C_27
REMARK   11  A    between atoms: C_27  and  C_28
REMARK   12  A    between atoms: C_28  and  N_29
REMARK   13  A    between atoms: N_29  and  C_30
REMARK   14  A    between atoms: N_29  and  C_34
REMARK   15  A    between atoms: C_30  and  C_31
REMARK   16  A    between atoms: C_31  and  C_32
REMARK   17  A    between atoms: C_34  and  C_35
REMARK   18  A    between atoms: C_35  and  C_36
REMARK                            x       y       z     vdW  Elec       q    Type
REMARK                         _______ _______ _______ _____ _____    ______ ____
ROOT
ATOM      1  C   UNL     1       2.945   7.226  -7.290  0.00  0.00    +0.198 C 
ATOM      2  O   UNL     1       2.254   8.240  -7.608  0.00  0.00    -0.286 OA
ENDROOT
BRANCH   1   4
ATOM      3  C   UNL     1       3.774   5.034  -8.332  0.00  0.00    +0.126 A 
ATOM      4  C   UNL     1       2.860   6.068  -8.173  0.00  0.00    +0.072 A 
ATOM      5  C   UNL     1       1.733   5.766  -8.929  0.00  0.00    +0.042 A 
ATOM      6  C   UNL     1       1.948   4.454  -9.333  0.00  0.00    +0.145 A 
ATOM      7  C   UNL     1       1.013   3.928 -10.213  0.00  0.00    +0.039 A 
ATOM      8  C   UNL     1       0.222   4.752 -10.994  0.00  0.00    +0.021 A 
ATOM      9  C   UNL     1       0.194   6.124 -10.774  0.00  0.00    +0.091 A 
ATOM     10  C   UNL     1       0.789   6.542  -9.591  0.00  0.00    +0.021 A 
ATOM     11  O   UNL     1       3.160   4.092  -9.000  0.00  0.00    -0.458 OA
BRANCH   3  12
ATOM     12  C   UNL     1       5.245   5.200  -8.110  0.00  0.00    +0.065 C 
BRANCH  12  13
ATOM     13  C   UNL     1       5.882   5.136  -9.494  0.00  0.00    +0.008 C 
BRANCH  13  15
ATOM     14  C   UNL     1       7.156   6.885 -10.604  0.00  0.00    +0.000 C 
ATOM     15  C   UNL     1       5.758   6.506 -10.149  0.00  0.00    +0.000 C 
ENDBRANCH  13  15
ENDBRANCH  12  13
ENDBRANCH   3  12
BRANCH   9  16
ATOM     16  N   UNL     1      -0.181   7.046 -11.804  0.00  0.00    -0.101 NA
BRANCH  16  17
ATOM     17  S   UNL     1       0.782   7.094 -13.226  0.00  0.00    +0.075 S 
ATOM     18  O   UNL     1       0.375   6.062 -14.224  0.00  0.00    -0.153 OA
ATOM     19  O   UNL     1       2.200   6.788 -12.818  0.00  0.00    -0.153 OA
ATOM     20  C   UNL     1       0.623   8.694 -13.960  0.00  0.00    +0.202 C 
ENDBRANCH  16  17
ENDBRANCH   9  16
ENDBRANCH   1   4
BRANCH   1  21
ATOM     21  C   UNL     1       3.078   6.943  -5.855  0.00  0.00    +0.039 A 
ATOM     22  C   UNL     1       2.683   5.679  -5.433  0.00  0.00    +0.006 A 
ATOM     23  C   UNL     1       3.152   5.164  -4.235  0.00  0.00    +0.037 A 
ATOM     24  C   UNL     1       3.946   5.951  -3.413  0.00  0.00    +0.139 A 
ATOM     25  C   UNL     1       4.589   7.020  -3.992  0.00  0.00    +0.037 A 
ATOM     26  C   UNL     1       4.206   7.479  -5.246  0.00  0.00    +0.006 A 
BRANCH  24  27
ATOM     27  O   UNL     1       3.940   5.716  -2.041  0.00  0.00    -0.475 OA
BRANCH  27  28
ATOM     28  C   UNL     1       2.936   4.845  -1.529  0.00  0.00    +0.207 C 
BRANCH  28  29
ATOM     29  C   UNL     1       1.688   5.655  -1.204  0.00  0.00    +0.065 C 
BRANCH  29  30
ATOM     30  C   UNL     1       0.520   4.974  -1.873  0.00  0.00    +0.076 C 
BRANCH  30  31
ATOM     31  N   UNL     1      -0.525   5.884  -2.260  0.00  0.00    -0.273 NA
BRANCH  31  32
ATOM     32  C   UNL     1      -0.910   5.725  -3.656  0.00  0.00    +0.072 C 
BRANCH  32  33
ATOM     33  C   UNL     1      -0.526   6.942  -4.462  0.00  0.00    +0.017 C 
BRANCH  33  34
ATOM     34  C   UNL     1      -0.644   6.721  -5.945  0.00  0.00    +0.001 C 
ATOM     35  C   UNL     1      -1.194   5.341  -6.182  0.00  0.00    +0.000 C 
ENDBRANCH  33  34
ENDBRANCH  32  33
ENDBRANCH  31  32
BRANCH  31  36
ATOM     36  C   UNL     1      -1.674   5.678  -1.381  0.00  0.00    +0.072 C 
BRANCH  36  37
ATOM     37  C   UNL     1      -2.421   7.002  -1.338  0.00  0.00    +0.017 C 
BRANCH  37  38
ATOM     38  C   UNL     1      -1.784   7.838  -0.238  0.00  0.00    +0.001 C 
ATOM     39  C   UNL     1      -1.699   7.044   1.046  0.00  0.00    +0.000 C 
ENDBRANCH  37  38
ENDBRANCH  36  37
ENDBRANCH  31  36
ENDBRANCH  30  31
ENDBRANCH  29  30
ENDBRANCH  28  29
ENDBRANCH  27  28
ENDBRANCH  24  27
ENDBRANCH   1  21
TORSDOF 18
ENDMDL
MODEL 8
REMARK VINA RESULT:      -7.4      3.541      6.440
REMARK  Name = 
REMARK  18 active torsions:
REMARK  status: ('A' for Active; 'I' for Inactive)
REMARK    1  A    between atoms: C_2  and  C_3
REMARK    2  A    between atoms: C_3  and  C_4
REMARK    3  A    between atoms: C_4  and  C_5
REMARK    4  A    between atoms: C_10  and  N_11
REMARK    5  A    between atoms: N_11  and  S_12
REMARK    6  A    between atoms: C_18  and  C_19
REMARK    7  A    between atoms: C_19  and  C_21
REMARK    8  A    between atoms: C_24  and  O_25
REMARK    9  A    between atoms: O_25  and  C_26
REMARK   10  A    between atoms: C_26  and  C_27
REMARK   11  A    between atoms: C_27  and  C_28
REMARK   12  A    between atoms: C_28  and  N_29
REMARK   13  A    between atoms: N_29  and  C_30
REMARK   14  A    between atoms: N_29  and  C_34
REMARK   15  A    between atoms: C_30  and  C_31
REMARK   16  A    between atoms: C_31  and  C_32
REMARK   17  A    between atoms: C_34  and  C_35
REMARK   18  A    between atoms: C_35  and  C_36
REMARK                            x       y       z     vdW  Elec       q    Type
REMARK                         _______ _______ _______ _____ _____    ______ ____
ROOT
ATOM      1  C   UNL     1       2.428   4.858  -6.718  0.00  0.00    +0.198 C 
ATOM      2  O   UNL     1       3.230   4.581  -7.660  0.00  0.00    -0.286 OA
ENDROOT
BRANCH   1   4
ATOM      3  C   UNL     1       0.595   5.592  -8.355  0.00  0.00    +0.126 A 
ATOM      4  C   UNL     1       1.074   5.247  -7.098  0.00  0.00    +0.072 A 
ATOM      5  C   UNL     1      -0.006   5.205  -6.223  0.00  0.00    +0.042 A 
ATOM      6  C   UNL     1      -1.111   5.319  -7.057  0.00  0.00    +0.145 A 
ATOM      7  C   UNL     1      -2.341   5.423  -6.423  0.00  0.00    +0.039 A 
ATOM      8  C   UNL     1      -2.439   5.856  -5.113  0.00  0.00    +0.021 A 
ATOM      9  C   UNL     1      -1.300   6.004  -4.329  0.00  0.00    +0.091 A 
ATOM     10  C   UNL     1      -0.143   5.450  -4.862  0.00  0.00    +0.021 A 
ATOM     11  O   UNL     1      -0.711   5.585  -8.273  0.00  0.00    -0.458 OA
BRANCH   3  12
ATOM     12  C   UNL     1       1.450   6.216  -9.414  0.00  0.00    +0.065 C 
BRANCH  12  13
ATOM     13  C   UNL     1       0.966   5.630 -10.735  0.00  0.00    +0.008 C 
BRANCH  13  15
ATOM     14  C   UNL     1      -0.601   7.330 -11.489  0.00  0.00    +0.000 C 
ATOM     15  C   UNL     1       0.788   6.767 -11.733  0.00  0.00    +0.000 C 
ENDBRANCH  13  15
ENDBRANCH  12  13
ENDBRANCH   3  12
BRANCH   9  16
ATOM     16  N   UNL     1      -1.272   6.882  -3.198  0.00  0.00    -0.101 NA
BRANCH  16  17
ATOM     17  S   UNL     1      -1.590   6.206  -1.651  0.00  0.00    +0.075 S 
ATOM     18  O   UNL     1      -2.419   4.967  -1.730  0.00  0.00    -0.153 OA
ATOM     19  O   UNL     1      -2.379   7.223  -0.870  0.00  0.00    -0.153 OA
ATOM     20  C   UNL     1      -0.048   5.814  -0.880  0.00  0.00    +0.202 C 
ENDBRANCH  16  17
ENDBRANCH   9  16
ENDBRANCH   1   4
BRANCH   1  21
ATOM     21  C   UNL     1       2.997   5.537  -5.547  0.00  0.00    +0.039 A 
ATOM     22  C   UNL     1       3.706   4.742  -4.654  0.00  0.00    +0.006 A 
ATOM     23  C   UNL     1       4.622   5.314  -3.785  0.00  0.00    +0.037 A 
ATOM     24  C   UNL     1       4.763   6.694  -3.747  0.00  0.00    +0.139 A 
ATOM     25  C   UNL     1       4.329   7.404  -4.841  0.00  0.00    +0.037 A 
ATOM     26  C   UNL     1       3.501   6.809  -5.785  0.00  0.00    +0.006 A 
BRANCH  24  27
ATOM     27  O   UNL     1       5.191   7.297  -2.568  0.00  0.00    -0.475 OA
BRANCH  27  28
ATOM     28  C   UNL     1       4.196   7.871  -1.725  0.00  0.00    +0.207 C 
BRANCH  28  29
ATOM     29  C   UNL     1       4.514   7.534  -0.274  0.00  0.00    +0.065 C 
BRANCH  29  30
ATOM     30  C   UNL     1       3.238   7.693   0.516  0.00  0.00    +0.076 C 
BRANCH  30  31
ATOM     31  N   UNL     1       2.950   9.058   0.866  0.00  0.00    -0.273 NA
BRANCH  31  32
ATOM     32  C   UNL     1       1.835   9.168   1.797  0.00  0.00    +0.072 C 
BRANCH  32  33
ATOM     33  C   UNL     1       0.627   9.768   1.122  0.00  0.00    +0.017 C 
BRANCH  33  34
ATOM     34  C   UNL     1      -0.671   9.247   1.676  0.00  0.00    +0.001 C 
ATOM     35  C   UNL     1      -0.441   7.862   2.213  0.00  0.00    +0.000 C 
ENDBRANCH  33  34
ENDBRANCH  32  33
ENDBRANCH  31  32
BRANCH  31  36
ATOM     36  C   UNL     1       4.155   9.661   1.430  0.00  0.00    +0.072 C 
BRANCH  36  37
ATOM     37  C   UNL     1       4.083  11.144   1.102  0.00  0.00    +0.017 C 
BRANCH  37  38
ATOM     38  C   UNL     1       3.720  11.258  -0.370  0.00  0.00    +0.001 C 
ATOM     39  C   UNL     1       4.084  12.626  -0.900  0.00  0.00    +0.000 C 
ENDBRANCH  37  38
ENDBRANCH  36  37
ENDBRANCH  31  36
ENDBRANCH  30  31
ENDBRANCH  29  30
ENDBRANCH  28  29
ENDBRANCH  27  28
ENDBRANCH  24  27
ENDBRANCH   1  21
TORSDOF 18
ENDMDL
MODEL 9
REMARK VINA RESULT:      -7.3      3.688      9.992
REMARK  Name = 
REMARK  18 active torsions:
REMARK  status: ('A' for Active; 'I' for Inactive)
REMARK    1  A    between atoms: C_2  and  C_3
REMARK    2  A    between atoms: C_3  and  C_4
REMARK    3  A    between atoms: C_4  and  C_5
REMARK    4  A    between atoms: C_10  and  N_11
REMARK    5  A    between atoms: N_11  and  S_12
REMARK    6  A    between atoms: C_18  and  C_19
REMARK    7  A    between atoms: C_19  and  C_21
REMARK    8  A    between atoms: C_24  and  O_25
REMARK    9  A    between atoms: O_25  and  C_26
REMARK   10  A    between atoms: C_26  and  C_27
REMARK   11  A    between atoms: C_27  and  C_28
REMARK   12  A    between atoms: C_28  and  N_29
REMARK   13  A    between atoms: N_29  and  C_30
REMARK   14  A    between atoms: N_29  and  C_34
REMARK   15  A    between atoms: C_30  and  C_31
REMARK   16  A    between atoms: C_31  and  C_32
REMARK   17  A    between atoms: C_34  and  C_35
REMARK   18  A    between atoms: C_35  and  C_36
REMARK                            x       y       z     vdW  Elec       q    Type
REMARK                         _______ _______ _______ _____ _____    ______ ____
ROOT
ATOM      1  C   UNL     1       0.380   5.629  -1.604  0.00  0.00    +0.198 C 
ATOM      2  O   UNL     1       0.039   4.411  -1.512  0.00  0.00    -0.286 OA
ENDROOT
BRANCH   1   4
ATOM      3  C   UNL     1      -1.880   6.824  -1.409  0.00  0.00    +0.126 A 
ATOM      4  C   UNL     1      -0.550   6.616  -1.068  0.00  0.00    +0.072 A 
ATOM      5  C   UNL     1      -0.245   7.451   0.002  0.00  0.00    +0.042 A 
ATOM      6  C   UNL     1      -1.479   7.961   0.385  0.00  0.00    +0.145 A 
ATOM      7  C   UNL     1      -1.454   8.930   1.378  0.00  0.00    +0.039 A 
ATOM      8  C   UNL     1      -0.312   9.670   1.628  0.00  0.00    +0.021 A 
ATOM      9  C   UNL     1       0.898   9.328   1.037  0.00  0.00    +0.091 A 
ATOM     10  C   UNL     1       0.920   8.084   0.419  0.00  0.00    +0.021 A 
ATOM     11  O   UNL     1      -2.385   7.605  -0.488  0.00  0.00    -0.458 OA
BRANCH   3  12
ATOM     12  C   UNL     1      -2.435   6.518  -2.765  0.00  0.00    +0.065 C 
BRANCH  12  13
ATOM     13  C   UNL     1      -1.981   7.660  -3.666  0.00  0.00    +0.008 C 
BRANCH  13  15
ATOM     14  C   UNL     1      -2.270   6.128  -5.533  0.00  0.00    +0.000 C 
ATOM     15  C   UNL     1      -2.656   7.505  -5.023  0.00  0.00    +0.000 C 
ENDBRANCH  13  15
ENDBRANCH  12  13
ENDBRANCH   3  12
BRANCH   9  16
ATOM     16  N   UNL     1       1.945  10.286   0.853  0.00  0.00    -0.101 NA
BRANCH  16  17
ATOM     17  S   UNL     1       3.568   9.739   1.000  0.00  0.00    +0.075 S 
ATOM     18  O   UNL     1       4.538  10.865   1.135  0.00  0.00    -0.153 OA
ATOM     19  O   UNL     1       3.910   9.004  -0.269  0.00  0.00    -0.153 OA
ATOM     20  C   UNL     1       3.687   8.706   2.430  0.00  0.00    +0.202 C 
ENDBRANCH  16  17
ENDBRANCH   9  16
ENDBRANCH   1   4
BRANCH   1  21
ATOM     21  C   UNL     1       1.119   6.017  -2.812  0.00  0.00    +0.039 A 
ATOM     22  C   UNL     1       2.439   6.410  -2.632  0.00  0.00    +0.006 A 
ATOM     23  C   UNL     1       3.330   6.376  -3.694  0.00  0.00    +0.037 A 
ATOM     24  C   UNL     1       2.876   6.033  -4.960  0.00  0.00    +0.139 A 
ATOM     25  C   UNL     1       1.696   5.332  -5.039  0.00  0.00    +0.037 A 
ATOM     26  C   UNL     1       0.843   5.260  -3.945  0.00  0.00    +0.006 A 
BRANCH  24  27
ATOM     27  O   UNL     1       3.545   6.530  -6.074  0.00  0.00    -0.475 OA
BRANCH  27  28
ATOM     28  C   UNL     1       4.679   5.802  -6.538  0.00  0.00    +0.207 C 
BRANCH  28  29
ATOM     29  C   UNL     1       4.483   5.449  -8.006  0.00  0.00    +0.065 C 
BRANCH  29  30
ATOM     30  C   UNL     1       3.479   6.421  -8.574  0.00  0.00    +0.076 C 
BRANCH  30  31
ATOM     31  N   UNL     1       3.627   6.631  -9.990  0.00  0.00    -0.273 NA
BRANCH  31  32
ATOM     32  C   UNL     1       4.823   5.994 -10.522  0.00  0.00    +0.072 C 
BRANCH  32  33
ATOM     33  C   UNL     1       5.431   6.826 -11.625  0.00  0.00    +0.017 C 
BRANCH  33  34
ATOM     34  C   UNL     1       6.521   7.739 -11.135  0.00  0.00    +0.001 C 
ATOM     35  C   UNL     1       7.530   6.918 -10.380  0.00  0.00    +0.000 C 
ENDBRANCH  33  34
ENDBRANCH  32  33
ENDBRANCH  31  32
BRANCH  31  36
ATOM     36  C   UNL     1       2.431   6.130 -10.664  0.00  0.00    +0.072 C 
BRANCH  36  37
ATOM     37  C   UNL     1       1.246   6.600  -9.833  0.00  0.00    +0.017 C 
BRANCH  37  38
ATOM     38  C   UNL     1      -0.012   6.116 -10.538  0.00  0.00    +0.001 C 
ATOM     39  C   UNL     1       0.283   4.881 -11.358  0.00  0.00    +0.000 C 
ENDBRANCH  37  38
ENDBRANCH  36  37
ENDBRANCH  31  36
ENDBRANCH  30  31
ENDBRANCH  29  30
ENDBRANCH  28  29
ENDBRANCH  27  28
ENDBRANCH  24  27
ENDBRANCH   1  21
TORSDOF 18
ENDMDL
