MODEL 1
REMARK VINA RESULT:      -9.1      0.000      0.000
REMARK  Name = 
REMARK  1 active torsions:
REMARK  status: ('A' for Active; 'I' for Inactive)
REMARK    1  A    between atoms: C_14  and  C_15
REMARK                            x       y       z     vdW  Elec       q    Type
REMARK                         _______ _______ _______ _____ _____    ______ ____
ROOT
ATOM      1  C   UNL     1      -1.013   5.029  -7.141  0.00  0.00    +0.074 C 
ATOM      2  C   UNL     1       0.150   5.657  -6.440  0.00  0.00    +0.147 A 
ATOM      3  N   UNL     1       1.253   6.104  -7.087  0.00  0.00    -0.279 N 
ATOM      4  C   UNL     1       1.403   6.194  -8.508  0.00  0.00    +0.068 A 
ATOM      5  C   UNL     1       2.558   6.137  -9.280  0.00  0.00    +0.034 A 
ATOM      6  C   UNL     1       3.920   6.019  -8.764  0.00  0.00    +0.078 C 
ATOM      7  N   UNL     1       4.290   5.900  -7.524  0.00  0.00    -0.262 NA
ATOM      8  C   UNL     1       3.668   6.483  -6.339  0.00  0.00    +0.191 C 
ATOM      9  C   UNL     1       2.519   5.875 -10.643  0.00  0.00    +0.014 A 
ATOM     10  C   UNL     1       1.309   5.604 -11.223  0.00  0.00    +0.058 A 
ATOM     11 CL   UNL     1       1.283   5.001 -12.869  0.00  0.00    -0.082 Cl
ATOM     12  C   UNL     1       0.189   5.388 -10.428  0.00  0.00    +0.013 A 
ATOM     13  C   UNL     1       0.200   5.946  -9.155  0.00  0.00    +0.019 A 
ATOM     14  C   UNL     1       2.265   6.029  -6.189  0.00  0.00    +0.172 A 
ATOM     15  N   UNL     1       1.870   5.310  -5.111  0.00  0.00    -0.131 NA
ATOM     16  N   UNL     1       0.549   5.293  -5.200  0.00  0.00    -0.133 NA
ENDROOT
BRANCH   6  17
ATOM     17  C   UNL     1       4.969   6.148  -9.780  0.00  0.00    +0.017 A 
ATOM     18  C   UNL     1       6.204   5.556  -9.574  0.00  0.00    +0.001 A 
ATOM     19  C   UNL     1       7.268   5.932 -10.383  0.00  0.00    +0.000 A 
ATOM     20  C   UNL     1       7.143   7.008 -11.254  0.00  0.00    +0.000 A 
ATOM     21  C   UNL     1       6.048   7.854 -11.126  0.00  0.00    +0.000 A 
ATOM     22  C   UNL     1       4.901   7.260 -10.611  0.00  0.00    +0.001 A 
ENDBRANCH   6  17
TORSDOF 1
ENDMDL
MODEL 2
REMARK VINA RESULT:      -9.1      4.172      5.149
REMARK  Name = 
REMARK  1 active torsions:
REMARK  status: ('A' for Active; 'I' for Inactive)
REMARK    1  A    between atoms: C_14  and  C_15
REMARK                            x       y       z     vdW  Elec       q    Type
REMARK                         _______ _______ _______ _____ _____    ______ ____
ROOT
ATOM      1  C   UNL     1      -3.495   4.855  -5.100  0.00  0.00    +0.074 C 
ATOM      2  C   UNL     1      -2.860   5.432  -3.874  0.00  0.00    +0.147 A 
ATOM      3  N   UNL     1      -1.592   5.909  -3.849  0.00  0.00    -0.279 N 
ATOM      4  C   UNL     1      -0.748   6.082  -4.993  0.00  0.00    +0.068 A 
ATOM      5  C   UNL     1       0.640   6.063  -5.077  0.00  0.00    +0.034 A 
ATOM      6  C   UNL     1       1.557   5.906  -3.950  0.00  0.00    +0.078 C 
ATOM      7  N   UNL     1       1.253   5.710  -2.701  0.00  0.00    -0.262 NA
ATOM      8  C   UNL     1       0.104   6.226  -1.964  0.00  0.00    +0.191 C 
ATOM      9  C   UNL     1       1.300   5.883  -6.284  0.00  0.00    +0.014 A 
ATOM     10  C   UNL     1       0.556   5.656  -7.410  0.00  0.00    +0.058 A 
ATOM     11 CL   UNL     1       1.379   5.152  -8.874  0.00  0.00    -0.082 Cl
ATOM     12  C   UNL     1      -0.806   5.401  -7.304  0.00  0.00    +0.013 A 
ATOM     13  C   UNL     1      -1.454   5.882  -6.171  0.00  0.00    +0.019 A 
ATOM     14  C   UNL     1      -1.171   5.774  -2.568  0.00  0.00    +0.172 A 
ATOM     15  N   UNL     1      -2.038   4.993  -1.880  0.00  0.00    -0.131 NA
ATOM     16  N   UNL     1      -3.134   4.991  -2.625  0.00  0.00    -0.133 NA
ENDROOT
BRANCH   6  17
ATOM     17  C   UNL     1       2.972   6.088  -4.288  0.00  0.00    +0.017 A 
ATOM     18  C   UNL     1       3.868   5.051  -4.085  0.00  0.00    +0.001 A 
ATOM     19  C   UNL     1       5.228   5.327  -4.119  0.00  0.00    +0.000 A 
ATOM     20  C   UNL     1       5.677   6.641  -4.170  0.00  0.00    +0.000 A 
ATOM     21  C   UNL     1       4.775   7.670  -3.931  0.00  0.00    +0.000 A 
ATOM     22  C   UNL     1       3.457   7.390  -4.270  0.00  0.00    +0.001 A 
ENDBRANCH   6  17
TORSDOF 1
ENDMDL
MODEL 3
REMARK VINA RESULT:      -9.0      4.758      7.017
REMARK  Name = 
REMARK  1 active torsions:
REMARK  status: ('A' for Active; 'I' for Inactive)
REMARK    1  A    between atoms: C_14  and  C_15
REMARK                            x       y       z     vdW  Elec       q    Type
REMARK                         _______ _______ _______ _____ _____    ______ ____
ROOT
ATOM      1  C   UNL     1      -2.351   5.534  -5.942  0.00  0.00    +0.074 C 
ATOM      2  C   UNL     1      -2.484   5.751  -4.468  0.00  0.00    +0.147 A 
ATOM      3  N   UNL     1      -1.458   6.159  -3.683  0.00  0.00    -0.279 N 
ATOM      4  C   UNL     1      -0.175   6.589  -4.150  0.00  0.00    +0.068 A 
ATOM      5  C   UNL     1       1.059   6.541  -3.511  0.00  0.00    +0.034 A 
ATOM      6  C   UNL     1       1.293   6.065  -2.149  0.00  0.00    +0.078 C 
ATOM      7  N   UNL     1       0.422   5.566  -1.323  0.00  0.00    -0.262 NA
ATOM      8  C   UNL     1      -0.987   5.917  -1.182  0.00  0.00    +0.191 C 
ATOM      9  C   UNL     1       2.253   6.653  -4.210  0.00  0.00    +0.014 A 
ATOM     10  C   UNL     1       2.206   6.751  -5.575  0.00  0.00    +0.058 A 
ATOM     11 CL   UNL     1       3.701   6.611  -6.479  0.00  0.00    -0.082 Cl
ATOM     12  C   UNL     1       1.010   6.528  -6.247  0.00  0.00    +0.013 A 
ATOM     13  C   UNL     1      -0.165   6.725  -5.531  0.00  0.00    +0.019 A 
ATOM     14  C   UNL     1      -1.730   5.683  -2.443  0.00  0.00    +0.172 A 
ATOM     15  N   UNL     1      -2.742   4.785  -2.507  0.00  0.00    -0.131 NA
ATOM     16  N   UNL     1      -3.305   5.015  -3.684  0.00  0.00    -0.133 NA
ENDROOT
BRANCH   6  17
ATOM     17  C   UNL     1       2.658   6.275  -1.658  0.00  0.00    +0.017 A 
ATOM     18  C   UNL     1       3.462   5.185  -1.368  0.00  0.00    +0.001 A 
ATOM     19  C   UNL     1       4.619   5.386  -0.629  0.00  0.00    +0.000 A 
ATOM     20  C   UNL     1       4.870   6.619  -0.037  0.00  0.00    +0.000 A 
ATOM     21  C   UNL     1       3.847   7.556   0.025  0.00  0.00    +0.000 A 
ATOM     22  C   UNL     1       2.907   7.472  -0.996  0.00  0.00    +0.001 A 
ENDBRANCH   6  17
TORSDOF 1
ENDMDL
MODEL 4
REMARK VINA RESULT:      -9.0      2.862      6.772
REMARK  Name = 
REMARK  1 active torsions:
REMARK  status: ('A' for Active; 'I' for Inactive)
REMARK    1  A    between atoms: C_14  and  C_15
REMARK                            x       y       z     vdW  Elec       q    Type
REMARK                         _______ _______ _______ _____ _____    ______ ____
ROOT
ATOM      1  C   UNL     1       5.764   5.141  -8.525  0.00  0.00    +0.074 C 
ATOM      2  C   UNL     1       4.601   5.763  -9.233  0.00  0.00    +0.147 A 
ATOM      3  N   UNL     1       3.485   6.190  -8.594  0.00  0.00    -0.279 N 
ATOM      4  C   UNL     1       3.317   6.261  -7.174  0.00  0.00    +0.068 A 
ATOM      5  C   UNL     1       2.154   6.181  -6.417  0.00  0.00    +0.034 A 
ATOM      6  C   UNL     1       0.799   6.054  -6.951  0.00  0.00    +0.078 C 
ATOM      7  N   UNL     1       0.446   5.944  -8.197  0.00  0.00    -0.262 NA
ATOM      8  C   UNL     1       1.076   6.549  -9.366  0.00  0.00    +0.191 C 
ATOM      9  C   UNL     1       2.180   5.904  -5.057  0.00  0.00    +0.014 A 
ATOM     10  C   UNL     1       3.386   5.640  -4.465  0.00  0.00    +0.058 A 
ATOM     11 CL   UNL     1       3.399   5.018  -2.826  0.00  0.00    -0.082 Cl
ATOM     12  C   UNL     1       4.518   5.447  -5.248  0.00  0.00    +0.013 A 
ATOM     13  C   UNL     1       4.515   6.020  -6.515  0.00  0.00    +0.019 A 
ATOM     14  C   UNL     1       2.485   6.114  -9.506  0.00  0.00    +0.172 A 
ATOM     15  N   UNL     1       2.901   5.411 -10.586  0.00  0.00    -0.131 NA
ATOM     16  N   UNL     1       4.222   5.409 -10.482  0.00  0.00    -0.133 NA
ENDROOT
BRANCH   6  17
ATOM     17  C   UNL     1      -0.263   6.158  -5.946  0.00  0.00    +0.017 A 
ATOM     18  C   UNL     1      -1.422   5.414  -6.089  0.00  0.00    +0.001 A 
ATOM     19  C   UNL     1      -2.526   5.742  -5.314  0.00  0.00    +0.000 A 
ATOM     20  C   UNL     1      -2.529   6.902  -4.549  0.00  0.00    +0.000 A 
ATOM     21  C   UNL     1      -1.536   7.850  -4.761  0.00  0.00    +0.000 A 
ATOM     22  C   UNL     1      -0.326   7.344  -5.223  0.00  0.00    +0.001 A 
ENDBRANCH   6  17
TORSDOF 1
ENDMDL
MODEL 5
REMARK VINA RESULT:      -8.9      3.344      7.189
REMARK  Name = 
REMARK  1 active torsions:
REMARK  status: ('A' for Active; 'I' for Inactive)
REMARK    1  A    between atoms: C_14  and  C_15
REMARK                            x       y       z     vdW  Elec       q    Type
REMARK                         _______ _______ _______ _____ _____    ______ ____
ROOT
ATOM      1  C   UNL     1       5.171   5.293  -7.860  0.00  0.00    +0.074 C 
ATOM      2  C   UNL     1       3.803   5.386  -8.459  0.00  0.00    +0.147 A 
ATOM      3  N   UNL     1       2.732   5.877  -7.790  0.00  0.00    -0.279 N 
ATOM      4  C   UNL     1       2.775   6.515  -6.509  0.00  0.00    +0.068 A 
ATOM      5  C   UNL     1       1.791   6.597  -5.530  0.00  0.00    +0.034 A 
ATOM      6  C   UNL     1       0.435   6.063  -5.641  0.00  0.00    +0.078 C 
ATOM      7  N   UNL     1      -0.073   5.390  -6.630  0.00  0.00    -0.262 NA
ATOM      8  C   UNL     1       0.214   5.528  -8.054  0.00  0.00    +0.191 C 
ATOM      9  C   UNL     1       2.089   6.925  -4.215  0.00  0.00    +0.014 A 
ATOM     10  C   UNL     1       3.400   7.111  -3.867  0.00  0.00    +0.058 A 
ATOM     11 CL   UNL     1       3.807   7.247  -2.168  0.00  0.00    -0.082 Cl
ATOM     12  C   UNL     1       4.411   6.770  -4.758  0.00  0.00    +0.013 A 
ATOM     13  C   UNL     1       4.083   6.749  -6.109  0.00  0.00    +0.019 A 
ATOM     14  C   UNL     1       1.647   5.282  -8.341  0.00  0.00    +0.172 A 
ATOM     15  N   UNL     1       2.039   4.257  -9.135  0.00  0.00    -0.131 NA
ATOM     16  N   UNL     1       3.326   4.487  -9.350  0.00  0.00    -0.133 NA
ENDROOT
BRANCH   6  17
ATOM     17  C   UNL     1      -0.455   6.428  -4.535  0.00  0.00    +0.017 A 
ATOM     18  C   UNL     1      -0.907   5.452  -3.662  0.00  0.00    +0.001 A 
ATOM     19  C   UNL     1      -1.969   5.749  -2.820  0.00  0.00    +0.000 A 
ATOM     20  C   UNL     1      -2.682   6.932  -2.977  0.00  0.00    +0.000 A 
ATOM     21  C   UNL     1      -2.490   7.685  -4.128  0.00  0.00    +0.000 A 
ATOM     22  C   UNL     1      -1.231   7.569  -4.706  0.00  0.00    +0.001 A 
ENDBRANCH   6  17
TORSDOF 1
ENDMDL
MODEL 6
REMARK VINA RESULT:      -8.8      3.327      5.030
REMARK  Name = 
REMARK  1 active torsions:
REMARK  status: ('A' for Active; 'I' for Inactive)
REMARK    1  A    between atoms: C_14  and  C_15
REMARK                            x       y       z     vdW  Elec       q    Type
REMARK                         _______ _______ _______ _____ _____    ______ ____
ROOT
ATOM      1  C   UNL     1      -0.629   5.792  -0.836  0.00  0.00    +0.074 C 
ATOM      2  C   UNL     1       0.839   5.943  -1.086  0.00  0.00    +0.147 A 
ATOM      3  N   UNL     1       1.371   6.075  -2.325  0.00  0.00    -0.279 N 
ATOM      4  C   UNL     1       0.625   6.250  -3.535  0.00  0.00    +0.068 A 
ATOM      5  C   UNL     1       0.962   5.902  -4.838  0.00  0.00    +0.034 A 
ATOM      6  C   UNL     1       2.228   5.305  -5.258  0.00  0.00    +0.078 C 
ATOM      7  N   UNL     1       3.228   4.954  -4.505  0.00  0.00    -0.262 NA
ATOM      8  C   UNL     1       3.693   5.588  -3.275  0.00  0.00    +0.191 C 
ATOM      9  C   UNL     1       0.008   5.800  -5.841  0.00  0.00    +0.014 A 
ATOM     10  C   UNL     1      -1.308   5.987  -5.514  0.00  0.00    +0.058 A 
ATOM     11 CL   UNL     1      -2.533   5.587  -6.702  0.00  0.00    -0.082 Cl
ATOM     12  C   UNL     1      -1.690   6.065  -4.180  0.00  0.00    +0.013 A 
ATOM     13  C   UNL     1      -0.720   6.464  -3.267  0.00  0.00    +0.019 A 
ATOM     14  C   UNL     1       2.635   5.594  -2.238  0.00  0.00    +0.172 A 
ATOM     15  N   UNL     1       2.796   4.937  -1.064  0.00  0.00    -0.131 NA
ATOM     16  N   UNL     1       1.783   5.352  -0.319  0.00  0.00    -0.133 NA
ENDROOT
BRANCH   6  17
ATOM     17  C   UNL     1       2.395   5.190  -6.710  0.00  0.00    +0.017 A 
ATOM     18  C   UNL     1       2.321   3.946  -7.316  0.00  0.00    +0.001 A 
ATOM     19  C   UNL     1       2.774   3.812  -8.621  0.00  0.00    +0.000 A 
ATOM     20  C   UNL     1       3.454   4.853  -9.241  0.00  0.00    +0.000 A 
ATOM     21  C   UNL     1       3.897   5.920  -8.469  0.00  0.00    +0.000 A 
ATOM     22  C   UNL     1       3.137   6.185  -7.336  0.00  0.00    +0.001 A 
ENDBRANCH   6  17
TORSDOF 1
ENDMDL
MODEL 7
REMARK VINA RESULT:      -8.7      2.757      5.069
REMARK  Name = 
REMARK  1 active torsions:
REMARK  status: ('A' for Active; 'I' for Inactive)
REMARK    1  A    between atoms: C_14  and  C_15
REMARK                            x       y       z     vdW  Elec       q    Type
REMARK                         _______ _______ _______ _____ _____    ______ ____
ROOT
ATOM      1  C   UNL     1      -0.099   5.673 -11.215  0.00  0.00    +0.074 C 
ATOM      2  C   UNL     1       1.363   5.370 -11.108  0.00  0.00    +0.147 A 
ATOM      3  N   UNL     1       2.002   5.207  -9.924  0.00  0.00    -0.279 N 
ATOM      4  C   UNL     1       1.369   5.138  -8.641  0.00  0.00    +0.068 A 
ATOM      5  C   UNL     1       1.873   5.474  -7.390  0.00  0.00    +0.034 A 
ATOM      6  C   UNL     1       3.231   5.939  -7.116  0.00  0.00    +0.078 C 
ATOM      7  N   UNL     1       4.179   6.166  -7.976  0.00  0.00    -0.262 NA
ATOM      8  C   UNL     1       4.447   5.460  -9.225  0.00  0.00    +0.191 C 
ATOM      9  C   UNL     1       1.042   5.698  -6.300  0.00  0.00    +0.014 A 
ATOM     10  C   UNL     1      -0.313   5.647  -6.488  0.00  0.00    +0.058 A 
ATOM     11 CL   UNL     1      -1.361   6.201  -5.197  0.00  0.00    -0.082 Cl
ATOM     12  C   UNL     1      -0.835   5.584  -7.775  0.00  0.00    +0.013 A 
ATOM     13  C   UNL     1      -0.011   5.065  -8.767  0.00  0.00    +0.019 A 
ATOM     14  C   UNL     1       3.294   5.547 -10.152  0.00  0.00    +0.172 A 
ATOM     15  N   UNL     1       3.402   6.159 -11.355  0.00  0.00    -0.131 NA
ATOM     16  N   UNL     1       2.280   5.841 -11.983  0.00  0.00    -0.133 NA
ENDROOT
BRANCH   6  17
ATOM     17  C   UNL     1       3.556   6.065  -5.693  0.00  0.00    +0.017 A 
ATOM     18  C   UNL     1       3.950   7.290  -5.181  0.00  0.00    +0.001 A 
ATOM     19  C   UNL     1       4.538   7.332  -3.924  0.00  0.00    +0.000 A 
ATOM     20  C   UNL     1       4.891   6.155  -3.274  0.00  0.00    +0.000 A 
ATOM     21  C   UNL     1       4.887   4.964  -3.989  0.00  0.00    +0.000 A 
ATOM     22  C   UNL     1       3.983   4.912  -5.044  0.00  0.00    +0.001 A 
ENDBRANCH   6  17
TORSDOF 1
ENDMDL
MODEL 8
REMARK VINA RESULT:      -8.7      2.799      6.541
REMARK  Name = 
REMARK  1 active torsions:
REMARK  status: ('A' for Active; 'I' for Inactive)
REMARK    1  A    between atoms: C_14  and  C_15
REMARK                            x       y       z     vdW  Elec       q    Type
REMARK                         _______ _______ _______ _____ _____    ______ ____
ROOT
ATOM      1  C   UNL     1       5.071   5.424 -10.689  0.00  0.00    +0.074 C 
ATOM      2  C   UNL     1       3.746   6.011 -11.064  0.00  0.00    +0.147 A 
ATOM      3  N   UNL     1       2.784   6.311 -10.158  0.00  0.00    -0.279 N 
ATOM      4  C   UNL     1       2.942   6.270  -8.735  0.00  0.00    +0.068 A 
ATOM      5  C   UNL     1       1.987   6.055  -7.747  0.00  0.00    +0.034 A 
ATOM      6  C   UNL     1       0.555   5.870  -7.974  0.00  0.00    +0.078 C 
ATOM      7  N   UNL     1      -0.067   5.824  -9.115  0.00  0.00    -0.262 NA
ATOM      8  C   UNL     1       0.247   6.553 -10.340  0.00  0.00    +0.191 C 
ATOM      9  C   UNL     1       2.337   5.684  -6.456  0.00  0.00    +0.014 A 
ATOM     10  C   UNL     1       3.659   5.465  -6.173  0.00  0.00    +0.058 A 
ATOM     11 CL   UNL     1       4.078   4.732  -4.637  0.00  0.00    -0.082 Cl
ATOM     12  C   UNL     1       4.591   5.409  -7.203  0.00  0.00    +0.013 A 
ATOM     13  C   UNL     1       4.269   6.068  -8.384  0.00  0.00    +0.019 A 
ATOM     14  C   UNL     1       1.608   6.229 -10.826  0.00  0.00    +0.172 A 
ATOM     15  N   UNL     1       1.804   5.636 -12.028  0.00  0.00    -0.131 NA
ATOM     16  N   UNL     1       3.112   5.720 -12.222  0.00  0.00    -0.133 NA
ENDROOT
BRANCH   6  17
ATOM     17  C   UNL     1      -0.254   5.828  -6.753  0.00  0.00    +0.017 A 
ATOM     18  C   UNL     1      -1.497   5.218  -6.771  0.00  0.00    +0.001 A 
ATOM     19  C   UNL     1      -2.368   5.446  -5.714  0.00  0.00    +0.000 A 
ATOM     20  C   UNL     1      -2.074   6.408  -4.755  0.00  0.00    +0.000 A 
ATOM     21  C   UNL     1      -1.042   7.306  -4.998  0.00  0.00    +0.000 A 
ATOM     22  C   UNL     1      -0.024   6.828  -5.815  0.00  0.00    +0.001 A 
ENDBRANCH   6  17
TORSDOF 1
ENDMDL
MODEL 9
REMARK VINA RESULT:      -8.7      5.027      7.201
REMARK  Name = 
REMARK  1 active torsions:
REMARK  status: ('A' for Active; 'I' for Inactive)
REMARK    1  A    between atoms: C_14  and  C_15
REMARK                            x       y       z     vdW  Elec       q    Type
REMARK                         _______ _______ _______ _____ _____    ______ ____
ROOT
ATOM      1  C   UNL     1      -2.556   5.962  -6.408  0.00  0.00    +0.074 C 
ATOM      2  C   UNL     1      -1.232   5.299  -6.620  0.00  0.00    +0.147 A 
ATOM      3  N   UNL     1      -0.313   5.145  -5.636  0.00  0.00    -0.279 N 
ATOM      4  C   UNL     1      -0.524   5.435  -4.250  0.00  0.00    +0.068 A 
ATOM      5  C   UNL     1       0.396   5.803  -3.275  0.00  0.00    +0.034 A 
ATOM      6  C   UNL     1       1.839   5.924  -3.470  0.00  0.00    +0.078 C 
ATOM      7  N   UNL     1       2.506   5.762  -4.574  0.00  0.00    -0.262 NA
ATOM      8  C   UNL     1       2.224   4.836  -5.667  0.00  0.00    +0.191 C 
ATOM      9  C   UNL     1       0.004   6.397  -2.083  0.00  0.00    +0.014 A 
ATOM     10  C   UNL     1      -1.322   6.682  -1.898  0.00  0.00    +0.058 A 
ATOM     11 CL   UNL     1      -1.784   7.677  -0.531  0.00  0.00    -0.082 Cl
ATOM     12  C   UNL     1      -2.211   6.574  -2.960  0.00  0.00    +0.013 A 
ATOM     13  C   UNL     1      -1.860   5.715  -3.995  0.00  0.00    +0.019 A 
ATOM     14  C   UNL     1       0.890   5.092  -6.259  0.00  0.00    +0.172 A 
ATOM     15  N   UNL     1       0.755   5.471  -7.552  0.00  0.00    -0.131 NA
ATOM     16  N   UNL     1      -0.546   5.375  -7.784  0.00  0.00    -0.133 NA
ENDROOT
BRANCH   6  17
ATOM     17  C   UNL     1       2.601   6.164  -2.241  0.00  0.00    +0.017 A 
ATOM     18  C   UNL     1       3.266   7.367  -2.067  0.00  0.00    +0.001 A 
ATOM     19  C   UNL     1       4.215   7.464  -1.058  0.00  0.00    +0.000 A 
ATOM     20  C   UNL     1       4.621   6.332  -0.362  0.00  0.00    +0.000 A 
ATOM     21  C   UNL     1       4.266   5.080  -0.848  0.00  0.00    +0.000 A 
ATOM     22  C   UNL     1       3.079   5.044  -1.572  0.00  0.00    +0.001 A 
ENDBRANCH   6  17
TORSDOF 1
ENDMDL
