MODEL 1
REMARK VINA RESULT:      -7.1      0.000      0.000
REMARK  Name = 
REMARK  10 active torsions:
REMARK  status: ('A' for Active; 'I' for Inactive)
REMARK    1  A    between atoms: C_2  and  C_3
REMARK    2  A    between atoms: C_3  and  C_4
REMARK    3  A    between atoms: N_6  and  C_7
REMARK    4  A    between atoms: C_10  and  O_11
REMARK    5  A    between atoms: O_11  and  C_12
REMARK    6  A    between atoms: C_12  and  C_13
REMARK    7  A    between atoms: C_13  and  C_15
REMARK    8  A    between atoms: C_15  and  N_16
REMARK    9  A    between atoms: N_16  and  C_17
REMARK   10  A    between atoms: C_20  and  C_21
REMARK                            x       y       z     vdW  Elec       q    Type
REMARK                         _______ _______ _______ _____ _____    ______ ____
ROOT
ATOM      1  C   UNL     1       4.766   5.093  -9.514  0.00  0.00    +0.074 A 
ATOM      2  C   UNL     1       3.380   5.011  -9.546  0.00  0.00    +0.022 A 
ATOM      3  C   UNL     1       2.582   5.488  -8.520  0.00  0.00    +0.070 A 
ATOM      4  C   UNL     1       3.119   5.376  -7.242  0.00  0.00    +0.141 A 
ATOM      5  C   UNL     1       4.504   5.414  -7.137  0.00  0.00    +0.038 A 
ATOM      6  C   UNL     1       5.323   5.271  -8.253  0.00  0.00    +0.020 A 
ENDROOT
BRANCH   3   7
ATOM      7  C   UNL     1       1.327   6.212  -8.763  0.00  0.00    +0.176 C 
ATOM      8  O   UNL     1       1.463   7.349  -9.306  0.00  0.00    -0.291 OA
ATOM      9  C   UNL     1       0.094   5.452  -9.088  0.00  0.00    +0.077 C 
ENDBRANCH   3   7
BRANCH   1  11
ATOM     10  C   UNL     1       5.904   6.807 -10.922  0.00  0.00    +0.246 C 
ATOM     11  N   UNL     1       5.534   5.454 -10.671  0.00  0.00    -0.179 NA
ATOM     12  O   UNL     1       5.013   7.669 -10.663  0.00  0.00    -0.273 OA
BRANCH  10  13
ATOM     13  C   UNL     1       7.271   7.230 -11.316  0.00  0.00    +0.087 C 
BRANCH  13  15
ATOM     14  C   UNL     1       8.549   5.910 -12.374  0.00  0.00    +0.001 C 
ATOM     15  C   UNL     1       8.002   6.164 -12.102  0.00  0.00    +0.010 C 
ENDBRANCH  13  15
ENDBRANCH  10  13
ENDBRANCH   1  11
BRANCH   4  16
ATOM     16  O   UNL     1       2.306   5.899  -6.229  0.00  0.00    -0.473 OA
BRANCH  16  17
ATOM     17  C   UNL     1       2.517   5.602  -4.848  0.00  0.00    +0.240 C 
BRANCH  17  18
ATOM     18  C   UNL     1       1.205   6.483  -4.271  0.00  0.00    +0.213 C 
ATOM     19  O   UNL     1       1.117   5.587  -3.013  0.00  0.00    -0.218 OA
BRANCH  18  20
ATOM     20  C   UNL     1       0.122   5.500  -5.100  0.00  0.00    +0.125 C 
BRANCH  20  21
ATOM     21  N   UNL     1      -1.033   5.549  -4.237  0.00  0.00    -0.217 NA
BRANCH  21  22
ATOM     22  C   UNL     1      -2.202   6.120  -4.878  0.00  0.00    +0.073 C 
ATOM     23  C   UNL     1      -2.241   7.625  -4.780  0.00  0.00    +0.019 C 
ATOM     24  C   UNL     1      -2.383   5.627  -6.291  0.00  0.00    +0.019 C 
ENDBRANCH  21  22
ENDBRANCH  20  21
ENDBRANCH  18  20
ENDBRANCH  17  18
ENDBRANCH  16  17
ENDBRANCH   4  16
TORSDOF 10
ENDMDL
MODEL 2
REMARK VINA RESULT:      -6.9      2.688      8.053
REMARK  Name = 
REMARK  10 active torsions:
REMARK  status: ('A' for Active; 'I' for Inactive)
REMARK    1  A    between atoms: C_2  and  C_3
REMARK    2  A    between atoms: C_3  and  C_4
REMARK    3  A    between atoms: N_6  and  C_7
REMARK    4  A    between atoms: C_10  and  O_11
REMARK    5  A    between atoms: O_11  and  C_12
REMARK    6  A    between atoms: C_12  and  C_13
REMARK    7  A    between atoms: C_13  and  C_15
REMARK    8  A    between atoms: C_15  and  N_16
REMARK    9  A    between atoms: N_16  and  C_17
REMARK   10  A    between atoms: C_20  and  C_21
REMARK                            x       y       z     vdW  Elec       q    Type
REMARK                         _______ _______ _______ _____ _____    ______ ____
ROOT
ATOM      1  C   UNL     1      -1.254   5.642  -5.019  0.00  0.00    +0.074 A 
ATOM      2  C   UNL     1       0.028   5.304  -4.604  0.00  0.00    +0.022 A 
ATOM      3  C   UNL     1       1.121   5.349  -5.453  0.00  0.00    +0.070 A 
ATOM      4  C   UNL     1       0.862   5.031  -6.782  0.00  0.00    +0.141 A 
ATOM      5  C   UNL     1      -0.415   5.310  -7.256  0.00  0.00    +0.038 A 
ATOM      6  C   UNL     1      -1.464   5.608  -6.393  0.00  0.00    +0.020 A 
ENDROOT
BRANCH   3   7
ATOM      7  C   UNL     1       2.434   5.852  -5.028  0.00  0.00    +0.176 C 
ATOM      8  O   UNL     1       2.418   7.006  -4.503  0.00  0.00    -0.291 OA
ATOM      9  C   UNL     1       3.459   4.900  -4.534  0.00  0.00    +0.077 C 
ENDBRANCH   3   7
BRANCH   1  11
ATOM     10  C   UNL     1      -2.639   5.914  -2.963  0.00  0.00    +0.246 C 
ATOM     11  N   UNL     1      -2.138   6.418  -4.199  0.00  0.00    -0.179 NA
ATOM     12  O   UNL     1      -2.960   4.688  -2.969  0.00  0.00    -0.273 OA
BRANCH  10  13
ATOM     13  C   UNL     1      -2.658   6.693  -1.700  0.00  0.00    +0.087 C 
BRANCH  13  15
ATOM     14  C   UNL     1      -0.853   6.907  -0.609  0.00  0.00    +0.001 C 
ATOM     15  C   UNL     1      -1.341   6.629  -0.962  0.00  0.00    +0.010 C 
ENDBRANCH  13  15
ENDBRANCH  10  13
ENDBRANCH   1  11
BRANCH   4  16
ATOM     16  O   UNL     1       1.977   5.120  -7.623  0.00  0.00    -0.473 OA
BRANCH  16  17
ATOM     17  C   UNL     1       2.539   3.978  -8.273  0.00  0.00    +0.240 C 
BRANCH  17  18
ATOM     18  C   UNL     1       3.613   4.834  -9.245  0.00  0.00    +0.213 C 
ATOM     19  O   UNL     1       4.065   5.694  -8.043  0.00  0.00    -0.218 OA
BRANCH  18  20
ATOM     20  C   UNL     1       2.423   5.951  -9.652  0.00  0.00    +0.125 C 
BRANCH  20  21
ATOM     21  N   UNL     1       2.163   5.607 -11.030  0.00  0.00    -0.217 NA
BRANCH  21  22
ATOM     22  C   UNL     1       0.754   5.648 -11.374  0.00  0.00    +0.073 C 
ATOM     23  C   UNL     1       0.003   4.433 -10.889  0.00  0.00    +0.019 C 
ATOM     24  C   UNL     1       0.097   6.939 -10.957  0.00  0.00    +0.019 C 
ENDBRANCH  21  22
ENDBRANCH  20  21
ENDBRANCH  18  20
ENDBRANCH  17  18
ENDBRANCH  16  17
ENDBRANCH   4  16
TORSDOF 10
ENDMDL
MODEL 3
REMARK VINA RESULT:      -6.8      1.854      2.960
REMARK  Name = 
REMARK  10 active torsions:
REMARK  status: ('A' for Active; 'I' for Inactive)
REMARK    1  A    between atoms: C_2  and  C_3
REMARK    2  A    between atoms: C_3  and  C_4
REMARK    3  A    between atoms: N_6  and  C_7
REMARK    4  A    between atoms: C_10  and  O_11
REMARK    5  A    between atoms: O_11  and  C_12
REMARK    6  A    between atoms: C_12  and  C_13
REMARK    7  A    between atoms: C_13  and  C_15
REMARK    8  A    between atoms: C_15  and  N_16
REMARK    9  A    between atoms: N_16  and  C_17
REMARK   10  A    between atoms: C_20  and  C_21
REMARK                            x       y       z     vdW  Elec       q    Type
REMARK                         _______ _______ _______ _____ _____    ______ ____
ROOT
ATOM      1  C   UNL     1       4.677   5.053  -9.496  0.00  0.00    +0.074 A 
ATOM      2  C   UNL     1       3.329   4.828  -9.740  0.00  0.00    +0.022 A 
ATOM      3  C   UNL     1       2.332   5.300  -8.903  0.00  0.00    +0.070 A 
ATOM      4  C   UNL     1       2.655   5.343  -7.550  0.00  0.00    +0.141 A 
ATOM      5  C   UNL     1       3.994   5.531  -7.232  0.00  0.00    +0.038 A 
ATOM      6  C   UNL     1       4.998   5.386  -8.184  0.00  0.00    +0.020 A 
ENDROOT
BRANCH   3   7
ATOM      7  C   UNL     1       1.076   5.870  -9.409  0.00  0.00    +0.176 C 
ATOM      8  O   UNL     1       1.134   7.099  -9.718  0.00  0.00    -0.291 OA
ATOM      9  C   UNL     1       0.149   5.020 -10.196  0.00  0.00    +0.077 C 
ENDBRANCH   3   7
BRANCH   1  11
ATOM     10  C   UNL     1       5.976   6.752 -10.778  0.00  0.00    +0.246 C 
ATOM     11  N   UNL     1       5.593   5.399 -10.544  0.00  0.00    -0.179 NA
ATOM     12  O   UNL     1       5.046   7.605 -10.666  0.00  0.00    -0.273 OA
BRANCH  10  13
ATOM     13  C   UNL     1       7.379   7.188 -10.990  0.00  0.00    +0.087 C 
BRANCH  13  15
ATOM     14  C   UNL     1       8.602   5.931 -12.181  0.00  0.00    +0.001 C 
ATOM     15  C   UNL     1       8.212   6.135 -11.686  0.00  0.00    +0.010 C 
ENDBRANCH  13  15
ENDBRANCH  10  13
ENDBRANCH   1  11
BRANCH   4  16
ATOM     16  O   UNL     1       1.641   5.858  -6.733  0.00  0.00    -0.473 OA
BRANCH  16  17
ATOM     17  C   UNL     1       1.918   6.654  -5.580  0.00  0.00    +0.240 C 
BRANCH  17  18
ATOM     18  C   UNL     1       1.576   5.458  -4.448  0.00  0.00    +0.213 C 
ATOM     19  O   UNL     1       0.779   6.461  -3.582  0.00  0.00    -0.218 OA
BRANCH  18  20
ATOM     20  C   UNL     1       2.993   5.789  -3.604  0.00  0.00    +0.125 C 
BRANCH  20  21
ATOM     21  N   UNL     1       2.949   7.229  -3.518  0.00  0.00    -0.217 NA
BRANCH  21  22
ATOM     22  C   UNL     1       4.210   7.816  -3.106  0.00  0.00    +0.073 C 
ATOM     23  C   UNL     1       4.659   7.333  -1.749  0.00  0.00    +0.019 C 
ATOM     24  C   UNL     1       5.282   7.673  -4.156  0.00  0.00    +0.019 C 
ENDBRANCH  21  22
ENDBRANCH  20  21
ENDBRANCH  18  20
ENDBRANCH  17  18
ENDBRANCH  16  17
ENDBRANCH   4  16
TORSDOF 10
ENDMDL
MODEL 4
REMARK VINA RESULT:      -6.8      2.175      8.567
REMARK  Name = 
REMARK  10 active torsions:
REMARK  status: ('A' for Active; 'I' for Inactive)
REMARK    1  A    between atoms: C_2  and  C_3
REMARK    2  A    between atoms: C_3  and  C_4
REMARK    3  A    between atoms: N_6  and  C_7
REMARK    4  A    between atoms: C_10  and  O_11
REMARK    5  A    between atoms: O_11  and  C_12
REMARK    6  A    between atoms: C_12  and  C_13
REMARK    7  A    between atoms: C_13  and  C_15
REMARK    8  A    between atoms: C_15  and  N_16
REMARK    9  A    between atoms: N_16  and  C_17
REMARK   10  A    between atoms: C_20  and  C_21
REMARK                            x       y       z     vdW  Elec       q    Type
REMARK                         _______ _______ _______ _____ _____    ______ ____
ROOT
ATOM      1  C   UNL     1      -0.978   5.624  -4.736  0.00  0.00    +0.074 A 
ATOM      2  C   UNL     1       0.307   5.277  -4.340  0.00  0.00    +0.022 A 
ATOM      3  C   UNL     1       1.385   5.300  -5.208  0.00  0.00    +0.070 A 
ATOM      4  C   UNL     1       1.100   4.969  -6.529  0.00  0.00    +0.141 A 
ATOM      5  C   UNL     1      -0.181   5.257  -6.984  0.00  0.00    +0.038 A 
ATOM      6  C   UNL     1      -1.212   5.576  -6.106  0.00  0.00    +0.020 A 
ENDROOT
BRANCH   3   7
ATOM      7  C   UNL     1       2.711   5.795  -4.812  0.00  0.00    +0.176 C 
ATOM      8  O   UNL     1       2.735   6.999  -4.416  0.00  0.00    -0.291 OA
ATOM      9  C   UNL     1       3.687   4.862  -4.195  0.00  0.00    +0.077 C 
ENDBRANCH   3   7
BRANCH   1  11
ATOM     10  C   UNL     1      -2.426   5.890  -2.724  0.00  0.00    +0.246 C 
ATOM     11  N   UNL     1      -1.840   6.419  -3.911  0.00  0.00    -0.179 NA
ATOM     12  O   UNL     1      -2.830   4.693  -2.807  0.00  0.00    -0.273 OA
BRANCH  10  13
ATOM     13  C   UNL     1      -2.443   6.605  -1.423  0.00  0.00    +0.087 C 
BRANCH  13  15
ATOM     14  C   UNL     1      -0.546   6.192  -0.573  0.00  0.00    +0.001 C 
ATOM     15  C   UNL     1      -1.174   6.392  -0.629  0.00  0.00    +0.010 C 
ENDBRANCH  13  15
ENDBRANCH  10  13
ENDBRANCH   1  11
BRANCH   4  16
ATOM     16  O   UNL     1       2.202   5.036  -7.389  0.00  0.00    -0.473 OA
BRANCH  16  17
ATOM     17  C   UNL     1       2.290   5.992  -8.447  0.00  0.00    +0.240 C 
BRANCH  17  18
ATOM     18  C   UNL     1       2.419   4.871  -9.694  0.00  0.00    +0.213 C 
ATOM     19  O   UNL     1       3.537   4.114  -8.941  0.00  0.00    -0.218 OA
BRANCH  18  20
ATOM     20  C   UNL     1       3.547   5.827 -10.497  0.00  0.00    +0.125 C 
BRANCH  20  21
ATOM     21  N   UNL     1       4.770   5.455  -9.827  0.00  0.00    -0.217 NA
BRANCH  21  22
ATOM     22  C   UNL     1       5.957   5.992 -10.464  0.00  0.00    +0.073 C 
ATOM     23  C   UNL     1       5.750   7.389 -10.994  0.00  0.00    +0.019 C 
ATOM     24  C   UNL     1       7.180   5.880  -9.591  0.00  0.00    +0.019 C 
ENDBRANCH  21  22
ENDBRANCH  20  21
ENDBRANCH  18  20
ENDBRANCH  17  18
ENDBRANCH  16  17
ENDBRANCH   4  16
TORSDOF 10
ENDMDL
MODEL 5
REMARK VINA RESULT:      -6.7      1.683      3.058
REMARK  Name = 
REMARK  10 active torsions:
REMARK  status: ('A' for Active; 'I' for Inactive)
REMARK    1  A    between atoms: C_2  and  C_3
REMARK    2  A    between atoms: C_3  and  C_4
REMARK    3  A    between atoms: N_6  and  C_7
REMARK    4  A    between atoms: C_10  and  O_11
REMARK    5  A    between atoms: O_11  and  C_12
REMARK    6  A    between atoms: C_12  and  C_13
REMARK    7  A    between atoms: C_13  and  C_15
REMARK    8  A    between atoms: C_15  and  N_16
REMARK    9  A    between atoms: N_16  and  C_17
REMARK   10  A    between atoms: C_20  and  C_21
REMARK                            x       y       z     vdW  Elec       q    Type
REMARK                         _______ _______ _______ _____ _____    ______ ____
ROOT
ATOM      1  C   UNL     1       3.953   5.336  -7.728  0.00  0.00    +0.074 A 
ATOM      2  C   UNL     1       4.270   6.179  -6.672  0.00  0.00    +0.022 A 
ATOM      3  C   UNL     1       3.720   6.031  -5.409  0.00  0.00    +0.070 A 
ATOM      4  C   UNL     1       2.410   5.564  -5.377  0.00  0.00    +0.141 A 
ATOM      5  C   UNL     1       2.012   4.740  -6.423  0.00  0.00    +0.038 A 
ATOM      6  C   UNL     1       2.765   4.626  -7.587  0.00  0.00    +0.020 A 
ENDROOT
BRANCH   3   7
ATOM      7  C   UNL     1       4.505   6.196  -4.179  0.00  0.00    +0.176 C 
ATOM      8  O   UNL     1       5.132   5.160  -3.803  0.00  0.00    -0.291 OA
ATOM      9  C   UNL     1       5.128   7.509  -3.877  0.00  0.00    +0.077 C 
ENDBRANCH   3   7
BRANCH   1  11
ATOM     10  C   UNL     1       5.650   5.738  -9.509  0.00  0.00    +0.246 C 
ATOM     11  N   UNL     1       4.948   4.852  -8.641  0.00  0.00    -0.179 NA
ATOM     12  O   UNL     1       4.951   6.661 -10.023  0.00  0.00    -0.273 OA
BRANCH  10  13
ATOM     13  C   UNL     1       7.121   5.707  -9.705  0.00  0.00    +0.087 C 
BRANCH  13  15
ATOM     14  C   UNL     1       7.920   6.498 -11.502  0.00  0.00    +0.001 C 
ATOM     15  C   UNL     1       7.554   6.442 -10.954  0.00  0.00    +0.010 C 
ENDBRANCH  13  15
ENDBRANCH  10  13
ENDBRANCH   1  11
BRANCH   4  16
ATOM     16  O   UNL     1       1.894   5.390  -4.087  0.00  0.00    -0.473 OA
BRANCH  16  17
ATOM     17  C   UNL     1       0.533   5.026  -3.851  0.00  0.00    +0.240 C 
BRANCH  17  18
ATOM     18  C   UNL     1       0.313   6.011  -2.505  0.00  0.00    +0.213 C 
ATOM     19  O   UNL     1      -0.474   4.897  -1.778  0.00  0.00    -0.218 OA
BRANCH  18  20
ATOM     20  C   UNL     1      -1.102   6.651  -3.149  0.00  0.00    +0.125 C 
BRANCH  20  21
ATOM     21  N   UNL     1      -1.511   5.600  -4.051  0.00  0.00    -0.217 NA
BRANCH  21  22
ATOM     22  C   UNL     1      -2.420   6.055  -5.085  0.00  0.00    +0.073 C 
ATOM     23  C   UNL     1      -2.607   7.552  -5.078  0.00  0.00    +0.019 C 
ATOM     24  C   UNL     1      -2.054   5.525  -6.448  0.00  0.00    +0.019 C 
ENDBRANCH  21  22
ENDBRANCH  20  21
ENDBRANCH  18  20
ENDBRANCH  17  18
ENDBRANCH  16  17
ENDBRANCH   4  16
TORSDOF 10
ENDMDL
MODEL 6
REMARK VINA RESULT:      -6.6      2.426      3.541
REMARK  Name = 
REMARK  10 active torsions:
REMARK  status: ('A' for Active; 'I' for Inactive)
REMARK    1  A    between atoms: C_2  and  C_3
REMARK    2  A    between atoms: C_3  and  C_4
REMARK    3  A    between atoms: N_6  and  C_7
REMARK    4  A    between atoms: C_10  and  O_11
REMARK    5  A    between atoms: O_11  and  C_12
REMARK    6  A    between atoms: C_12  and  C_13
REMARK    7  A    between atoms: C_13  and  C_15
REMARK    8  A    between atoms: C_15  and  N_16
REMARK    9  A    between atoms: N_16  and  C_17
REMARK   10  A    between atoms: C_20  and  C_21
REMARK                            x       y       z     vdW  Elec       q    Type
REMARK                         _______ _______ _______ _____ _____    ______ ____
ROOT
ATOM      1  C   UNL     1       4.663   5.258 -10.238  0.00  0.00    +0.074 A 
ATOM      2  C   UNL     1       3.360   5.237  -9.760  0.00  0.00    +0.022 A 
ATOM      3  C   UNL     1       3.026   5.676  -8.489  0.00  0.00    +0.070 A 
ATOM      4  C   UNL     1       3.985   5.454  -7.507  0.00  0.00    +0.141 A 
ATOM      5  C   UNL     1       5.312   5.427  -7.920  0.00  0.00    +0.038 A 
ATOM      6  C   UNL     1       5.654   5.326  -9.265  0.00  0.00    +0.020 A 
ENDROOT
BRANCH   3   7
ATOM      7  C   UNL     1       1.819   6.466  -8.216  0.00  0.00    +0.176 C 
ATOM      8  O   UNL     1       1.946   7.715  -8.396  0.00  0.00    -0.291 OA
ATOM      9  C   UNL     1       0.482   5.879  -8.482  0.00  0.00    +0.077 C 
ENDBRANCH   3   7
BRANCH   1  11
ATOM     10  C   UNL     1       5.833   6.774 -11.835  0.00  0.00    +0.246 C 
ATOM     11  N   UNL     1       4.976   5.665 -11.578  0.00  0.00    -0.179 NA
ATOM     12  O   UNL     1       5.677   7.769 -11.067  0.00  0.00    -0.273 OA
BRANCH  10  13
ATOM     13  C   UNL     1       6.942   6.748 -12.822  0.00  0.00    +0.087 C 
BRANCH  13  15
ATOM     14  C   UNL     1       8.588   5.753 -11.933  0.00  0.00    +0.001 C 
ATOM     15  C   UNL     1       8.106   5.901 -12.362  0.00  0.00    +0.010 C 
ENDBRANCH  13  15
ENDBRANCH  10  13
ENDBRANCH   1  11
BRANCH   4  16
ATOM     16  O   UNL     1       3.635   5.939  -6.241  0.00  0.00    -0.473 OA
BRANCH  16  17
ATOM     17  C   UNL     1       4.507   5.838  -5.115  0.00  0.00    +0.240 C 
BRANCH  17  18
ATOM     18  C   UNL     1       4.450   7.466  -4.694  0.00  0.00    +0.213 C 
ATOM     19  O   UNL     1       5.753   7.332  -3.873  0.00  0.00    -0.218 OA
BRANCH  18  20
ATOM     20  C   UNL     1       3.511   7.129  -3.340  0.00  0.00    +0.125 C 
BRANCH  20  21
ATOM     21  N   UNL     1       4.377   6.243  -2.601  0.00  0.00    -0.217 NA
BRANCH  21  22
ATOM     22  C   UNL     1       3.850   5.884  -1.297  0.00  0.00    +0.073 C 
ATOM     23  C   UNL     1       3.748   4.392  -1.103  0.00  0.00    +0.019 C 
ATOM     24  C   UNL     1       4.587   6.565  -0.172  0.00  0.00    +0.019 C 
ENDBRANCH  21  22
ENDBRANCH  20  21
ENDBRANCH  18  20
ENDBRANCH  17  18
ENDBRANCH  16  17
ENDBRANCH   4  16
TORSDOF 10
ENDMDL
MODEL 7
REMARK VINA RESULT:      -6.6      1.663      2.816
REMARK  Name = 
REMARK  10 active torsions:
REMARK  status: ('A' for Active; 'I' for Inactive)
REMARK    1  A    between atoms: C_2  and  C_3
REMARK    2  A    between atoms: C_3  and  C_4
REMARK    3  A    between atoms: N_6  and  C_7
REMARK    4  A    between atoms: C_10  and  O_11
REMARK    5  A    between atoms: O_11  and  C_12
REMARK    6  A    between atoms: C_12  and  C_13
REMARK    7  A    between atoms: C_13  and  C_15
REMARK    8  A    between atoms: C_15  and  N_16
REMARK    9  A    between atoms: N_16  and  C_17
REMARK   10  A    between atoms: C_20  and  C_21
REMARK                            x       y       z     vdW  Elec       q    Type
REMARK                         _______ _______ _______ _____ _____    ______ ____
ROOT
ATOM      1  C   UNL     1       4.537   5.249  -8.671  0.00  0.00    +0.074 A 
ATOM      2  C   UNL     1       4.391   5.968  -7.492  0.00  0.00    +0.022 A 
ATOM      3  C   UNL     1       3.639   5.504  -6.426  0.00  0.00    +0.070 A 
ATOM      4  C   UNL     1       2.519   4.752  -6.763  0.00  0.00    +0.141 A 
ATOM      5  C   UNL     1       2.582   4.033  -7.951  0.00  0.00    +0.038 A 
ATOM      6  C   UNL     1       3.571   4.275  -8.898  0.00  0.00    +0.020 A 
ENDROOT
BRANCH   3   7
ATOM      7  C   UNL     1       4.071   5.651  -5.029  0.00  0.00    +0.176 C 
ATOM      8  O   UNL     1       4.795   4.706  -4.593  0.00  0.00    -0.291 OA
ATOM      9  C   UNL     1       4.325   7.005  -4.478  0.00  0.00    +0.077 C 
ENDBRANCH   3   7
BRANCH   1  11
ATOM     10  C   UNL     1       6.144   6.057 -10.398  0.00  0.00    +0.246 C 
ATOM     11  N   UNL     1       5.795   5.153  -9.352  0.00  0.00    -0.179 NA
ATOM     12  O   UNL     1       5.203   6.356 -11.191  0.00  0.00    -0.273 OA
BRANCH  10  13
ATOM     13  C   UNL     1       7.460   6.737 -10.496  0.00  0.00    +0.087 C 
BRANCH  13  15
ATOM     14  C   UNL     1       8.564   5.797 -12.043  0.00  0.00    +0.001 C 
ATOM     15  C   UNL     1       8.404   6.034 -11.446  0.00  0.00    +0.010 C 
ENDBRANCH  13  15
ENDBRANCH  10  13
ENDBRANCH   1  11
BRANCH   4  16
ATOM     16  O   UNL     1       1.800   4.267  -5.665  0.00  0.00    -0.473 OA
BRANCH  16  17
ATOM     17  C   UNL     1       0.901   5.087  -4.916  0.00  0.00    +0.240 C 
BRANCH  17  18
ATOM     18  C   UNL     1       0.066   5.698  -6.242  0.00  0.00    +0.213 C 
ATOM     19  O   UNL     1       0.282   7.148  -5.750  0.00  0.00    -0.218 OA
BRANCH  18  20
ATOM     20  C   UNL     1      -1.400   5.593  -5.424  0.00  0.00    +0.125 C 
BRANCH  20  21
ATOM     21  N   UNL     1      -1.100   6.297  -4.201  0.00  0.00    -0.217 NA
BRANCH  21  22
ATOM     22  C   UNL     1      -2.284   6.673  -3.452  0.00  0.00    +0.073 C 
ATOM     23  C   UNL     1      -3.226   5.515  -3.235  0.00  0.00    +0.019 C 
ATOM     24  C   UNL     1      -1.950   7.394  -2.171  0.00  0.00    +0.019 C 
ENDBRANCH  21  22
ENDBRANCH  20  21
ENDBRANCH  18  20
ENDBRANCH  17  18
ENDBRANCH  16  17
ENDBRANCH   4  16
TORSDOF 10
ENDMDL
MODEL 8
REMARK VINA RESULT:      -6.6      1.957      2.406
REMARK  Name = 
REMARK  10 active torsions:
REMARK  status: ('A' for Active; 'I' for Inactive)
REMARK    1  A    between atoms: C_2  and  C_3
REMARK    2  A    between atoms: C_3  and  C_4
REMARK    3  A    between atoms: N_6  and  C_7
REMARK    4  A    between atoms: C_10  and  O_11
REMARK    5  A    between atoms: O_11  and  C_12
REMARK    6  A    between atoms: C_12  and  C_13
REMARK    7  A    between atoms: C_13  and  C_15
REMARK    8  A    between atoms: C_15  and  N_16
REMARK    9  A    between atoms: N_16  and  C_17
REMARK   10  A    between atoms: C_20  and  C_21
REMARK                            x       y       z     vdW  Elec       q    Type
REMARK                         _______ _______ _______ _____ _____    ______ ____
ROOT
ATOM      1  C   UNL     1       5.927   5.601 -10.602  0.00  0.00    +0.074 A 
ATOM      2  C   UNL     1       4.592   5.274 -10.801  0.00  0.00    +0.022 A 
ATOM      3  C   UNL     1       3.668   5.258  -9.770  0.00  0.00    +0.070 A 
ATOM      4  C   UNL     1       4.160   4.865  -8.530  0.00  0.00    +0.141 A 
ATOM      5  C   UNL     1       5.500   5.131  -8.275  0.00  0.00    +0.038 A 
ATOM      6  C   UNL     1       6.378   5.490  -9.292  0.00  0.00    +0.020 A 
ENDROOT
BRANCH   3   7
ATOM      7  C   UNL     1       2.299   5.770  -9.924  0.00  0.00    +0.176 C 
ATOM      8  O   UNL     1       2.146   6.987  -9.599  0.00  0.00    -0.291 OA
ATOM      9  C   UNL     1       1.440   5.250 -11.016  0.00  0.00    +0.077 C 
ENDBRANCH   3   7
BRANCH   1  11
ATOM     10  C   UNL     1       7.216   5.903 -12.715  0.00  0.00    +0.246 C 
ATOM     11  N   UNL     1       6.650   6.434 -11.519  0.00  0.00    -0.179 NA
ATOM     12  O   UNL     1       7.747   4.759 -12.601  0.00  0.00    -0.273 OA
BRANCH  10  13
ATOM     13  C   UNL     1       7.082   6.544 -14.047  0.00  0.00    +0.087 C 
BRANCH  13  15
ATOM     14  C   UNL     1       5.067   6.420 -14.693  0.00  0.00    +0.001 C 
ATOM     15  C   UNL     1       5.720   6.317 -14.663  0.00  0.00    +0.010 C 
ENDBRANCH  13  15
ENDBRANCH  10  13
ENDBRANCH   1  11
BRANCH   4  16
ATOM     16  O   UNL     1       3.212   4.893  -7.500  0.00  0.00    -0.473 OA
BRANCH  16  17
ATOM     17  C   UNL     1       3.466   5.521  -6.242  0.00  0.00    +0.240 C 
BRANCH  17  18
ATOM     18  C   UNL     1       2.150   4.851  -5.436  0.00  0.00    +0.213 C 
ATOM     19  O   UNL     1       2.150   3.630  -6.385  0.00  0.00    -0.218 OA
BRANCH  18  20
ATOM     20  C   UNL     1       1.068   5.674  -6.426  0.00  0.00    +0.125 C 
BRANCH  20  21
ATOM     21  N   UNL     1      -0.170   4.992  -6.130  0.00  0.00    -0.217 NA
BRANCH  21  22
ATOM     22  C   UNL     1      -1.185   5.865  -5.572  0.00  0.00    +0.073 C 
ATOM     23  C   UNL     1      -2.481   5.816  -6.342  0.00  0.00    +0.019 C 
ATOM     24  C   UNL     1      -1.382   5.646  -4.094  0.00  0.00    +0.019 C 
ENDBRANCH  21  22
ENDBRANCH  20  21
ENDBRANCH  18  20
ENDBRANCH  17  18
ENDBRANCH  16  17
ENDBRANCH   4  16
TORSDOF 10
ENDMDL
MODEL 9
REMARK VINA RESULT:      -6.5      1.923      8.038
REMARK  Name = 
REMARK  10 active torsions:
REMARK  status: ('A' for Active; 'I' for Inactive)
REMARK    1  A    between atoms: C_2  and  C_3
REMARK    2  A    between atoms: C_3  and  C_4
REMARK    3  A    between atoms: N_6  and  C_7
REMARK    4  A    between atoms: C_10  and  O_11
REMARK    5  A    between atoms: O_11  and  C_12
REMARK    6  A    between atoms: C_12  and  C_13
REMARK    7  A    between atoms: C_13  and  C_15
REMARK    8  A    between atoms: C_15  and  N_16
REMARK    9  A    between atoms: N_16  and  C_17
REMARK   10  A    between atoms: C_20  and  C_21
REMARK                            x       y       z     vdW  Elec       q    Type
REMARK                         _______ _______ _______ _____ _____    ______ ____
ROOT
ATOM      1  C   UNL     1       2.512   5.947  -7.103  0.00  0.00    +0.074 A 
ATOM      2  C   UNL     1       1.691   6.441  -8.108  0.00  0.00    +0.022 A 
ATOM      3  C   UNL     1       2.040   6.390  -9.447  0.00  0.00    +0.070 A 
ATOM      4  C   UNL     1       3.398   6.524  -9.719  0.00  0.00    +0.141 A 
ATOM      5  C   UNL     1       4.280   6.081  -8.740  0.00  0.00    +0.038 A 
ATOM      6  C   UNL     1       3.851   5.799  -7.447  0.00  0.00    +0.020 A 
ENDROOT
BRANCH   3   7
ATOM      7  C   UNL     1       1.077   6.056 -10.505  0.00  0.00    +0.176 C 
ATOM      8  O   UNL     1       0.672   4.855 -10.498  0.00  0.00    -0.291 OA
ATOM      9  C   UNL     1       0.121   7.088 -10.978  0.00  0.00    +0.077 C 
ENDBRANCH   3   7
BRANCH   1  11
ATOM     10  C   UNL     1       1.348   5.848  -4.900  0.00  0.00    +0.246 C 
ATOM     11  N   UNL     1       1.992   5.200  -5.995  0.00  0.00    -0.179 NA
ATOM     12  O   UNL     1       1.879   6.935  -4.526  0.00  0.00    -0.273 OA
BRANCH  10  13
ATOM     13  C   UNL     1       0.061   5.394  -4.314  0.00  0.00    +0.087 C 
BRANCH  13  15
ATOM     14  C   UNL     1      -1.434   6.043  -5.669  0.00  0.00    +0.001 C 
ATOM     15  C   UNL     1      -1.135   5.877  -5.102  0.00  0.00    +0.010 C 
ENDBRANCH  13  15
ENDBRANCH  10  13
ENDBRANCH   1  11
BRANCH   4  16
ATOM     16  O   UNL     1       3.724   6.433 -11.077  0.00  0.00    -0.473 OA
BRANCH  16  17
ATOM     17  C   UNL     1       4.150   5.210 -11.681  0.00  0.00    +0.240 C 
BRANCH  17  18
ATOM     18  C   UNL     1       4.581   5.881 -13.162  0.00  0.00    +0.213 C 
ATOM     19  O   UNL     1       5.434   4.640 -13.512  0.00  0.00    -0.218 OA
BRANCH  18  20
ATOM     20  C   UNL     1       5.908   6.654 -12.477  0.00  0.00    +0.125 C 
BRANCH  20  21
ATOM     21  N   UNL     1       6.917   5.624 -12.559  0.00  0.00    -0.217 NA
BRANCH  21  22
ATOM     22  C   UNL     1       7.945   5.748 -11.544  0.00  0.00    +0.073 C 
ATOM     23  C   UNL     1       9.332   5.845 -12.130  0.00  0.00    +0.019 C 
ATOM     24  C   UNL     1       7.654   6.853 -10.561  0.00  0.00    +0.019 C 
ENDBRANCH  21  22
ENDBRANCH  20  21
ENDBRANCH  18  20
ENDBRANCH  17  18
ENDBRANCH  16  17
ENDBRANCH   4  16
TORSDOF 10
ENDMDL
