MODEL 1
REMARK VINA RESULT:      -8.3      0.000      0.000
REMARK  Name = 
REMARK  7 active torsions:
REMARK  status: ('A' for Active; 'I' for Inactive)
REMARK    1  A    between atoms: C_3  and  N_4
REMARK    2  A    between atoms: C_5  and  C_7
REMARK    3  A    between atoms: C_7  and  C_16
REMARK    4  A    between atoms: N_8  and  O_9
REMARK    5  A    between atoms: O_9  and  C_10
REMARK    6  A    between atoms: C_10  and  C_13
REMARK    7  A    between atoms: N_24  and  S_25
REMARK                            x       y       z     vdW  Elec       q    Type
REMARK                         _______ _______ _______ _____ _____    ______ ____
ROOT
ATOM      1  C   UNL     1       4.005   5.014  -9.840  0.00  0.00    +0.192 C 
ATOM      2  N   UNL     1       4.811   5.538 -10.717  0.00  0.00    -0.076 NA
ENDROOT
BRANCH   1   3
ATOM      3  C   UNL     1       2.575   5.211 -10.135  0.00  0.00    +0.115 A 
ATOM      4  N   UNL     1       2.060   6.357 -10.573  0.00  0.00    -0.220 NA
ATOM      5  C   UNL     1       0.923   6.208 -11.267  0.00  0.00    +0.201 A 
ATOM      6  N   UNL     1       0.269   7.228 -12.033  0.00  0.00    -0.100 NA
ATOM      7  S   UNL     1       0.255   4.810 -10.532  0.00  0.00    -0.048 S 
ATOM      8  C   UNL     1       1.603   4.407  -9.545  0.00  0.00    +0.059 A 
ENDBRANCH   1   3
BRANCH   1  10
ATOM      9  N   UNL     1       3.647   5.963  -7.517  0.00  0.00    -0.191 NA
ATOM     10  C   UNL     1       4.427   5.186  -8.440  0.00  0.00    +0.288 C 
ATOM     11  O   UNL     1       5.623   4.880  -8.238  0.00  0.00    -0.267 OA
BRANCH   9  17
ATOM     12  C   UNL     1       3.937   7.080  -3.968  0.00  0.00    +0.026 C 
ATOM     13  C   UNL     1       3.278   7.183  -5.491  0.00  0.00    +0.130 C 
ATOM     14  N   UNL     1       2.472   5.841  -5.316  0.00  0.00    -0.136 N 
ATOM     15  C   UNL     1       3.568   4.985  -5.397  0.00  0.00    +0.267 C 
ATOM     16  O   UNL     1       3.998   4.121  -4.569  0.00  0.00    -0.271 OA
ATOM     17  C   UNL     1       4.467   6.108  -6.152  0.00  0.00    +0.193 C 
BRANCH  14  18
ATOM     18  S   UNL     1       0.797   5.730  -5.070  0.00  0.00    +0.200 S 
ATOM     19  O   UNL     1       0.201   4.702  -6.272  0.00  0.00    -0.029 OA
ATOM     20  O   UNL     1       0.220   7.094  -5.197  0.00  0.00    -0.124 OA
ATOM     21  O   UNL     1       0.539   5.178  -3.699  0.00  0.00    -0.124 OA
ENDBRANCH  14  18
ENDBRANCH   9  17
ENDBRANCH   1  10
BRANCH   2  22
ATOM     22  O   UNL     1       6.155   5.396 -10.586  0.00  0.00    -0.374 OA
BRANCH  22  23
ATOM     23  C   UNL     1       7.000   6.318 -11.267  0.00  0.00    +0.253 C 
ATOM     24  C   UNL     1       6.082   7.249 -12.043  0.00  0.00    +0.058 C 
ATOM     25  C   UNL     1       7.746   7.101 -10.207  0.00  0.00    +0.058 C 
BRANCH  23  26
ATOM     26  C   UNL     1       7.965   5.643 -12.160  0.00  0.00    +0.403 C 
ATOM     27  O   UNL     1       9.348   5.806 -12.053  0.00  0.00    -0.242 OA
ATOM     28  O   UNL     1       7.588   4.575 -12.730  0.00  0.00    -0.242 OA
ENDBRANCH  23  26
ENDBRANCH  22  23
ENDBRANCH   2  22
TORSDOF 7
ENDMDL
MODEL 2
REMARK VINA RESULT:      -8.2      4.374      7.608
REMARK  Name = 
REMARK  7 active torsions:
REMARK  status: ('A' for Active; 'I' for Inactive)
REMARK    1  A    between atoms: C_3  and  N_4
REMARK    2  A    between atoms: C_5  and  C_7
REMARK    3  A    between atoms: C_7  and  C_16
REMARK    4  A    between atoms: N_8  and  O_9
REMARK    5  A    between atoms: O_9  and  C_10
REMARK    6  A    between atoms: C_10  and  C_13
REMARK    7  A    between atoms: N_24  and  S_25
REMARK                            x       y       z     vdW  Elec       q    Type
REMARK                         _______ _______ _______ _____ _____    ______ ____
ROOT
ATOM      1  C   UNL     1       1.145   6.344  -5.411  0.00  0.00    +0.192 C 
ATOM      2  N   UNL     1      -0.075   5.897  -5.358  0.00  0.00    -0.076 NA
ENDROOT
BRANCH   1   3
ATOM      3  C   UNL     1       1.736   6.339  -6.760  0.00  0.00    +0.115 A 
ATOM      4  N   UNL     1       1.591   5.342  -7.629  0.00  0.00    -0.220 NA
ATOM      5  C   UNL     1       1.718   5.717  -8.909  0.00  0.00    +0.201 A 
ATOM      6  N   UNL     1       1.403   4.914 -10.054  0.00  0.00    -0.100 NA
ATOM      7  S   UNL     1       2.823   7.022  -8.773  0.00  0.00    -0.048 S 
ATOM      8  C   UNL     1       2.852   7.117  -7.058  0.00  0.00    +0.059 A 
ENDBRANCH   1   3
BRANCH   1  10
ATOM      9  N   UNL     1       2.269   6.760  -3.178  0.00  0.00    -0.191 NA
ATOM     10  C   UNL     1       2.008   5.905  -4.302  0.00  0.00    +0.288 C 
ATOM     11  O   UNL     1       2.707   4.906  -4.579  0.00  0.00    -0.267 OA
BRANCH   9  17
ATOM     12  C   UNL     1       4.235   6.543  -0.013  0.00  0.00    +0.026 C 
ATOM     13  C   UNL     1       3.344   7.389  -1.134  0.00  0.00    +0.130 C 
ATOM     14  N   UNL     1       1.997   6.701  -0.696  0.00  0.00    -0.136 N 
ATOM     15  C   UNL     1       2.271   5.450  -1.244  0.00  0.00    +0.267 C 
ATOM     16  O   UNL     1       2.324   4.305  -0.692  0.00  0.00    -0.271 OA
ATOM     17  C   UNL     1       3.379   6.068  -2.258  0.00  0.00    +0.193 C 
BRANCH  14  18
ATOM     18  S   UNL     1       0.766   7.445   0.204  0.00  0.00    +0.200 S 
ATOM     19  O   UNL     1      -0.658   7.267  -0.689  0.00  0.00    -0.029 OA
ATOM     20  O   UNL     1       1.117   8.880   0.371  0.00  0.00    -0.124 OA
ATOM     21  O   UNL     1       0.661   6.773   1.541  0.00  0.00    -0.124 OA
ENDBRANCH  14  18
ENDBRANCH   9  17
ENDBRANCH   1  10
BRANCH   2  22
ATOM     22  O   UNL     1      -0.753   5.884  -4.181  0.00  0.00    -0.374 OA
BRANCH  22  23
ATOM     23  C   UNL     1      -2.081   6.397  -4.162  0.00  0.00    +0.253 C 
ATOM     24  C   UNL     1      -1.958   7.902  -3.981  0.00  0.00    +0.058 C 
ATOM     25  C   UNL     1      -2.694   6.093  -5.512  0.00  0.00    +0.058 C 
BRANCH  23  26
ATOM     26  C   UNL     1      -2.903   5.791  -3.093  0.00  0.00    +0.403 C 
ATOM     27  O   UNL     1      -2.508   4.662  -2.373  0.00  0.00    -0.242 OA
ATOM     28  O   UNL     1      -3.750   6.535  -2.512  0.00  0.00    -0.242 OA
ENDBRANCH  23  26
ENDBRANCH  22  23
ENDBRANCH   2  22
TORSDOF 7
ENDMDL
MODEL 3
REMARK VINA RESULT:      -8.1      3.363      5.646
REMARK  Name = 
REMARK  7 active torsions:
REMARK  status: ('A' for Active; 'I' for Inactive)
REMARK    1  A    between atoms: C_3  and  N_4
REMARK    2  A    between atoms: C_5  and  C_7
REMARK    3  A    between atoms: C_7  and  C_16
REMARK    4  A    between atoms: N_8  and  O_9
REMARK    5  A    between atoms: O_9  and  C_10
REMARK    6  A    between atoms: C_10  and  C_13
REMARK    7  A    between atoms: N_24  and  S_25
REMARK                            x       y       z     vdW  Elec       q    Type
REMARK                         _______ _______ _______ _____ _____    ______ ____
ROOT
ATOM      1  C   UNL     1       3.455   6.920  -5.867  0.00  0.00    +0.192 C 
ATOM      2  N   UNL     1       4.053   6.168  -6.745  0.00  0.00    -0.076 NA
ENDROOT
BRANCH   1   3
ATOM      3  C   UNL     1       3.852   6.660  -4.472  0.00  0.00    +0.115 A 
ATOM      4  N   UNL     1       4.202   7.612  -3.612  0.00  0.00    -0.220 NA
ATOM      5  C   UNL     1       4.010   7.279  -2.328  0.00  0.00    +0.201 A 
ATOM      6  N   UNL     1       4.092   8.170  -1.209  0.00  0.00    -0.100 NA
ATOM      7  S   UNL     1       4.244   5.580  -2.379  0.00  0.00    -0.048 S 
ATOM      8  C   UNL     1       4.346   5.417  -4.087  0.00  0.00    +0.059 A 
ENDBRANCH   1   3
BRANCH   1  10
ATOM      9  N   UNL     1       1.026   6.254  -5.583  0.00  0.00    -0.191 NA
ATOM     10  C   UNL     1       2.021   7.138  -6.123  0.00  0.00    +0.288 C 
ATOM     11  O   UNL     1       1.797   7.928  -7.066  0.00  0.00    -0.267 OA
BRANCH   9  17
ATOM     12  C   UNL     1      -2.678   5.853  -5.807  0.00  0.00    +0.026 C 
ATOM     13  C   UNL     1      -1.157   5.278  -5.462  0.00  0.00    +0.130 C 
ATOM     14  N   UNL     1      -1.031   6.167  -4.168  0.00  0.00    -0.136 N 
ATOM     15  C   UNL     1      -0.873   7.385  -4.827  0.00  0.00    +0.267 C 
ATOM     16  O   UNL     1      -1.560   8.453  -4.753  0.00  0.00    -0.271 OA
ATOM     17  C   UNL     1      -0.397   6.654  -6.196  0.00  0.00    +0.193 C 
BRANCH  14  18
ATOM     18  S   UNL     1      -1.137   5.596  -2.575  0.00  0.00    +0.200 S 
ATOM     19  O   UNL     1      -2.572   4.708  -2.476  0.00  0.00    -0.029 OA
ATOM     20  O   UNL     1      -1.171   6.770  -1.663  0.00  0.00    -0.124 OA
ATOM     21  O   UNL     1       0.058   4.739  -2.281  0.00  0.00    -0.124 OA
ENDBRANCH  14  18
ENDBRANCH   9  17
ENDBRANCH   1  10
BRANCH   2  22
ATOM     22  O   UNL     1       3.808   6.331  -8.070  0.00  0.00    -0.374 OA
BRANCH  22  23
ATOM     23  C   UNL     1       4.454   5.455  -8.988  0.00  0.00    +0.253 C 
ATOM     24  C   UNL     1       5.858   5.230  -8.451  0.00  0.00    +0.058 C 
ATOM     25  C   UNL     1       3.686   4.151  -8.973  0.00  0.00    +0.058 C 
BRANCH  23  26
ATOM     26  C   UNL     1       4.483   6.001 -10.362  0.00  0.00    +0.403 C 
ATOM     27  O   UNL     1       3.696   5.500 -11.399  0.00  0.00    -0.242 OA
ATOM     28  O   UNL     1       4.874   7.199 -10.507  0.00  0.00    -0.242 OA
ENDBRANCH  23  26
ENDBRANCH  22  23
ENDBRANCH   2  22
TORSDOF 7
ENDMDL
MODEL 4
REMARK VINA RESULT:      -8.1      3.706      8.665
REMARK  Name = 
REMARK  7 active torsions:
REMARK  status: ('A' for Active; 'I' for Inactive)
REMARK    1  A    between atoms: C_3  and  N_4
REMARK    2  A    between atoms: C_5  and  C_7
REMARK    3  A    between atoms: C_7  and  C_16
REMARK    4  A    between atoms: N_8  and  O_9
REMARK    5  A    between atoms: O_9  and  C_10
REMARK    6  A    between atoms: C_10  and  C_13
REMARK    7  A    between atoms: N_24  and  S_25
REMARK                            x       y       z     vdW  Elec       q    Type
REMARK                         _______ _______ _______ _____ _____    ______ ____
ROOT
ATOM      1  C   UNL     1       1.192   6.000  -3.359  0.00  0.00    +0.192 C 
ATOM      2  N   UNL     1      -0.085   6.224  -3.467  0.00  0.00    -0.076 NA
ENDROOT
BRANCH   1   3
ATOM      3  C   UNL     1       1.720   6.143  -1.991  0.00  0.00    +0.115 A 
ATOM      4  N   UNL     1       2.777   5.478  -1.532  0.00  0.00    -0.220 NA
ATOM      5  C   UNL     1       3.408   6.095  -0.524  0.00  0.00    +0.201 A 
ATOM      6  N   UNL     1       4.684   5.728   0.017  0.00  0.00    -0.100 NA
ATOM      7  S   UNL     1       2.113   6.930   0.229  0.00  0.00    -0.048 S 
ATOM      8  C   UNL     1       0.910   6.593  -0.952  0.00  0.00    +0.059 A 
ENDBRANCH   1   3
BRANCH   1  10
ATOM      9  N   UNL     1       2.174   5.853  -5.690  0.00  0.00    -0.191 NA
ATOM     10  C   UNL     1       2.006   6.559  -4.450  0.00  0.00    +0.288 C 
ATOM     11  O   UNL     1       2.755   7.493  -4.087  0.00  0.00    -0.267 OA
BRANCH   9  17
ATOM     12  C   UNL     1       4.053   6.355  -8.876  0.00  0.00    +0.026 C 
ATOM     13  C   UNL     1       3.198   5.410  -7.808  0.00  0.00    +0.130 C 
ATOM     14  N   UNL     1       1.835   6.121  -8.151  0.00  0.00    -0.136 N 
ATOM     15  C   UNL     1       2.116   7.323  -7.505  0.00  0.00    +0.267 C 
ATOM     16  O   UNL     1       2.147   8.511  -7.959  0.00  0.00    -0.271 OA
ATOM     17  C   UNL     1       3.255   6.631  -6.577  0.00  0.00    +0.193 C 
BRANCH  14  18
ATOM     18  S   UNL     1       0.585   5.446  -9.078  0.00  0.00    +0.200 S 
ATOM     19  O   UNL     1       0.116   6.630 -10.189  0.00  0.00    -0.029 OA
ATOM     20  O   UNL     1      -0.534   5.098  -8.162  0.00  0.00    -0.124 OA
ATOM     21  O   UNL     1       1.097   4.217  -9.770  0.00  0.00    -0.124 OA
ENDBRANCH  14  18
ENDBRANCH   9  17
ENDBRANCH   1  10
BRANCH   2  22
ATOM     22  O   UNL     1      -0.708   6.088  -4.666  0.00  0.00    -0.374 OA
BRANCH  22  23
ATOM     23  C   UNL     1      -2.080   6.457  -4.759  0.00  0.00    +0.253 C 
ATOM     24  C   UNL     1      -2.114   7.975  -4.824  0.00  0.00    +0.058 C 
ATOM     25  C   UNL     1      -2.609   5.878  -6.054  0.00  0.00    +0.058 C 
BRANCH  23  26
ATOM     26  C   UNL     1      -2.878   5.948  -3.623  0.00  0.00    +0.403 C 
ATOM     27  O   UNL     1      -2.815   4.627  -3.176  0.00  0.00    -0.242 OA
ATOM     28  O   UNL     1      -3.279   6.791  -2.765  0.00  0.00    -0.242 OA
ENDBRANCH  23  26
ENDBRANCH  22  23
ENDBRANCH   2  22
TORSDOF 7
ENDMDL
MODEL 5
REMARK VINA RESULT:      -8.0      2.844      6.933
REMARK  Name = 
REMARK  7 active torsions:
REMARK  status: ('A' for Active; 'I' for Inactive)
REMARK    1  A    between atoms: C_3  and  N_4
REMARK    2  A    between atoms: C_5  and  C_7
REMARK    3  A    between atoms: C_7  and  C_16
REMARK    4  A    between atoms: N_8  and  O_9
REMARK    5  A    between atoms: O_9  and  C_10
REMARK    6  A    between atoms: C_10  and  C_13
REMARK    7  A    between atoms: N_24  and  S_25
REMARK                            x       y       z     vdW  Elec       q    Type
REMARK                         _______ _______ _______ _____ _____    ______ ____
ROOT
ATOM      1  C   UNL     1       1.904   5.893 -10.034  0.00  0.00    +0.192 C 
ATOM      2  N   UNL     1       1.617   4.944  -9.192  0.00  0.00    -0.076 NA
ENDROOT
BRANCH   1   3
ATOM      3  C   UNL     1       1.470   5.632 -11.417  0.00  0.00    +0.115 A 
ATOM      4  N   UNL     1       1.814   6.388 -12.456  0.00  0.00    -0.220 NA
ATOM      5  C   UNL     1       1.791   5.739 -13.628  0.00  0.00    +0.201 A 
ATOM      6  N   UNL     1       2.313   6.230 -14.870  0.00  0.00    -0.100 NA
ATOM      7  S   UNL     1       0.548   4.588 -13.356  0.00  0.00    -0.048 S 
ATOM      8  C   UNL     1       0.319   4.894 -11.680  0.00  0.00    +0.059 A 
ENDBRANCH   1   3
BRANCH   1  10
ATOM      9  N   UNL     1       4.427   5.775 -10.236  0.00  0.00    -0.191 NA
ATOM     10  C   UNL     1       3.240   6.487  -9.854  0.00  0.00    +0.288 C 
ATOM     11  O   UNL     1       3.249   7.472  -9.084  0.00  0.00    -0.267 OA
BRANCH   9  17
ATOM     12  C   UNL     1       8.093   6.479 -10.250  0.00  0.00    +0.026 C 
ATOM     13  C   UNL     1       6.791   5.468 -10.464  0.00  0.00    +0.130 C 
ATOM     14  N   UNL     1       6.341   6.201 -11.784  0.00  0.00    -0.136 N 
ATOM     15  C   UNL     1       5.869   7.359 -11.170  0.00  0.00    +0.267 C 
ATOM     16  O   UNL     1       6.208   8.574 -11.336  0.00  0.00    -0.271 OA
ATOM     17  C   UNL     1       5.701   6.607  -9.740  0.00  0.00    +0.193 C 
BRANCH  14  18
ATOM     18  S   UNL     1       6.525   5.588 -13.355  0.00  0.00    +0.200 S 
ATOM     19  O   UNL     1       6.663   6.926 -14.381  0.00  0.00    -0.029 OA
ATOM     20  O   UNL     1       5.318   4.785 -13.683  0.00  0.00    -0.124 OA
ATOM     21  O   UNL     1       7.755   4.731 -13.406  0.00  0.00    -0.124 OA
ENDBRANCH  14  18
ENDBRANCH   9  17
ENDBRANCH   1  10
BRANCH   2  22
ATOM     22  O   UNL     1       1.926   5.074  -7.876  0.00  0.00    -0.374 OA
BRANCH  22  23
ATOM     23  C   UNL     1       0.875   5.374  -6.963  0.00  0.00    +0.253 C 
ATOM     24  C   UNL     1      -0.417   5.325  -7.763  0.00  0.00    +0.058 C 
ATOM     25  C   UNL     1       0.871   4.280  -5.917  0.00  0.00    +0.058 C 
BRANCH  23  26
ATOM     26  C   UNL     1       1.056   6.688  -6.310  0.00  0.00    +0.403 C 
ATOM     27  O   UNL     1       0.059   7.310  -5.556  0.00  0.00    -0.242 OA
ATOM     28  O   UNL     1       2.242   7.052  -6.045  0.00  0.00    -0.242 OA
ENDBRANCH  23  26
ENDBRANCH  22  23
ENDBRANCH   2  22
TORSDOF 7
ENDMDL
MODEL 6
REMARK VINA RESULT:      -8.0      2.925      6.528
REMARK  Name = 
REMARK  7 active torsions:
REMARK  status: ('A' for Active; 'I' for Inactive)
REMARK    1  A    between atoms: C_3  and  N_4
REMARK    2  A    between atoms: C_5  and  C_7
REMARK    3  A    between atoms: C_7  and  C_16
REMARK    4  A    between atoms: N_8  and  O_9
REMARK    5  A    between atoms: O_9  and  C_10
REMARK    6  A    between atoms: C_10  and  C_13
REMARK    7  A    between atoms: N_24  and  S_25
REMARK                            x       y       z     vdW  Elec       q    Type
REMARK                         _______ _______ _______ _____ _____    ______ ____
ROOT
ATOM      1  C   UNL     1       1.975   5.641  -9.661  0.00  0.00    +0.192 C 
ATOM      2  N   UNL     1       1.252   6.021 -10.673  0.00  0.00    -0.076 NA
ENDROOT
BRANCH   1   3
ATOM      3  C   UNL     1       1.215   5.417  -8.420  0.00  0.00    +0.115 A 
ATOM      4  N   UNL     1       1.707   4.793  -7.352  0.00  0.00    -0.220 NA
ATOM      5  C   UNL     1       1.114   5.141  -6.202  0.00  0.00    +0.201 A 
ATOM      6  N   UNL     1       1.571   4.800  -4.887  0.00  0.00    -0.100 NA
ATOM      7  S   UNL     1      -0.474   5.511  -6.734  0.00  0.00    -0.048 S 
ATOM      8  C   UNL     1      -0.177   5.402  -8.424  0.00  0.00    +0.059 A 
ENDBRANCH   1   3
BRANCH   1  10
ATOM      9  N   UNL     1       4.482   5.744 -10.019  0.00  0.00    -0.191 NA
ATOM     10  C   UNL     1       3.267   6.338  -9.536  0.00  0.00    +0.288 C 
ATOM     11  O   UNL     1       3.245   7.289  -8.724  0.00  0.00    -0.267 OA
BRANCH   9  17
ATOM     12  C   UNL     1       8.107   6.633 -10.078  0.00  0.00    +0.026 C 
ATOM     13  C   UNL     1       6.857   5.549 -10.245  0.00  0.00    +0.130 C 
ATOM     14  N   UNL     1       6.369   6.202 -11.592  0.00  0.00    -0.136 N 
ATOM     15  C   UNL     1       5.839   7.359 -11.025  0.00  0.00    +0.267 C 
ATOM     16  O   UNL     1       6.115   8.581 -11.244  0.00  0.00    -0.271 OA
ATOM     17  C   UNL     1       5.713   6.660  -9.565  0.00  0.00    +0.193 C 
BRANCH  14  18
ATOM     18  S   UNL     1       6.580   5.534 -13.137  0.00  0.00    +0.200 S 
ATOM     19  O   UNL     1       5.194   4.623 -13.462  0.00  0.00    -0.029 OA
ATOM     20  O   UNL     1       7.792   4.672 -13.106  0.00  0.00    -0.124 OA
ATOM     21  O   UNL     1       6.752   6.644 -14.131  0.00  0.00    -0.124 OA
ENDBRANCH  14  18
ENDBRANCH   9  17
ENDBRANCH   1  10
BRANCH   2  22
ATOM     22  O   UNL     1       1.822   6.225 -11.888  0.00  0.00    -0.374 OA
BRANCH  22  23
ATOM     23  C   UNL     1       1.089   5.847 -13.049  0.00  0.00    +0.253 C 
ATOM     24  C   UNL     1       0.128   4.753 -12.614  0.00  0.00    +0.058 C 
ATOM     25  C   UNL     1       0.308   7.065 -13.497  0.00  0.00    +0.058 C 
BRANCH  23  26
ATOM     26  C   UNL     1       1.968   5.388 -14.146  0.00  0.00    +0.403 C 
ATOM     27  O   UNL     1       2.065   4.052 -14.538  0.00  0.00    -0.242 OA
ATOM     28  O   UNL     1       2.294   6.238 -15.029  0.00  0.00    -0.242 OA
ENDBRANCH  23  26
ENDBRANCH  22  23
ENDBRANCH   2  22
TORSDOF 7
ENDMDL
MODEL 7
REMARK VINA RESULT:      -7.9      5.092      8.988
REMARK  Name = 
REMARK  7 active torsions:
REMARK  status: ('A' for Active; 'I' for Inactive)
REMARK    1  A    between atoms: C_3  and  N_4
REMARK    2  A    between atoms: C_5  and  C_7
REMARK    3  A    between atoms: C_7  and  C_16
REMARK    4  A    between atoms: N_8  and  O_9
REMARK    5  A    between atoms: O_9  and  C_10
REMARK    6  A    between atoms: C_10  and  C_13
REMARK    7  A    between atoms: N_24  and  S_25
REMARK                            x       y       z     vdW  Elec       q    Type
REMARK                         _______ _______ _______ _____ _____    ______ ____
ROOT
ATOM      1  C   UNL     1       0.949   6.163  -1.054  0.00  0.00    +0.192 C 
ATOM      2  N   UNL     1       1.743   5.401  -0.360  0.00  0.00    -0.076 NA
ENDROOT
BRANCH   1   3
ATOM      3  C   UNL     1       0.010   6.959  -0.246  0.00  0.00    +0.115 A 
ATOM      4  N   UNL     1       0.383   7.938   0.573  0.00  0.00    -0.220 NA
ATOM      5  C   UNL     1      -0.570   8.855   0.790  0.00  0.00    +0.201 A 
ATOM      6  N   UNL     1      -0.387  10.116   1.446  0.00  0.00    -0.100 NA
ATOM      7  S   UNL     1      -1.993   7.909   0.640  0.00  0.00    -0.048 S 
ATOM      8  C   UNL     1      -1.247   6.462   0.089  0.00  0.00    +0.059 A 
ENDBRANCH   1   3
BRANCH   1  10
ATOM      9  N   UNL     1       0.688   6.092  -3.574  0.00  0.00    -0.191 NA
ATOM     10  C   UNL     1       0.416   5.538  -2.277  0.00  0.00    +0.288 C 
ATOM     11  O   UNL     1      -0.508   4.724  -2.059  0.00  0.00    -0.267 OA
BRANCH   9  17
ATOM     12  C   UNL     1      -0.712   5.713  -7.013  0.00  0.00    +0.026 C 
ATOM     13  C   UNL     1      -0.106   6.632  -5.767  0.00  0.00    +0.130 C 
ATOM     14  N   UNL     1       1.358   6.093  -5.981  0.00  0.00    -0.136 N 
ATOM     15  C   UNL     1       1.132   4.814  -5.478  0.00  0.00    +0.267 C 
ATOM     16  O   UNL     1       1.288   3.677  -6.027  0.00  0.00    -0.271 OA
ATOM     17  C   UNL     1      -0.182   5.300  -4.658  0.00  0.00    +0.193 C 
BRANCH  14  18
ATOM     18  S   UNL     1       2.633   6.973  -6.673  0.00  0.00    +0.200 S 
ATOM     19  O   UNL     1       3.486   5.892  -7.655  0.00  0.00    -0.029 OA
ATOM     20  O   UNL     1       3.490   7.489  -5.574  0.00  0.00    -0.124 OA
ATOM     21  O   UNL     1       2.066   8.108  -7.473  0.00  0.00    -0.124 OA
ENDBRANCH  14  18
ENDBRANCH   9  17
ENDBRANCH   1  10
BRANCH   2  22
ATOM     22  O   UNL     1       2.686   4.644  -0.979  0.00  0.00    -0.374 OA
BRANCH  22  23
ATOM     23  C   UNL     1       3.989   5.193  -1.146  0.00  0.00    +0.253 C 
ATOM     24  C   UNL     1       4.969   4.111  -0.722  0.00  0.00    +0.058 C 
ATOM     25  C   UNL     1       4.160   5.489  -2.621  0.00  0.00    +0.058 C 
BRANCH  23  26
ATOM     26  C   UNL     1       4.182   6.433  -0.364  0.00  0.00    +0.403 C 
ATOM     27  O   UNL     1       4.643   6.440   0.954  0.00  0.00    -0.242 OA
ATOM     28  O   UNL     1       4.366   7.509  -1.008  0.00  0.00    -0.242 OA
ENDBRANCH  23  26
ENDBRANCH  22  23
ENDBRANCH   2  22
TORSDOF 7
ENDMDL
MODEL 8
REMARK VINA RESULT:      -7.9      3.434      7.569
REMARK  Name = 
REMARK  7 active torsions:
REMARK  status: ('A' for Active; 'I' for Inactive)
REMARK    1  A    between atoms: C_3  and  N_4
REMARK    2  A    between atoms: C_5  and  C_7
REMARK    3  A    between atoms: C_7  and  C_16
REMARK    4  A    between atoms: N_8  and  O_9
REMARK    5  A    between atoms: O_9  and  C_10
REMARK    6  A    between atoms: C_10  and  C_13
REMARK    7  A    between atoms: N_24  and  S_25
REMARK                            x       y       z     vdW  Elec       q    Type
REMARK                         _______ _______ _______ _____ _____    ______ ____
ROOT
ATOM      1  C   UNL     1       1.462   6.635  -3.952  0.00  0.00    +0.192 C 
ATOM      2  N   UNL     1       1.871   6.027  -2.877  0.00  0.00    -0.076 NA
ENDROOT
BRANCH   1   3
ATOM      3  C   UNL     1       0.017   6.507  -4.211  0.00  0.00    +0.115 A 
ATOM      4  N   UNL     1      -0.704   5.441  -3.873  0.00  0.00    -0.220 NA
ATOM      5  C   UNL     1      -2.006   5.704  -3.694  0.00  0.00    +0.201 A 
ATOM      6  N   UNL     1      -2.972   4.810  -3.125  0.00  0.00    -0.100 NA
ATOM      7  S   UNL     1      -2.246   7.001  -4.791  0.00  0.00    -0.048 S 
ATOM      8  C   UNL     1      -0.599   7.242  -5.220  0.00  0.00    +0.059 A 
ENDBRANCH   1   3
BRANCH   1  10
ATOM      9  N   UNL     1       2.240   5.402  -6.025  0.00  0.00    -0.191 NA
ATOM     10  C   UNL     1       2.361   6.503  -5.111  0.00  0.00    +0.288 C 
ATOM     11  O   UNL     1       3.383   7.221  -5.034  0.00  0.00    -0.267 OA
BRANCH   9  17
ATOM     12  C   UNL     1       3.827   4.539  -9.291  0.00  0.00    +0.026 C 
ATOM     13  C   UNL     1       2.734   4.259  -8.070  0.00  0.00    +0.130 C 
ATOM     14  N   UNL     1       1.837   5.485  -8.489  0.00  0.00    -0.136 N 
ATOM     15  C   UNL     1       2.707   6.478  -8.045  0.00  0.00    +0.267 C 
ATOM     16  O   UNL     1       3.248   7.439  -8.679  0.00  0.00    -0.271 OA
ATOM     17  C   UNL     1       3.470   5.450  -7.047  0.00  0.00    +0.193 C 
BRANCH  14  18
ATOM     18  S   UNL     1       0.335   5.376  -9.271  0.00  0.00    +0.200 S 
ATOM     19  O   UNL     1      -0.829   5.207  -8.056  0.00  0.00    -0.029 OA
ATOM     20  O   UNL     1       0.360   4.183 -10.158  0.00  0.00    -0.124 OA
ATOM     21  O   UNL     1       0.110   6.622 -10.075  0.00  0.00    -0.124 OA
ENDBRANCH  14  18
ENDBRANCH   9  17
ENDBRANCH   1  10
BRANCH   2  22
ATOM     22  O   UNL     1       3.173   6.099  -2.500  0.00  0.00    -0.374 OA
BRANCH  22  23
ATOM     23  C   UNL     1       3.489   6.783  -1.292  0.00  0.00    +0.253 C 
ATOM     24  C   UNL     1       4.044   8.139  -1.698  0.00  0.00    +0.058 C 
ATOM     25  C   UNL     1       2.192   6.967  -0.534  0.00  0.00    +0.058 C 
BRANCH  23  26
ATOM     26  C   UNL     1       4.453   6.034  -0.457  0.00  0.00    +0.403 C 
ATOM     27  O   UNL     1       4.923   6.501   0.772  0.00  0.00    -0.242 OA
ATOM     28  O   UNL     1       4.515   4.777  -0.619  0.00  0.00    -0.242 OA
ENDBRANCH  23  26
ENDBRANCH  22  23
ENDBRANCH   2  22
TORSDOF 7
ENDMDL
MODEL 9
REMARK VINA RESULT:      -7.8      4.430      6.858
REMARK  Name = 
REMARK  7 active torsions:
REMARK  status: ('A' for Active; 'I' for Inactive)
REMARK    1  A    between atoms: C_3  and  N_4
REMARK    2  A    between atoms: C_5  and  C_7
REMARK    3  A    between atoms: C_7  and  C_16
REMARK    4  A    between atoms: N_8  and  O_9
REMARK    5  A    between atoms: O_9  and  C_10
REMARK    6  A    between atoms: C_10  and  C_13
REMARK    7  A    between atoms: N_24  and  S_25
REMARK                            x       y       z     vdW  Elec       q    Type
REMARK                         _______ _______ _______ _____ _____    ______ ____
ROOT
ATOM      1  C   UNL     1       2.379   6.301  -4.798  0.00  0.00    +0.192 C 
ATOM      2  N   UNL     1       2.799   5.244  -5.429  0.00  0.00    -0.076 NA
ENDROOT
BRANCH   1   3
ATOM      3  C   UNL     1       3.096   6.584  -3.542  0.00  0.00    +0.115 A 
ATOM      4  N   UNL     1       3.440   7.806  -3.145  0.00  0.00    -0.220 NA
ATOM      5  C   UNL     1       3.580   7.925  -1.818  0.00  0.00    +0.201 A 
ATOM      6  N   UNL     1       3.732   9.154  -1.096  0.00  0.00    -0.100 NA
ATOM      7  S   UNL     1       4.098   6.346  -1.388  0.00  0.00    -0.048 S 
ATOM      8  C   UNL     1       3.873   5.608  -2.923  0.00  0.00    +0.059 A 
ENDBRANCH   1   3
BRANCH   1  10
ATOM      9  N   UNL     1       0.094   5.718  -3.871  0.00  0.00    -0.191 NA
ATOM     10  C   UNL     1       0.916   6.464  -4.782  0.00  0.00    +0.288 C 
ATOM     11  O   UNL     1       0.467   7.036  -5.799  0.00  0.00    -0.267 OA
BRANCH   9  17
ATOM     12  C   UNL     1      -3.516   5.893  -2.939  0.00  0.00    +0.026 C 
ATOM     13  C   UNL     1      -1.968   5.327  -2.719  0.00  0.00    +0.130 C 
ATOM     14  N   UNL     1      -1.455   6.717  -2.185  0.00  0.00    -0.136 N 
ATOM     15  C   UNL     1      -1.483   7.379  -3.410  0.00  0.00    +0.267 C 
ATOM     16  O   UNL     1      -2.103   8.433  -3.761  0.00  0.00    -0.271 OA
ATOM     17  C   UNL     1      -1.441   5.982  -4.237  0.00  0.00    +0.193 C 
BRANCH  14  18
ATOM     18  S   UNL     1      -1.093   7.070  -0.565  0.00  0.00    +0.200 S 
ATOM     19  O   UNL     1       0.569   6.823  -0.378  0.00  0.00    -0.029 OA
ATOM     20  O   UNL     1      -1.872   6.141   0.295  0.00  0.00    -0.124 OA
ATOM     21  O   UNL     1      -1.471   8.492  -0.278  0.00  0.00    -0.124 OA
ENDBRANCH  14  18
ENDBRANCH   9  17
ENDBRANCH   1  10
BRANCH   2  22
ATOM     22  O   UNL     1       2.251   4.891  -6.620  0.00  0.00    -0.374 OA
BRANCH  22  23
ATOM     23  C   UNL     1       2.986   5.166  -7.809  0.00  0.00    +0.253 C 
ATOM     24  C   UNL     1       4.426   5.400  -7.379  0.00  0.00    +0.058 C 
ATOM     25  C   UNL     1       2.906   3.928  -8.677  0.00  0.00    +0.058 C 
BRANCH  23  26
ATOM     26  C   UNL     1       2.448   6.329  -8.547  0.00  0.00    +0.403 C 
ATOM     27  O   UNL     1       1.239   6.297  -9.245  0.00  0.00    -0.242 OA
ATOM     28  O   UNL     1       2.836   7.481  -8.188  0.00  0.00    -0.242 OA
ENDBRANCH  23  26
ENDBRANCH  22  23
ENDBRANCH   2  22
TORSDOF 7
ENDMDL
