MODEL 1
REMARK VINA RESULT:      -7.9      0.000      0.000
REMARK  Name = 
REMARK  7 active torsions:
REMARK  status: ('A' for Active; 'I' for Inactive)
REMARK    1  A    between atoms: C_2  and  C_3
REMARK    2  A    between atoms: C_3  and  C_4
REMARK    3  A    between atoms: C_6  and  C_7
REMARK    4  A    between atoms: N_9  and  C_10
REMARK    5  A    between atoms: C_10  and  C_11
REMARK    6  A    between atoms: C_10  and  C_14
REMARK    7  A    between atoms: C_16  and  S_17
REMARK                            x       y       z     vdW  Elec       q    Type
REMARK                         _______ _______ _______ _____ _____    ______ ____
ROOT
ATOM      1  C   UNL     1       2.350   5.760  -8.681  0.00  0.00    +0.155 C 
ENDROOT
BRANCH   1   2
ATOM      2  C   UNL     1       2.860   6.418  -7.176  0.00  0.00    +0.172 C 
ATOM      3  C   UNL     1       3.609   4.969  -6.607  0.00  0.00    +0.213 C 
ATOM      4  O   UNL     1       3.077   4.042  -7.705  0.00  0.00    -0.218 OA
ATOM      5  C   UNL     1       2.595   4.263  -5.400  0.00  0.00    +0.218 C 
ATOM      6  O   UNL     1       1.379   3.987  -6.301  0.00  0.00    -0.217 OA
ATOM      7  C   UNL     1       1.751   5.483  -4.506  0.00  0.00    +0.222 C 
ATOM      8  O   UNL     1       2.786   5.559  -3.379  0.00  0.00    -0.217 OA
ATOM      9  C   UNL     1       2.242   6.913  -5.268  0.00  0.00    +0.195 C 
ATOM     10  O   UNL     1       1.613   6.180  -6.419  0.00  0.00    -0.341 OA
BRANCH   9  11
ATOM     11  S   UNL     1       4.135   6.539  -5.265  0.00  0.00    -0.108 S 
ATOM     12  C   UNL     1       5.019   7.728  -4.370  0.00  0.00    +0.072 C 
ENDBRANCH   9  11
ENDBRANCH   1   2
BRANCH   1  13
ATOM     13  C   UNL     1       0.977   6.764  -8.939  0.00  0.00    +0.174 C 
ATOM     14  O   UNL     1      -0.103   5.767  -8.524  0.00  0.00    -0.221 OA
ATOM     15  C   UNL     1       0.846   6.366 -10.557  0.00  0.00    +0.037 C 
ENDBRANCH   1  13
BRANCH   1  17
ATOM     16  C   UNL     1       4.354   6.181 -10.209  0.00  0.00    +0.256 C 
ATOM     17  N   UNL     1       3.285   6.751  -9.451  0.00  0.00    -0.201 NA
ATOM     18  O   UNL     1       4.322   4.941 -10.179  0.00  0.00    -0.272 OA
BRANCH  16  23
ATOM     19  C   UNL     1       6.311   6.704 -13.255  0.00  0.00    +0.018 C 
ATOM     20  C   UNL     1       5.253   5.474 -13.492  0.00  0.00    +0.073 C 
ATOM     21  N   UNL     1       4.379   5.462 -12.438  0.00  0.00    -0.265 NA
ATOM     22  C   UNL     1       2.984   5.571 -12.875  0.00  0.00    +0.090 C 
ATOM     23  C   UNL     1       4.612   6.848 -11.685  0.00  0.00    +0.137 C 
ATOM     24  C   UNL     1       6.250   6.561 -11.610  0.00  0.00    +0.027 C 
BRANCH  19  25
ATOM     25  C   UNL     1       7.588   5.662 -13.410  0.00  0.00    +0.001 C 
BRANCH  25  27
ATOM     26  C   UNL     1       9.750   5.933 -12.195  0.00  0.00    +0.000 C 
ATOM     27  C   UNL     1       8.297   5.675 -12.100  0.00  0.00    +0.000 C 
ENDBRANCH  25  27
ENDBRANCH  19  25
ENDBRANCH  16  23
ENDBRANCH   1  17
TORSDOF 7
ENDMDL
MODEL 2
REMARK VINA RESULT:      -7.4      5.409      9.114
REMARK  Name = 
REMARK  7 active torsions:
REMARK  status: ('A' for Active; 'I' for Inactive)
REMARK    1  A    between atoms: C_2  and  C_3
REMARK    2  A    between atoms: C_3  and  C_4
REMARK    3  A    between atoms: C_6  and  C_7
REMARK    4  A    between atoms: N_9  and  C_10
REMARK    5  A    between atoms: C_10  and  C_11
REMARK    6  A    between atoms: C_10  and  C_14
REMARK    7  A    between atoms: C_16  and  S_17
REMARK                            x       y       z     vdW  Elec       q    Type
REMARK                         _______ _______ _______ _____ _____    ______ ____
ROOT
ATOM      1  C   UNL     1       3.193   6.475  -3.600  0.00  0.00    +0.155 C 
ENDROOT
BRANCH   1   2
ATOM      2  C   UNL     1       1.729   6.864  -4.414  0.00  0.00    +0.172 C 
ATOM      3  C   UNL     1       0.982   5.328  -4.155  0.00  0.00    +0.213 C 
ATOM      4  O   UNL     1       2.224   4.607  -3.620  0.00  0.00    -0.218 OA
ATOM      5  C   UNL     1       1.005   4.447  -5.641  0.00  0.00    +0.218 C 
ATOM      6  O   UNL     1       2.534   4.346  -5.786  0.00  0.00    -0.217 OA
ATOM      7  C   UNL     1       0.871   5.514  -6.998  0.00  0.00    +0.222 C 
ATOM      8  O   UNL     1      -0.650   5.383  -7.117  0.00  0.00    -0.217 OA
ATOM      9  C   UNL     1       0.842   7.043  -6.271  0.00  0.00    +0.195 C 
ATOM     10  O   UNL     1       2.166   6.523  -5.785  0.00  0.00    -0.341 OA
BRANCH   9  11
ATOM     11  S   UNL     1      -0.499   6.642  -4.943  0.00  0.00    -0.108 S 
ATOM     12  C   UNL     1      -1.644   7.930  -4.783  0.00  0.00    +0.072 C 
ENDBRANCH   9  11
ENDBRANCH   1   2
BRANCH   1  13
ATOM     13  C   UNL     1       4.245   7.530  -4.460  0.00  0.00    +0.174 C 
ATOM     14  O   UNL     1       4.763   6.528  -5.490  0.00  0.00    -0.221 OA
ATOM     15  C   UNL     1       5.536   7.271  -3.430  0.00  0.00    +0.037 C 
ENDBRANCH   1  13
BRANCH   1  17
ATOM     16  C   UNL     1       2.705   7.114  -1.174  0.00  0.00    +0.256 C 
ATOM     17  N   UNL     1       2.901   7.565  -2.516  0.00  0.00    -0.201 NA
ATOM     18  O   UNL     1       2.869   5.888  -1.079  0.00  0.00    -0.272 OA
BRANCH  16  23
ATOM     19  C   UNL     1       3.887  10.277   0.231  0.00  0.00    +0.018 C 
ATOM     20  C   UNL     1       2.364   9.981   0.761  0.00  0.00    +0.073 C 
ATOM     21  N   UNL     1       2.044   8.694   0.424  0.00  0.00    -0.265 NA
ATOM     22  C   UNL     1       1.655   7.897   1.590  0.00  0.00    +0.090 C 
ATOM     23  C   UNL     1       3.422   8.019  -0.009  0.00  0.00    +0.137 C 
ATOM     24  C   UNL     1       3.729   9.268  -1.067  0.00  0.00    +0.027 C 
BRANCH  19  25
ATOM     25  C   UNL     1       3.361  11.610  -0.599  0.00  0.00    +0.001 C 
BRANCH  25  27
ATOM     26  C   UNL     1       4.527  13.592  -1.564  0.00  0.00    +0.000 C 
ATOM     27  C   UNL     1       4.416  12.647  -0.432  0.00  0.00    +0.000 C 
ENDBRANCH  25  27
ENDBRANCH  19  25
ENDBRANCH  16  23
ENDBRANCH   1  17
TORSDOF 7
ENDMDL
MODEL 3
REMARK VINA RESULT:      -7.1      5.672      8.639
REMARK  Name = 
REMARK  7 active torsions:
REMARK  status: ('A' for Active; 'I' for Inactive)
REMARK    1  A    between atoms: C_2  and  C_3
REMARK    2  A    between atoms: C_3  and  C_4
REMARK    3  A    between atoms: C_6  and  C_7
REMARK    4  A    between atoms: N_9  and  C_10
REMARK    5  A    between atoms: C_10  and  C_11
REMARK    6  A    between atoms: C_10  and  C_14
REMARK    7  A    between atoms: C_16  and  S_17
REMARK                            x       y       z     vdW  Elec       q    Type
REMARK                         _______ _______ _______ _____ _____    ______ ____
ROOT
ATOM      1  C   UNL     1       2.364   6.692  -0.554  0.00  0.00    +0.155 C 
ENDROOT
BRANCH   1   2
ATOM      2  C   UNL     1       2.538   8.388  -0.325  0.00  0.00    +0.172 C 
ATOM      3  C   UNL     1       4.027   8.286   0.545  0.00  0.00    +0.213 C 
ATOM      4  O   UNL     1       4.025   6.766   0.738  0.00  0.00    -0.218 OA
ATOM      5  C   UNL     1       3.708   8.586   2.216  0.00  0.00    +0.218 C 
ATOM      6  O   UNL     1       2.794   7.373   2.463  0.00  0.00    -0.217 OA
ATOM      7  C   UNL     1       2.402   9.706   2.409  0.00  0.00    +0.222 C 
ATOM      8  O   UNL     1       3.303  10.940   2.514  0.00  0.00    -0.217 OA
ATOM      9  C   UNL     1       1.920   9.997   0.813  0.00  0.00    +0.195 C 
ATOM     10  O   UNL     1       1.723   8.510   0.902  0.00  0.00    -0.341 OA
BRANCH   9  11
ATOM     11  S   UNL     1       3.678  10.341   0.098  0.00  0.00    -0.108 S 
ATOM     12  C   UNL     1       3.753  11.873  -0.703  0.00  0.00    +0.072 C 
ENDBRANCH   9  11
ENDBRANCH   1   2
BRANCH   1  13
ATOM     13  C   UNL     1       0.650   6.631  -0.676  0.00  0.00    +0.174 C 
ATOM     14  O   UNL     1       0.336   6.373   0.797  0.00  0.00    -0.221 OA
ATOM     15  C   UNL     1       0.618   5.005  -1.058  0.00  0.00    +0.037 C 
ENDBRANCH   1  13
BRANCH   1  17
ATOM     16  C   UNL     1       3.513   6.069  -2.750  0.00  0.00    +0.256 C 
ATOM     17  N   UNL     1       2.521   6.867  -2.101  0.00  0.00    -0.201 NA
ATOM     18  O   UNL     1       4.064   5.293  -1.953  0.00  0.00    -0.272 OA
BRANCH  16  23
ATOM     19  C   UNL     1       1.337   5.801  -5.677  0.00  0.00    +0.018 C 
ATOM     20  C   UNL     1       2.574   6.826  -6.010  0.00  0.00    +0.073 C 
ATOM     21  N   UNL     1       3.492   6.719  -5.000  0.00  0.00    -0.265 NA
ATOM     22  C   UNL     1       4.823   6.362  -5.498  0.00  0.00    +0.090 C 
ATOM     23  C   UNL     1       3.069   5.414  -4.186  0.00  0.00    +0.137 C 
ATOM     24  C   UNL     1       1.509   5.978  -4.044  0.00  0.00    +0.027 C 
BRANCH  19  25
ATOM     25  C   UNL     1       0.248   7.042  -5.809  0.00  0.00    +0.001 C 
BRANCH  25  27
ATOM     26  C   UNL     1      -1.702   7.959  -4.553  0.00  0.00    +0.000 C 
ATOM     27  C   UNL     1      -0.560   7.020  -4.558  0.00  0.00    +0.000 C 
ENDBRANCH  25  27
ENDBRANCH  19  25
ENDBRANCH  16  23
ENDBRANCH   1  17
TORSDOF 7
ENDMDL
MODEL 4
REMARK VINA RESULT:      -6.8      3.710      8.776
REMARK  Name = 
REMARK  7 active torsions:
REMARK  status: ('A' for Active; 'I' for Inactive)
REMARK    1  A    between atoms: C_2  and  C_3
REMARK    2  A    between atoms: C_3  and  C_4
REMARK    3  A    between atoms: C_6  and  C_7
REMARK    4  A    between atoms: N_9  and  C_10
REMARK    5  A    between atoms: C_10  and  C_11
REMARK    6  A    between atoms: C_10  and  C_14
REMARK    7  A    between atoms: C_16  and  S_17
REMARK                            x       y       z     vdW  Elec       q    Type
REMARK                         _______ _______ _______ _____ _____    ______ ____
ROOT
ATOM      1  C   UNL     1       1.104   5.774  -5.576  0.00  0.00    +0.155 C 
ENDROOT
BRANCH   1   2
ATOM      2  C   UNL     1       1.289   6.298  -7.204  0.00  0.00    +0.172 C 
ATOM      3  C   UNL     1       1.476   4.714  -7.868  0.00  0.00    +0.213 C 
ATOM      4  O   UNL     1       1.611   3.970  -6.535  0.00  0.00    -0.218 OA
ATOM      5  C   UNL     1       3.140   4.478  -8.268  0.00  0.00    +0.218 C 
ATOM      6  O   UNL     1       3.703   4.593  -6.841  0.00  0.00    -0.217 OA
ATOM      7  C   UNL     1       3.877   5.965  -8.760  0.00  0.00    +0.222 C 
ATOM      8  O   UNL     1       3.641   5.739 -10.257  0.00  0.00    -0.217 OA
ATOM      9  C   UNL     1       2.623   7.086  -8.569  0.00  0.00    +0.195 C 
ATOM     10  O   UNL     1       2.744   6.555  -7.169  0.00  0.00    -0.341 OA
BRANCH   9  11
ATOM     11  S   UNL     1       1.265   6.076  -9.494  0.00  0.00    -0.108 S 
ATOM     12  C   UNL     1       0.527   7.003 -10.755  0.00  0.00    +0.072 C 
ENDBRANCH   9  11
ENDBRANCH   1   2
BRANCH   1  13
ATOM     13  C   UNL     1       2.113   6.945  -4.822  0.00  0.00    +0.174 C 
ATOM     14  O   UNL     1       3.350   6.071  -4.623  0.00  0.00    -0.221 OA
ATOM     15  C   UNL     1       1.533   6.626  -3.287  0.00  0.00    +0.037 C 
ENDBRANCH   1  13
BRANCH   1  17
ATOM     16  C   UNL     1      -1.434   6.066  -5.621  0.00  0.00    +0.256 C 
ATOM     17  N   UNL     1      -0.161   6.680  -5.410  0.00  0.00    -0.201 NA
ATOM     18  O   UNL     1      -1.320   4.851  -5.848  0.00  0.00    -0.272 OA
BRANCH  16  23
ATOM     19  C   UNL     1      -2.897   6.195  -2.271  0.00  0.00    +0.018 C 
ATOM     20  C   UNL     1      -2.024   7.557  -2.537  0.00  0.00    +0.073 C 
ATOM     21  N   UNL     1      -1.696   7.594  -3.866  0.00  0.00    -0.265 NA
ATOM     22  C   UNL     1      -2.157   8.824  -4.515  0.00  0.00    +0.090 C 
ATOM     23  C   UNL     1      -2.608   6.481  -4.553  0.00  0.00    +0.137 C 
ATOM     24  C   UNL     1      -2.101   5.347  -3.445  0.00  0.00    +0.027 C 
BRANCH  19  25
ATOM     25  C   UNL     1      -1.851   5.735  -1.073  0.00  0.00    +0.001 C 
BRANCH  25  27
ATOM     26  C   UNL     1      -1.750   6.815   1.174  0.00  0.00    +0.000 C 
ATOM     27  C   UNL     1      -1.555   6.964  -0.285  0.00  0.00    +0.000 C 
ENDBRANCH  25  27
ENDBRANCH  19  25
ENDBRANCH  16  23
ENDBRANCH   1  17
TORSDOF 7
ENDMDL
MODEL 5
REMARK VINA RESULT:      -6.7      4.609      8.735
REMARK  Name = 
REMARK  7 active torsions:
REMARK  status: ('A' for Active; 'I' for Inactive)
REMARK    1  A    between atoms: C_2  and  C_3
REMARK    2  A    between atoms: C_3  and  C_4
REMARK    3  A    between atoms: C_6  and  C_7
REMARK    4  A    between atoms: N_9  and  C_10
REMARK    5  A    between atoms: C_10  and  C_11
REMARK    6  A    between atoms: C_10  and  C_14
REMARK    7  A    between atoms: C_16  and  S_17
REMARK                            x       y       z     vdW  Elec       q    Type
REMARK                         _______ _______ _______ _____ _____    ______ ____
ROOT
ATOM      1  C   UNL     1       3.175   5.863  -4.224  0.00  0.00    +0.155 C 
ENDROOT
BRANCH   1   2
ATOM      2  C   UNL     1       1.749   6.026  -5.171  0.00  0.00    +0.172 C 
ATOM      3  C   UNL     1       1.742   4.396  -5.743  0.00  0.00    +0.213 C 
ATOM      4  O   UNL     1       3.135   4.015  -5.231  0.00  0.00    -0.218 OA
ATOM      5  C   UNL     1       2.252   4.390  -7.393  0.00  0.00    +0.218 C 
ATOM      6  O   UNL     1       3.674   4.931  -7.162  0.00  0.00    -0.217 OA
ATOM      7  C   UNL     1       1.751   5.837  -8.203  0.00  0.00    +0.222 C 
ATOM      8  O   UNL     1       0.456   5.235  -8.757  0.00  0.00    -0.217 OA
ATOM      9  C   UNL     1       1.001   6.717  -6.968  0.00  0.00    +0.195 C 
ATOM     10  O   UNL     1       2.382   6.552  -6.399  0.00  0.00    -0.341 OA
BRANCH   9  11
ATOM     11  S   UNL     1      -0.111   5.287  -6.305  0.00  0.00    -0.108 S 
ATOM     12  C   UNL     1      -1.774   5.758  -6.219  0.00  0.00    +0.072 C 
ENDBRANCH   9  11
ENDBRANCH   1   2
BRANCH   1  13
ATOM     13  C   UNL     1       3.597   7.527  -4.119  0.00  0.00    +0.174 C 
ATOM     14  O   UNL     1       4.078   7.721  -5.556  0.00  0.00    -0.221 OA
ATOM     15  C   UNL     1       5.139   7.221  -3.552  0.00  0.00    +0.037 C 
ENDBRANCH   1  13
BRANCH   1  17
ATOM     16  C   UNL     1       2.709   5.067  -1.841  0.00  0.00    +0.256 C 
ATOM     17  N   UNL     1       2.332   5.940  -2.908  0.00  0.00    -0.201 NA
ATOM     18  O   UNL     1       3.724   4.412  -2.126  0.00  0.00    -0.272 OA
BRANCH  16  23
ATOM     19  C   UNL     1       3.509   7.700   0.568  0.00  0.00    +0.018 C 
ATOM     20  C   UNL     1       2.023   7.976  -0.067  0.00  0.00    +0.073 C 
ATOM     21  N   UNL     1       1.652   6.862  -0.770  0.00  0.00    -0.265 NA
ATOM     22  C   UNL     1       0.377   6.312  -0.302  0.00  0.00    +0.090 C 
ATOM     23  C   UNL     1       2.692   5.731  -0.341  0.00  0.00    +0.137 C 
ATOM     24  C   UNL     1       3.970   6.738  -0.694  0.00  0.00    +0.027 C 
BRANCH  19  25
ATOM     25  C   UNL     1       4.088   9.085  -0.131  0.00  0.00    +0.001 C 
BRANCH  25  27
ATOM     26  C   UNL     1       3.428  11.480  -0.359  0.00  0.00    +0.000 C 
ATOM     27  C   UNL     1       3.030  10.117   0.054  0.00  0.00    +0.000 C 
ENDBRANCH  25  27
ENDBRANCH  19  25
ENDBRANCH  16  23
ENDBRANCH   1  17
TORSDOF 7
ENDMDL
MODEL 6
REMARK VINA RESULT:      -6.6      4.084      9.078
REMARK  Name = 
REMARK  7 active torsions:
REMARK  status: ('A' for Active; 'I' for Inactive)
REMARK    1  A    between atoms: C_2  and  C_3
REMARK    2  A    between atoms: C_3  and  C_4
REMARK    3  A    between atoms: C_6  and  C_7
REMARK    4  A    between atoms: N_9  and  C_10
REMARK    5  A    between atoms: C_10  and  C_11
REMARK    6  A    between atoms: C_10  and  C_14
REMARK    7  A    between atoms: C_16  and  S_17
REMARK                            x       y       z     vdW  Elec       q    Type
REMARK                         _______ _______ _______ _____ _____    ______ ____
ROOT
ATOM      1  C   UNL     1       0.333   6.126  -6.273  0.00  0.00    +0.155 C 
ENDROOT
BRANCH   1   2
ATOM      2  C   UNL     1       1.932   5.529  -6.490  0.00  0.00    +0.172 C 
ATOM      3  C   UNL     1       2.655   7.079  -6.733  0.00  0.00    +0.213 C 
ATOM      4  O   UNL     1       1.351   7.876  -6.849  0.00  0.00    -0.218 OA
ATOM      5  C   UNL     1       3.017   7.260  -8.412  0.00  0.00    +0.218 C 
ATOM      6  O   UNL     1       1.570   7.194  -8.933  0.00  0.00    -0.217 OA
ATOM      7  C   UNL     1       3.425   5.738  -9.128  0.00  0.00    +0.222 C 
ATOM      8  O   UNL     1       4.936   5.905  -8.939  0.00  0.00    -0.217 OA
ATOM      9  C   UNL     1       3.223   4.654  -7.844  0.00  0.00    +0.195 C 
ATOM     10  O   UNL     1       1.843   5.242  -7.937  0.00  0.00    -0.341 OA
BRANCH   9  11
ATOM     11  S   UNL     1       4.228   5.654  -6.536  0.00  0.00    -0.108 S 
ATOM     12  C   UNL     1       4.701   4.663  -5.199  0.00  0.00    +0.072 C 
ENDBRANCH   9  11
ENDBRANCH   1   2
BRANCH   1  13
ATOM     13  C   UNL     1      -0.523   4.801  -6.959  0.00  0.00    +0.174 C 
ATOM     14  O   UNL     1      -0.632   5.329  -8.388  0.00  0.00    -0.221 OA
ATOM     15  C   UNL     1      -2.024   5.399  -6.531  0.00  0.00    +0.037 C 
ENDBRANCH   1  13
BRANCH   1  17
ATOM     16  C   UNL     1      -0.092   6.355  -3.763  0.00  0.00    +0.256 C 
ATOM     17  N   UNL     1       0.272   5.493  -4.843  0.00  0.00    -0.201 NA
ATOM     18  O   UNL     1      -0.372   7.495  -4.167  0.00  0.00    -0.272 OA
BRANCH  16  23
ATOM     19  C   UNL     1      -1.502   6.057  -0.402  0.00  0.00    +0.018 C 
ATOM     20  C   UNL     1      -2.371   7.150  -1.262  0.00  0.00    +0.073 C 
ATOM     21  N   UNL     1      -1.980   7.062  -2.571  0.00  0.00    -0.265 NA
ATOM     22  C   UNL     1      -3.105   6.785  -3.467  0.00  0.00    +0.090 C 
ATOM     23  C   UNL     1      -1.128   5.717  -2.664  0.00  0.00    +0.137 C 
ATOM     24  C   UNL     1      -0.180   6.200  -1.383  0.00  0.00    +0.027 C 
BRANCH  19  25
ATOM     25  C   UNL     1      -0.999   7.245   0.636  0.00  0.00    +0.001 C 
BRANCH  25  27
ATOM     26  C   UNL     1      -1.961   9.252   1.762  0.00  0.00    +0.000 C 
ATOM     27  C   UNL     1      -2.224   7.985   1.047  0.00  0.00    +0.000 C 
ENDBRANCH  25  27
ENDBRANCH  19  25
ENDBRANCH  16  23
ENDBRANCH   1  17
TORSDOF 7
ENDMDL
MODEL 7
REMARK VINA RESULT:      -6.6      2.579      7.572
REMARK  Name = 
REMARK  7 active torsions:
REMARK  status: ('A' for Active; 'I' for Inactive)
REMARK    1  A    between atoms: C_2  and  C_3
REMARK    2  A    between atoms: C_3  and  C_4
REMARK    3  A    between atoms: C_6  and  C_7
REMARK    4  A    between atoms: N_9  and  C_10
REMARK    5  A    between atoms: C_10  and  C_11
REMARK    6  A    between atoms: C_10  and  C_14
REMARK    7  A    between atoms: C_16  and  S_17
REMARK                            x       y       z     vdW  Elec       q    Type
REMARK                         _______ _______ _______ _____ _____    ______ ____
ROOT
ATOM      1  C   UNL     1       2.774   5.602  -8.092  0.00  0.00    +0.155 C 
ENDROOT
BRANCH   1   2
ATOM      2  C   UNL     1       4.093   5.940  -9.143  0.00  0.00    +0.172 C 
ATOM      3  C   UNL     1       3.252   7.112 -10.094  0.00  0.00    +0.213 C 
ATOM      4  O   UNL     1       1.856   6.849  -9.519  0.00  0.00    -0.218 OA
ATOM      5  C   UNL     1       2.853   6.401 -11.617  0.00  0.00    +0.218 C 
ATOM      6  O   UNL     1       1.925   5.297 -11.081  0.00  0.00    -0.217 OA
ATOM      7  C   UNL     1       4.059   5.258 -12.104  0.00  0.00    +0.222 C 
ATOM      8  O   UNL     1       4.854   6.258 -12.948  0.00  0.00    -0.217 OA
ATOM      9  C   UNL     1       5.133   5.266 -10.795  0.00  0.00    +0.195 C 
ATOM     10  O   UNL     1       3.859   4.850 -10.114  0.00  0.00    -0.341 OA
BRANCH   9  11
ATOM     11  S   UNL     1       5.308   7.181 -10.651  0.00  0.00    -0.108 S 
ATOM     12  C   UNL     1       6.950   7.689 -10.851  0.00  0.00    +0.072 C 
ENDBRANCH   9  11
ENDBRANCH   1   2
BRANCH   1  13
ATOM     13  C   UNL     1       3.112   3.943  -7.792  0.00  0.00    +0.174 C 
ATOM     14  O   UNL     1       2.216   3.339  -8.871  0.00  0.00    -0.221 OA
ATOM     15  C   UNL     1       1.937   3.797  -6.612  0.00  0.00    +0.037 C 
ENDBRANCH   1  13
BRANCH   1  17
ATOM     16  C   UNL     1       3.229   7.264  -6.205  0.00  0.00    +0.256 C 
ATOM     17  N   UNL     1       3.620   6.053  -6.856  0.00  0.00    -0.201 NA
ATOM     18  O   UNL     1       2.203   7.741  -6.712  0.00  0.00    -0.272 OA
BRANCH  16  23
ATOM     19  C   UNL     1       1.913   6.279  -2.938  0.00  0.00    +0.018 C 
ATOM     20  C   UNL     1       3.018   5.174  -3.435  0.00  0.00    +0.073 C 
ATOM     21  N   UNL     1       3.663   5.688  -4.528  0.00  0.00    -0.265 NA
ATOM     22  C   UNL     1       5.115   5.745  -4.336  0.00  0.00    +0.090 C 
ATOM     23  C   UNL     1       3.261   7.230  -4.565  0.00  0.00    +0.137 C 
ATOM     24  C   UNL     1       1.646   6.837  -4.470  0.00  0.00    +0.027 C 
BRANCH  19  25
ATOM     25  C   UNL     1       0.710   5.144  -3.022  0.00  0.00    +0.001 C 
BRANCH  25  27
ATOM     26  C   UNL     1       0.471   6.130  -0.744  0.00  0.00    +0.000 C 
ATOM     27  C   UNL     1      -0.173   5.386  -1.848  0.00  0.00    +0.000 C 
ENDBRANCH  25  27
ENDBRANCH  19  25
ENDBRANCH  16  23
ENDBRANCH   1  17
TORSDOF 7
ENDMDL
MODEL 8
REMARK VINA RESULT:      -6.5      2.648      7.541
REMARK  Name = 
REMARK  7 active torsions:
REMARK  status: ('A' for Active; 'I' for Inactive)
REMARK    1  A    between atoms: C_2  and  C_3
REMARK    2  A    between atoms: C_3  and  C_4
REMARK    3  A    between atoms: C_6  and  C_7
REMARK    4  A    between atoms: N_9  and  C_10
REMARK    5  A    between atoms: C_10  and  C_11
REMARK    6  A    between atoms: C_10  and  C_14
REMARK    7  A    between atoms: C_16  and  S_17
REMARK                            x       y       z     vdW  Elec       q    Type
REMARK                         _______ _______ _______ _____ _____    ______ ____
ROOT
ATOM      1  C   UNL     1       3.145   5.623  -8.171  0.00  0.00    +0.155 C 
ENDROOT
BRANCH   1   2
ATOM      2  C   UNL     1       4.487   5.856  -9.221  0.00  0.00    +0.172 C 
ATOM      3  C   UNL     1       3.824   7.227 -10.036  0.00  0.00    +0.213 C 
ATOM      4  O   UNL     1       2.412   7.126  -9.450  0.00  0.00    -0.218 OA
ATOM      5  C   UNL     1       3.301   6.734 -11.607  0.00  0.00    +0.218 C 
ATOM      6  O   UNL     1       2.222   5.737 -11.151  0.00  0.00    -0.217 OA
ATOM      7  C   UNL     1       4.311   5.473 -12.230  0.00  0.00    +0.222 C 
ATOM      8  O   UNL     1       5.239   6.417 -13.000  0.00  0.00    -0.217 OA
ATOM      9  C   UNL     1       5.390   5.193 -10.957  0.00  0.00    +0.195 C 
ATOM     10  O   UNL     1       4.077   4.912 -10.282  0.00  0.00    -0.341 OA
BRANCH   9  11
ATOM     11  S   UNL     1       5.859   7.037 -10.641  0.00  0.00    -0.108 S 
ATOM     12  C   UNL     1       7.572   7.248 -10.517  0.00  0.00    +0.072 C 
ENDBRANCH   9  11
ENDBRANCH   1   2
BRANCH   1  13
ATOM     13  C   UNL     1       3.042   3.910  -8.272  0.00  0.00    +0.174 C 
ATOM     14  O   UNL     1       1.820   3.818  -9.183  0.00  0.00    -0.221 OA
ATOM     15  C   UNL     1       2.126   3.766  -6.882  0.00  0.00    +0.037 C 
ENDBRANCH   1  13
BRANCH   1  17
ATOM     16  C   UNL     1       3.966   6.561  -5.939  0.00  0.00    +0.256 C 
ATOM     17  N   UNL     1       4.103   5.545  -6.936  0.00  0.00    -0.201 NA
ATOM     18  O   UNL     1       3.028   7.330  -6.201  0.00  0.00    -0.272 OA
BRANCH  16  23
ATOM     19  C   UNL     1       4.158   7.108  -2.328  0.00  0.00    +0.018 C 
ATOM     20  C   UNL     1       2.587   6.957  -2.773  0.00  0.00    +0.073 C 
ATOM     21  N   UNL     1       2.558   6.515  -4.068  0.00  0.00    -0.265 NA
ATOM     22  C   UNL     1       1.797   5.271  -4.211  0.00  0.00    +0.090 C 
ATOM     23  C   UNL     1       4.048   6.045  -4.385  0.00  0.00    +0.137 C 
ATOM     24  C   UNL     1       4.648   7.505  -3.855  0.00  0.00    +0.027 C 
BRANCH  19  25
ATOM     25  C   UNL     1       3.901   8.682  -1.881  0.00  0.00    +0.001 C 
BRANCH  25  27
ATOM     26  C   UNL     1       4.440   7.440   0.214  0.00  0.00    +0.000 C 
ATOM     27  C   UNL     1       3.993   8.712  -0.395  0.00  0.00    +0.000 C 
ENDBRANCH  25  27
ENDBRANCH  19  25
ENDBRANCH  16  23
ENDBRANCH   1  17
TORSDOF 7
ENDMDL
MODEL 9
REMARK VINA RESULT:      -6.5      2.879      4.655
REMARK  Name = 
REMARK  7 active torsions:
REMARK  status: ('A' for Active; 'I' for Inactive)
REMARK    1  A    between atoms: C_2  and  C_3
REMARK    2  A    between atoms: C_3  and  C_4
REMARK    3  A    between atoms: C_6  and  C_7
REMARK    4  A    between atoms: N_9  and  C_10
REMARK    5  A    between atoms: C_10  and  C_11
REMARK    6  A    between atoms: C_10  and  C_14
REMARK    7  A    between atoms: C_16  and  S_17
REMARK                            x       y       z     vdW  Elec       q    Type
REMARK                         _______ _______ _______ _____ _____    ______ ____
ROOT
ATOM      1  C   UNL     1       1.462   5.593  -5.351  0.00  0.00    +0.155 C 
ENDROOT
BRANCH   1   2
ATOM      2  C   UNL     1       2.792   6.440  -4.664  0.00  0.00    +0.172 C 
ATOM      3  C   UNL     1       3.370   5.109  -3.726  0.00  0.00    +0.213 C 
ATOM      4  O   UNL     1       2.165   4.189  -3.948  0.00  0.00    -0.218 OA
ATOM      5  C   UNL     1       2.965   5.385  -2.070  0.00  0.00    +0.218 C 
ATOM      6  O   UNL     1       1.436   5.372  -2.237  0.00  0.00    -0.217 OA
ATOM      7  C   UNL     1       2.986   7.076  -1.699  0.00  0.00    +0.222 C 
ATOM      8  O   UNL     1       4.431   7.081  -1.190  0.00  0.00    -0.217 OA
ATOM      9  C   UNL     1       3.342   7.784  -3.195  0.00  0.00    +0.195 C 
ATOM     10  O   UNL     1       2.074   7.049  -3.524  0.00  0.00    -0.341 OA
BRANCH   9  11
ATOM     11  S   UNL     1       4.840   6.650  -3.637  0.00  0.00    -0.108 S 
ATOM     12  C   UNL     1       6.216   7.575  -4.132  0.00  0.00    +0.072 C 
ENDBRANCH   9  11
ENDBRANCH   1   2
BRANCH   1  13
ATOM     13  C   UNL     1       0.463   6.945  -5.710  0.00  0.00    +0.174 C 
ATOM     14  O   UNL     1      -0.215   7.083  -4.348  0.00  0.00    -0.221 OA
ATOM     15  C   UNL     1      -0.777   6.012  -6.330  0.00  0.00    +0.037 C 
ENDBRANCH   1  13
BRANCH   1  17
ATOM     16  C   UNL     1       2.516   4.403  -7.352  0.00  0.00    +0.256 C 
ATOM     17  N   UNL     1       2.135   5.648  -6.763  0.00  0.00    -0.201 NA
ATOM     18  O   UNL     1       2.178   3.442  -6.643  0.00  0.00    -0.272 OA
BRANCH  16  23
ATOM     19  C   UNL     1       0.967   5.477 -10.486  0.00  0.00    +0.018 C 
ATOM     20  C   UNL     1       2.478   6.104 -10.383  0.00  0.00    +0.073 C 
ATOM     21  N   UNL     1       3.115   5.496  -9.335  0.00  0.00    -0.265 NA
ATOM     22  C   UNL     1       4.367   4.854  -9.746  0.00  0.00    +0.090 C 
ATOM     23  C   UNL     1       2.198   4.249  -8.954  0.00  0.00    +0.137 C 
ATOM     24  C   UNL     1       0.858   5.233  -8.856  0.00  0.00    +0.027 C 
BRANCH  19  25
ATOM     25  C   UNL     1       0.310   6.995 -10.415  0.00  0.00    +0.001 C 
BRANCH  25  27
ATOM     26  C   UNL     1       0.184   7.557 -12.843  0.00  0.00    +0.000 C 
ATOM     27  C   UNL     1      -0.545   7.135 -11.626  0.00  0.00    +0.000 C 
ENDBRANCH  25  27
ENDBRANCH  19  25
ENDBRANCH  16  23
ENDBRANCH   1  17
TORSDOF 7
ENDMDL
