MODEL 1
REMARK VINA RESULT:      -5.3      0.000      0.000
REMARK  Name = 
REMARK  11 active torsions:
REMARK  status: ('A' for Active; 'I' for Inactive)
REMARK    1  A    between atoms: C_2  and  C_4
REMARK    2  A    between atoms: C_4  and  N_5
REMARK    3  A    between atoms: N_5  and  C_6
REMARK    4  A    between atoms: N_5  and  C_17
REMARK    5  A    between atoms: C_6  and  C_7
REMARK    6  A    between atoms: C_7  and  N_8
REMARK    7  A    between atoms: N_8  and  C_9
REMARK    8  A    between atoms: N_8  and  C_13
REMARK    9  A    between atoms: C_9  and  C_10
REMARK   10  A    between atoms: C_13  and  C_14
REMARK   11  A    between atoms: C_17  and  C_18
REMARK                            x       y       z     vdW  Elec       q    Type
REMARK                         _______ _______ _______ _____ _____    ______ ____
ROOT
ATOM      1  C   UNL     1       1.020   4.438  -6.006  0.00  0.00    +0.091 C 
ENDROOT
BRANCH   1   2
ATOM      2  N   UNL     1       2.058   4.997  -6.835  0.00  0.00    -0.252 NA
BRANCH   2   3
ATOM      3  C   UNL     1       3.186   5.428  -6.015  0.00  0.00    +0.188 C 
BRANCH   3   4
ATOM      4  C   UNL     1       3.099   6.919  -5.959  0.00  0.00    +0.381 C 
ATOM      5  O   UNL     1       2.805   7.546  -7.172  0.00  0.00    -0.244 OA
ATOM      6  O   UNL     1       3.890   7.534  -5.204  0.00  0.00    -0.244 OA
ENDBRANCH   3   4
ENDBRANCH   2   3
BRANCH   2   7
ATOM      7  C   UNL     1       2.544   4.091  -7.837  0.00  0.00    +0.188 C 
BRANCH   7   9
ATOM      8  O   UNL     1       1.175   5.091  -9.447  0.00  0.00    -0.244 OA
ATOM      9  C   UNL     1       2.349   4.683  -9.198  0.00  0.00    +0.381 C 
ATOM     10  O   UNL     1       3.417   5.232  -9.906  0.00  0.00    -0.244 OA
ENDBRANCH   7   9
ENDBRANCH   2   7
ENDBRANCH   1   2
BRANCH   1  11
ATOM     11  C   UNL     1      -0.073   5.456  -5.822  0.00  0.00    +0.091 C 
BRANCH  11  12
ATOM     12  N   UNL     1      -0.656   5.427  -4.494  0.00  0.00    -0.252 NA
BRANCH  12  13
ATOM     13  C   UNL     1       0.193   6.275  -3.659  0.00  0.00    +0.188 C 
BRANCH  13  14
ATOM     14  C   UNL     1       0.961   5.481  -2.671  0.00  0.00    +0.381 C 
ATOM     15  O   UNL     1       0.334   4.611  -1.793  0.00  0.00    -0.244 OA
ATOM     16  O   UNL     1       2.213   5.618  -2.520  0.00  0.00    -0.244 OA
ENDBRANCH  13  14
ENDBRANCH  12  13
BRANCH  12  17
ATOM     17  C   UNL     1      -1.988   5.970  -4.468  0.00  0.00    +0.188 C 
BRANCH  17  18
ATOM     18  C   UNL     1      -2.675   5.782  -3.170  0.00  0.00    +0.381 C 
ATOM     19  O   UNL     1      -3.535   6.735  -2.633  0.00  0.00    -0.244 OA
ATOM     20  O   UNL     1      -2.913   4.581  -2.836  0.00  0.00    -0.244 OA
ENDBRANCH  17  18
ENDBRANCH  12  17
ENDBRANCH  11  12
ENDBRANCH   1  11
TORSDOF 11
ENDMDL
MODEL 2
REMARK VINA RESULT:      -5.3      2.237      5.537
REMARK  Name = 
REMARK  11 active torsions:
REMARK  status: ('A' for Active; 'I' for Inactive)
REMARK    1  A    between atoms: C_2  and  C_4
REMARK    2  A    between atoms: C_4  and  N_5
REMARK    3  A    between atoms: N_5  and  C_6
REMARK    4  A    between atoms: N_5  and  C_17
REMARK    5  A    between atoms: C_6  and  C_7
REMARK    6  A    between atoms: C_7  and  N_8
REMARK    7  A    between atoms: N_8  and  C_9
REMARK    8  A    between atoms: N_8  and  C_13
REMARK    9  A    between atoms: C_9  and  C_10
REMARK   10  A    between atoms: C_13  and  C_14
REMARK   11  A    between atoms: C_17  and  C_18
REMARK                            x       y       z     vdW  Elec       q    Type
REMARK                         _______ _______ _______ _____ _____    ______ ____
ROOT
ATOM      1  C   UNL     1       0.662   5.246  -3.934  0.00  0.00    +0.091 C 
ENDROOT
BRANCH   1   2
ATOM      2  N   UNL     1      -0.703   5.641  -4.177  0.00  0.00    -0.252 NA
BRANCH   2   3
ATOM      3  C   UNL     1      -1.248   6.327  -3.010  0.00  0.00    +0.188 C 
BRANCH   3   4
ATOM      4  C   UNL     1      -2.661   5.854  -2.886  0.00  0.00    +0.381 C 
ATOM      5  O   UNL     1      -3.525   6.720  -2.213  0.00  0.00    -0.244 OA
ATOM      6  O   UNL     1      -2.865   4.629  -2.707  0.00  0.00    -0.244 OA
ENDBRANCH   3   4
ENDBRANCH   2   3
BRANCH   2   7
ATOM      7  C   UNL     1      -0.860   6.495  -5.321  0.00  0.00    +0.188 C 
BRANCH   7   9
ATOM      8  O   UNL     1      -0.703   5.170  -7.242  0.00  0.00    -0.244 OA
ATOM      9  C   UNL     1      -1.504   5.736  -6.438  0.00  0.00    +0.381 C 
ATOM     10  O   UNL     1      -2.801   5.237  -6.318  0.00  0.00    -0.244 OA
ENDBRANCH   7   9
ENDBRANCH   2   7
ENDBRANCH   1   2
BRANCH   1  11
ATOM     11  C   UNL     1       1.465   6.455  -3.535  0.00  0.00    +0.091 C 
BRANCH  11  12
ATOM     12  N   UNL     1       2.877   6.167  -3.369  0.00  0.00    -0.252 NA
BRANCH  12  13
ATOM     13  C   UNL     1       3.593   7.188  -4.133  0.00  0.00    +0.188 C 
BRANCH  13  14
ATOM     14  C   UNL     1       3.683   6.839  -5.569  0.00  0.00    +0.381 C 
ATOM     15  O   UNL     1       4.484   5.800  -6.015  0.00  0.00    -0.244 OA
ATOM     16  O   UNL     1       3.102   7.520  -6.468  0.00  0.00    -0.244 OA
ENDBRANCH  13  14
ENDBRANCH  12  13
BRANCH  12  17
ATOM     17  C   UNL     1       3.299   6.262  -1.996  0.00  0.00    +0.188 C 
BRANCH  17  18
ATOM     18  C   UNL     1       3.289   4.963  -1.286  0.00  0.00    +0.381 C 
ATOM     19  O   UNL     1       4.439   4.399  -0.742  0.00  0.00    -0.244 OA
ATOM     20  O   UNL     1       2.202   4.655  -0.709  0.00  0.00    -0.244 OA
ENDBRANCH  17  18
ENDBRANCH  12  17
ENDBRANCH  11  12
ENDBRANCH   1  11
TORSDOF 11
ENDMDL
MODEL 3
REMARK VINA RESULT:      -5.3      4.495      7.272
REMARK  Name = 
REMARK  11 active torsions:
REMARK  status: ('A' for Active; 'I' for Inactive)
REMARK    1  A    between atoms: C_2  and  C_4
REMARK    2  A    between atoms: C_4  and  N_5
REMARK    3  A    between atoms: N_5  and  C_6
REMARK    4  A    between atoms: N_5  and  C_17
REMARK    5  A    between atoms: C_6  and  C_7
REMARK    6  A    between atoms: C_7  and  N_8
REMARK    7  A    between atoms: N_8  and  C_9
REMARK    8  A    between atoms: N_8  and  C_13
REMARK    9  A    between atoms: C_9  and  C_10
REMARK   10  A    between atoms: C_13  and  C_14
REMARK   11  A    between atoms: C_17  and  C_18
REMARK                            x       y       z     vdW  Elec       q    Type
REMARK                         _______ _______ _______ _____ _____    ______ ____
ROOT
ATOM      1  C   UNL     1       4.996   7.286 -11.024  0.00  0.00    +0.091 C 
ENDROOT
BRANCH   1   2
ATOM      2  N   UNL     1       5.866   6.565 -11.920  0.00  0.00    -0.252 NA
BRANCH   2   3
ATOM      3  C   UNL     1       5.549   6.894 -13.306  0.00  0.00    +0.188 C 
BRANCH   3   4
ATOM      4  C   UNL     1       4.882   5.680 -13.867  0.00  0.00    +0.381 C 
ATOM      5  O   UNL     1       3.738   5.924 -14.631  0.00  0.00    -0.244 OA
ATOM      6  O   UNL     1       4.860   4.637 -13.169  0.00  0.00    -0.244 OA
ENDBRANCH   3   4
ENDBRANCH   2   3
BRANCH   2   7
ATOM      7  C   UNL     1       7.261   6.824 -11.698  0.00  0.00    +0.188 C 
BRANCH   7   9
ATOM      8  O   UNL     1       8.101   5.150 -10.297  0.00  0.00    -0.244 OA
ATOM      9  C   UNL     1       7.993   5.534 -11.501  0.00  0.00    +0.381 C 
ATOM     10  O   UNL     1       8.067   4.583 -12.519  0.00  0.00    -0.244 OA
ENDBRANCH   7   9
ENDBRANCH   2   7
ENDBRANCH   1   2
BRANCH   1  11
ATOM     11  C   UNL     1       4.497   6.351  -9.955  0.00  0.00    +0.091 C 
BRANCH  11  12
ATOM     12  N   UNL     1       3.106   6.572  -9.612  0.00  0.00    -0.252 NA
BRANCH  12  13
ATOM     13  C   UNL     1       2.324   5.743 -10.528  0.00  0.00    +0.188 C 
BRANCH  13  14
ATOM     14  C   UNL     1       0.877   6.049 -10.450  0.00  0.00    +0.381 C 
ATOM     15  O   UNL     1      -0.069   5.050 -10.282  0.00  0.00    -0.244 OA
ATOM     16  O   UNL     1       0.425   7.223 -10.615  0.00  0.00    -0.244 OA
ENDBRANCH  13  14
ENDBRANCH  12  13
BRANCH  12  17
ATOM     17  C   UNL     1       2.799   6.161  -8.268  0.00  0.00    +0.188 C 
BRANCH  17  18
ATOM     18  C   UNL     1       2.549   7.293  -7.348  0.00  0.00    +0.381 C 
ATOM     19  O   UNL     1       3.245   7.455  -6.154  0.00  0.00    -0.244 OA
ATOM     20  O   UNL     1       2.127   8.362  -7.885  0.00  0.00    -0.244 OA
ENDBRANCH  17  18
ENDBRANCH  12  17
ENDBRANCH  11  12
ENDBRANCH   1  11
TORSDOF 11
ENDMDL
MODEL 4
REMARK VINA RESULT:      -5.3      1.626      5.705
REMARK  Name = 
REMARK  11 active torsions:
REMARK  status: ('A' for Active; 'I' for Inactive)
REMARK    1  A    between atoms: C_2  and  C_4
REMARK    2  A    between atoms: C_4  and  N_5
REMARK    3  A    between atoms: N_5  and  C_6
REMARK    4  A    between atoms: N_5  and  C_17
REMARK    5  A    between atoms: C_6  and  C_7
REMARK    6  A    between atoms: C_7  and  N_8
REMARK    7  A    between atoms: N_8  and  C_9
REMARK    8  A    between atoms: N_8  and  C_13
REMARK    9  A    between atoms: C_9  and  C_10
REMARK   10  A    between atoms: C_13  and  C_14
REMARK   11  A    between atoms: C_17  and  C_18
REMARK                            x       y       z     vdW  Elec       q    Type
REMARK                         _______ _______ _______ _____ _____    ______ ____
ROOT
ATOM      1  C   UNL     1       0.381   6.440  -3.946  0.00  0.00    +0.091 C 
ENDROOT
BRANCH   1   2
ATOM      2  N   UNL     1      -1.056   6.359  -4.025  0.00  0.00    -0.252 NA
BRANCH   2   3
ATOM      3  C   UNL     1      -1.664   7.000  -2.862  0.00  0.00    +0.188 C 
BRANCH   3   4
ATOM      4  C   UNL     1      -2.756   6.080  -2.420  0.00  0.00    +0.381 C 
ATOM      5  O   UNL     1      -2.455   4.717  -2.490  0.00  0.00    -0.244 OA
ATOM      6  O   UNL     1      -3.942   6.392  -2.686  0.00  0.00    -0.244 OA
ENDBRANCH   3   4
ENDBRANCH   2   3
BRANCH   2   7
ATOM      7  C   UNL     1      -1.601   6.958  -5.211  0.00  0.00    +0.188 C 
BRANCH   7   9
ATOM      8  O   UNL     1      -1.249   5.554  -7.048  0.00  0.00    -0.244 OA
ATOM      9  C   UNL     1      -2.075   5.891  -6.147  0.00  0.00    +0.381 C 
ATOM     10  O   UNL     1      -3.063   4.983  -5.767  0.00  0.00    -0.244 OA
ENDBRANCH   7   9
ENDBRANCH   2   7
ENDBRANCH   1   2
BRANCH   1  11
ATOM     11  C   UNL     1       0.975   5.107  -4.314  0.00  0.00    +0.091 C 
BRANCH  11  12
ATOM     12  N   UNL     1       1.945   5.196  -5.389  0.00  0.00    -0.252 NA
BRANCH  12  13
ATOM     13  C   UNL     1       3.259   5.252  -4.748  0.00  0.00    +0.188 C 
BRANCH  13  14
ATOM     14  C   UNL     1       3.955   6.529  -5.031  0.00  0.00    +0.381 C 
ATOM     15  O   UNL     1       3.435   7.459  -5.918  0.00  0.00    -0.244 OA
ATOM     16  O   UNL     1       5.095   6.799  -4.545  0.00  0.00    -0.244 OA
ENDBRANCH  13  14
ENDBRANCH  12  13
BRANCH  12  17
ATOM     17  C   UNL     1       1.920   4.042  -6.248  0.00  0.00    +0.188 C 
BRANCH  17  18
ATOM     18  C   UNL     1       2.028   4.378  -7.687  0.00  0.00    +0.381 C 
ATOM     19  O   UNL     1       2.035   5.689  -8.151  0.00  0.00    -0.244 OA
ATOM     20  O   UNL     1       2.651   3.539  -8.407  0.00  0.00    -0.244 OA
ENDBRANCH  17  18
ENDBRANCH  12  17
ENDBRANCH  11  12
ENDBRANCH   1  11
TORSDOF 11
ENDMDL
MODEL 5
REMARK VINA RESULT:      -5.3      4.376      8.725
REMARK  Name = 
REMARK  11 active torsions:
REMARK  status: ('A' for Active; 'I' for Inactive)
REMARK    1  A    between atoms: C_2  and  C_4
REMARK    2  A    between atoms: C_4  and  N_5
REMARK    3  A    between atoms: N_5  and  C_6
REMARK    4  A    between atoms: N_5  and  C_17
REMARK    5  A    between atoms: C_6  and  C_7
REMARK    6  A    between atoms: C_7  and  N_8
REMARK    7  A    between atoms: N_8  and  C_9
REMARK    8  A    between atoms: N_8  and  C_13
REMARK    9  A    between atoms: C_9  and  C_10
REMARK   10  A    between atoms: C_13  and  C_14
REMARK   11  A    between atoms: C_17  and  C_18
REMARK                            x       y       z     vdW  Elec       q    Type
REMARK                         _______ _______ _______ _____ _____    ______ ____
ROOT
ATOM      1  C   UNL     1       3.524   5.503  -9.901  0.00  0.00    +0.091 C 
ENDROOT
BRANCH   1   2
ATOM      2  N   UNL     1       2.275   5.904  -9.303  0.00  0.00    -0.252 NA
BRANCH   2   3
ATOM      3  C   UNL     1       1.197   5.021  -9.739  0.00  0.00    +0.188 C 
BRANCH   3   4
ATOM      4  C   UNL     1       0.457   5.779 -10.794  0.00  0.00    +0.381 C 
ATOM      5  O   UNL     1       0.638   5.319 -12.100  0.00  0.00    -0.244 OA
ATOM      6  O   UNL     1       0.341   7.022 -10.664  0.00  0.00    -0.244 OA
ENDBRANCH   3   4
ENDBRANCH   2   3
BRANCH   2   7
ATOM      7  C   UNL     1       2.302   5.913  -7.867  0.00  0.00    +0.188 C 
BRANCH   7   9
ATOM      8  O   UNL     1       2.058   8.238  -7.907  0.00  0.00    -0.244 OA
ATOM      9  C   UNL     1       2.683   7.273  -7.374  0.00  0.00    +0.381 C 
ATOM     10  O   UNL     1       3.242   7.451  -6.108  0.00  0.00    -0.244 OA
ENDBRANCH   7   9
ENDBRANCH   2   7
ENDBRANCH   1   2
BRANCH   1  11
ATOM     11  C   UNL     1       4.107   6.664 -10.661  0.00  0.00    +0.091 C 
BRANCH  11  12
ATOM     12  N   UNL     1       4.874   6.254 -11.822  0.00  0.00    -0.252 NA
BRANCH  12  13
ATOM     13  C   UNL     1       6.055   5.563 -11.305  0.00  0.00    +0.188 C 
BRANCH  13  14
ATOM     14  C   UNL     1       7.203   5.663 -12.236  0.00  0.00    +0.381 C 
ATOM     15  O   UNL     1       7.680   4.556 -12.921  0.00  0.00    -0.244 OA
ATOM     16  O   UNL     1       7.856   6.738 -12.390  0.00  0.00    -0.244 OA
ENDBRANCH  13  14
ENDBRANCH  12  13
BRANCH  12  17
ATOM     17  C   UNL     1       4.153   5.334 -12.660  0.00  0.00    +0.188 C 
BRANCH  17  18
ATOM     18  C   UNL     1       3.912   5.848 -14.028  0.00  0.00    +0.381 C 
ATOM     19  O   UNL     1       4.922   6.403 -14.807  0.00  0.00    -0.244 OA
ATOM     20  O   UNL     1       2.966   5.297 -14.669  0.00  0.00    -0.244 OA
ENDBRANCH  17  18
ENDBRANCH  12  17
ENDBRANCH  11  12
ENDBRANCH   1  11
TORSDOF 11
ENDMDL
MODEL 6
REMARK VINA RESULT:      -5.3      2.615      5.535
REMARK  Name = 
REMARK  11 active torsions:
REMARK  status: ('A' for Active; 'I' for Inactive)
REMARK    1  A    between atoms: C_2  and  C_4
REMARK    2  A    between atoms: C_4  and  N_5
REMARK    3  A    between atoms: N_5  and  C_6
REMARK    4  A    between atoms: N_5  and  C_17
REMARK    5  A    between atoms: C_6  and  C_7
REMARK    6  A    between atoms: C_7  and  N_8
REMARK    7  A    between atoms: N_8  and  C_9
REMARK    8  A    between atoms: N_8  and  C_13
REMARK    9  A    between atoms: C_9  and  C_10
REMARK   10  A    between atoms: C_13  and  C_14
REMARK   11  A    between atoms: C_17  and  C_18
REMARK                            x       y       z     vdW  Elec       q    Type
REMARK                         _______ _______ _______ _____ _____    ______ ____
ROOT
ATOM      1  C   UNL     1       0.455   5.304  -3.467  0.00  0.00    +0.091 C 
ENDROOT
BRANCH   1   2
ATOM      2  N   UNL     1      -0.863   5.735  -3.862  0.00  0.00    -0.252 NA
BRANCH   2   3
ATOM      3  C   UNL     1      -1.443   6.597  -2.836  0.00  0.00    +0.188 C 
BRANCH   3   4
ATOM      4  C   UNL     1      -2.720   5.936  -2.429  0.00  0.00    +0.381 C 
ATOM      5  O   UNL     1      -2.839   4.592  -2.789  0.00  0.00    -0.244 OA
ATOM      6  O   UNL     1      -3.779   6.609  -2.470  0.00  0.00    -0.244 OA
ENDBRANCH   3   4
ENDBRANCH   2   3
BRANCH   2   7
ATOM      7  C   UNL     1      -0.887   6.439  -5.113  0.00  0.00    +0.188 C 
BRANCH   7   9
ATOM      8  O   UNL     1      -2.682   5.305  -6.093  0.00  0.00    -0.244 OA
ATOM      9  C   UNL     1      -1.443   5.554  -6.185  0.00  0.00    +0.381 C 
ATOM     10  O   UNL     1      -0.828   5.458  -7.433  0.00  0.00    -0.244 OA
ENDBRANCH   7   9
ENDBRANCH   2   7
ENDBRANCH   1   2
BRANCH   1  11
ATOM     11  C   UNL     1       1.452   6.378  -3.807  0.00  0.00    +0.091 C 
BRANCH  11  12
ATOM     12  N   UNL     1       2.416   6.611  -2.748  0.00  0.00    -0.252 NA
BRANCH  12  13
ATOM     13  C   UNL     1       3.172   5.368  -2.605  0.00  0.00    +0.188 C 
BRANCH  13  14
ATOM     14  C   UNL     1       3.227   4.916  -1.195  0.00  0.00    +0.381 C 
ATOM     15  O   UNL     1       2.187   4.202  -0.620  0.00  0.00    -0.244 OA
ATOM     16  O   UNL     1       4.182   5.230  -0.422  0.00  0.00    -0.244 OA
ENDBRANCH  13  14
ENDBRANCH  12  13
BRANCH  12  17
ATOM     17  C   UNL     1       3.346   7.660  -3.073  0.00  0.00    +0.188 C 
BRANCH  17  18
ATOM     18  C   UNL     1       4.239   7.326  -4.206  0.00  0.00    +0.381 C 
ATOM     19  O   UNL     1       3.854   7.481  -5.534  0.00  0.00    -0.244 OA
ATOM     20  O   UNL     1       5.483   7.431  -3.981  0.00  0.00    -0.244 OA
ENDBRANCH  17  18
ENDBRANCH  12  17
ENDBRANCH  11  12
ENDBRANCH   1  11
TORSDOF 11
ENDMDL
MODEL 7
REMARK VINA RESULT:      -5.3      4.271      8.745
REMARK  Name = 
REMARK  11 active torsions:
REMARK  status: ('A' for Active; 'I' for Inactive)
REMARK    1  A    between atoms: C_2  and  C_4
REMARK    2  A    between atoms: C_4  and  N_5
REMARK    3  A    between atoms: N_5  and  C_6
REMARK    4  A    between atoms: N_5  and  C_17
REMARK    5  A    between atoms: C_6  and  C_7
REMARK    6  A    between atoms: C_7  and  N_8
REMARK    7  A    between atoms: N_8  and  C_9
REMARK    8  A    between atoms: N_8  and  C_13
REMARK    9  A    between atoms: C_9  and  C_10
REMARK   10  A    between atoms: C_13  and  C_14
REMARK   11  A    between atoms: C_17  and  C_18
REMARK                            x       y       z     vdW  Elec       q    Type
REMARK                         _______ _______ _______ _____ _____    ______ ____
ROOT
ATOM      1  C   UNL     1       4.512   4.670  -9.128  0.00  0.00    +0.091 C 
ENDROOT
BRANCH   1   2
ATOM      2  N   UNL     1       3.278   5.185  -8.589  0.00  0.00    -0.252 NA
BRANCH   2   3
ATOM      3  C   UNL     1       2.136   4.537  -9.227  0.00  0.00    +0.188 C 
BRANCH   3   4
ATOM      4  C   UNL     1       1.184   5.639  -9.564  0.00  0.00    +0.381 C 
ATOM      5  O   UNL     1       0.013   5.239 -10.214  0.00  0.00    -0.244 OA
ATOM      6  O   UNL     1       1.655   6.746  -9.918  0.00  0.00    -0.244 OA
ENDBRANCH   3   4
ENDBRANCH   2   3
BRANCH   2   7
ATOM      7  C   UNL     1       3.159   5.020  -7.167  0.00  0.00    +0.188 C 
BRANCH   7   9
ATOM      8  O   UNL     1       4.497   6.336  -5.772  0.00  0.00    -0.244 OA
ATOM      9  C   UNL     1       3.444   6.318  -6.479  0.00  0.00    +0.381 C 
ATOM     10  O   UNL     1       2.944   7.522  -6.972  0.00  0.00    -0.244 OA
ENDBRANCH   7   9
ENDBRANCH   2   7
ENDBRANCH   1   2
BRANCH   1  11
ATOM     11  C   UNL     1       5.371   5.816  -9.589  0.00  0.00    +0.091 C 
BRANCH  11  12
ATOM     12  N   UNL     1       5.783   5.695 -10.974  0.00  0.00    -0.252 NA
BRANCH  12  13
ATOM     13  C   UNL     1       4.776   6.405 -11.762  0.00  0.00    +0.188 C 
BRANCH  13  14
ATOM     14  C   UNL     1       4.027   5.489 -12.653  0.00  0.00    +0.381 C 
ATOM     15  O   UNL     1       4.675   4.548 -13.438  0.00  0.00    -0.244 OA
ATOM     16  O   UNL     1       2.771   5.572 -12.806  0.00  0.00    -0.244 OA
ENDBRANCH  13  14
ENDBRANCH  12  13
BRANCH  12  17
ATOM     17  C   UNL     1       7.059   6.311 -11.224  0.00  0.00    +0.188 C 
BRANCH  17  18
ATOM     18  C   UNL     1       8.032   5.406 -11.877  0.00  0.00    +0.381 C 
ATOM     19  O   UNL     1       7.677   4.546 -12.910  0.00  0.00    -0.244 OA
ATOM     20  O   UNL     1       9.238   5.800 -11.882  0.00  0.00    -0.244 OA
ENDBRANCH  17  18
ENDBRANCH  12  17
ENDBRANCH  11  12
ENDBRANCH   1  11
TORSDOF 11
ENDMDL
MODEL 8
REMARK VINA RESULT:      -5.3      2.517      4.812
REMARK  Name = 
REMARK  11 active torsions:
REMARK  status: ('A' for Active; 'I' for Inactive)
REMARK    1  A    between atoms: C_2  and  C_4
REMARK    2  A    between atoms: C_4  and  N_5
REMARK    3  A    between atoms: N_5  and  C_6
REMARK    4  A    between atoms: N_5  and  C_17
REMARK    5  A    between atoms: C_6  and  C_7
REMARK    6  A    between atoms: C_7  and  N_8
REMARK    7  A    between atoms: N_8  and  C_9
REMARK    8  A    between atoms: N_8  and  C_13
REMARK    9  A    between atoms: C_9  and  C_10
REMARK   10  A    between atoms: C_13  and  C_14
REMARK   11  A    between atoms: C_17  and  C_18
REMARK                            x       y       z     vdW  Elec       q    Type
REMARK                         _______ _______ _______ _____ _____    ______ ____
ROOT
ATOM      1  C   UNL     1       1.644   6.586  -4.035  0.00  0.00    +0.091 C 
ENDROOT
BRANCH   1   2
ATOM      2  N   UNL     1       2.827   6.340  -3.249  0.00  0.00    -0.252 NA
BRANCH   2   3
ATOM      3  C   UNL     1       3.954   7.104  -3.777  0.00  0.00    +0.188 C 
BRANCH   3   4
ATOM      4  C   UNL     1       4.796   6.117  -4.520  0.00  0.00    +0.381 C 
ATOM      5  O   UNL     1       4.646   6.128  -5.908  0.00  0.00    -0.244 OA
ATOM      6  O   UNL     1       4.994   4.992  -4.000  0.00  0.00    -0.244 OA
ENDBRANCH   3   4
ENDBRANCH   2   3
BRANCH   2   7
ATOM      7  C   UNL     1       2.670   6.664  -1.858  0.00  0.00    +0.188 C 
BRANCH   7   9
ATOM      8  O   UNL     1       3.974   5.569  -0.255  0.00  0.00    -0.244 OA
ATOM      9  C   UNL     1       2.968   5.461  -1.019  0.00  0.00    +0.381 C 
ATOM     10  O   UNL     1       1.970   4.545  -0.691  0.00  0.00    -0.244 OA
ENDBRANCH   7   9
ENDBRANCH   2   7
ENDBRANCH   1   2
BRANCH   1  11
ATOM     11  C   UNL     1       0.802   5.338  -4.071  0.00  0.00    +0.091 C 
BRANCH  11  12
ATOM     12  N   UNL     1      -0.616   5.615  -4.195  0.00  0.00    -0.252 NA
BRANCH  12  13
ATOM     13  C   UNL     1      -1.005   6.307  -2.967  0.00  0.00    +0.188 C 
BRANCH  13  14
ATOM     14  C   UNL     1      -2.353   5.897  -2.508  0.00  0.00    +0.381 C 
ATOM     15  O   UNL     1      -3.284   6.826  -2.072  0.00  0.00    -0.244 OA
ATOM     16  O   UNL     1      -2.693   4.680  -2.410  0.00  0.00    -0.244 OA
ENDBRANCH  13  14
ENDBRANCH  12  13
BRANCH  12  17
ATOM     17  C   UNL     1      -0.912   6.481  -5.305  0.00  0.00    +0.188 C 
BRANCH  17  18
ATOM     18  C   UNL     1      -1.577   5.788  -6.432  0.00  0.00    +0.381 C 
ATOM     19  O   UNL     1      -0.867   5.221  -7.485  0.00  0.00    -0.244 OA
ATOM     20  O   UNL     1      -2.693   5.245  -6.168  0.00  0.00    -0.244 OA
ENDBRANCH  17  18
ENDBRANCH  12  17
ENDBRANCH  11  12
ENDBRANCH   1  11
TORSDOF 11
ENDMDL
MODEL 9
REMARK VINA RESULT:      -5.3      1.755      2.693
REMARK  Name = 
REMARK  11 active torsions:
REMARK  status: ('A' for Active; 'I' for Inactive)
REMARK    1  A    between atoms: C_2  and  C_4
REMARK    2  A    between atoms: C_4  and  N_5
REMARK    3  A    between atoms: N_5  and  C_6
REMARK    4  A    between atoms: N_5  and  C_17
REMARK    5  A    between atoms: C_6  and  C_7
REMARK    6  A    between atoms: C_7  and  N_8
REMARK    7  A    between atoms: N_8  and  C_9
REMARK    8  A    between atoms: N_8  and  C_13
REMARK    9  A    between atoms: C_9  and  C_10
REMARK   10  A    between atoms: C_13  and  C_14
REMARK   11  A    between atoms: C_17  and  C_18
REMARK                            x       y       z     vdW  Elec       q    Type
REMARK                         _______ _______ _______ _____ _____    ______ ____
ROOT
ATOM      1  C   UNL     1       1.305   4.820  -5.268  0.00  0.00    +0.091 C 
ENDROOT
BRANCH   1   2
ATOM      2  N   UNL     1       1.937   5.714  -6.206  0.00  0.00    -0.252 NA
BRANCH   2   3
ATOM      3  C   UNL     1       3.215   5.163  -6.648  0.00  0.00    +0.188 C 
BRANCH   3   4
ATOM      4  C   UNL     1       4.249   5.784  -5.765  0.00  0.00    +0.381 C 
ATOM      5  O   UNL     1       4.790   4.939  -4.792  0.00  0.00    -0.244 OA
ATOM      6  O   UNL     1       4.101   6.983  -5.426  0.00  0.00    -0.244 OA
ENDBRANCH   3   4
ENDBRANCH   2   3
BRANCH   2   7
ATOM      7  C   UNL     1       1.137   5.991  -7.365  0.00  0.00    +0.188 C 
BRANCH   7   9
ATOM      8  O   UNL     1       1.704   6.846  -9.467  0.00  0.00    -0.244 OA
ATOM      9  C   UNL     1       1.812   7.021  -8.216  0.00  0.00    +0.381 C 
ATOM     10  O   UNL     1       2.055   8.307  -7.735  0.00  0.00    -0.244 OA
ENDBRANCH   7   9
ENDBRANCH   2   7
ENDBRANCH   1   2
BRANCH   1  11
ATOM     11  C   UNL     1       1.049   5.552  -3.978  0.00  0.00    +0.091 C 
BRANCH  11  12
ATOM     12  N   UNL     1      -0.362   5.741  -3.704  0.00  0.00    -0.252 NA
BRANCH  12  13
ATOM     13  C   UNL     1      -0.483   5.852  -2.250  0.00  0.00    +0.188 C 
BRANCH  13  14
ATOM     14  C   UNL     1      -1.896   5.804  -1.810  0.00  0.00    +0.381 C 
ATOM     15  O   UNL     1      -2.427   6.768  -0.966  0.00  0.00    -0.244 OA
ATOM     16  O   UNL     1      -2.666   4.842  -2.110  0.00  0.00    -0.244 OA
ENDBRANCH  13  14
ENDBRANCH  12  13
BRANCH  12  17
ATOM     17  C   UNL     1      -0.879   6.951  -4.285  0.00  0.00    +0.188 C 
BRANCH  17  18
ATOM     18  C   UNL     1      -1.913   6.714  -5.318  0.00  0.00    +0.381 C 
ATOM     19  O   UNL     1      -2.282   5.436  -5.728  0.00  0.00    -0.244 OA
ATOM     20  O   UNL     1      -2.815   7.601  -5.414  0.00  0.00    -0.244 OA
ENDBRANCH  17  18
ENDBRANCH  12  17
ENDBRANCH  11  12
ENDBRANCH   1  11
TORSDOF 11
ENDMDL
