MODEL 1
REMARK VINA RESULT:      -6.9      0.000      0.000
REMARK  Name = 
REMARK  2 active torsions:
REMARK  status: ('A' for Active; 'I' for Inactive)
REMARK    1  A    between atoms: C_8  and  N_9
REMARK    2  A    between atoms: C_10  and  C_12
REMARK                            x       y       z     vdW  Elec       q    Type
REMARK                         _______ _______ _______ _____ _____    ______ ____
ROOT
ATOM      1  N   UNL     1       2.589   5.386 -10.619  0.00  0.00    -0.179 NA
ATOM      2  C   UNL     1       3.711   6.106 -10.227  0.00  0.00    +0.260 C 
ATOM      3  O   UNL     1       3.554   7.124  -9.576  0.00  0.00    -0.272 OA
ENDROOT
BRANCH   1   6
ATOM      4  C   UNL     1       0.002   5.762  -9.629  0.00  0.00    +0.032 C 
ATOM      5  C   UNL     1       0.361   6.420 -10.610  0.00  0.00    -0.007 A 
ATOM      6  C   UNL     1       1.522   6.040 -11.270  0.00  0.00    +0.065 A 
ATOM      7  C   UNL     1       1.685   6.202 -12.644  0.00  0.00    -0.007 A 
ATOM      8  C   UNL     1       2.629   5.349 -13.434  0.00  0.00    +0.032 C 
ATOM      9  C   UNL     1       0.850   7.082 -13.315  0.00  0.00    -0.003 A 
ATOM     10  C   UNL     1      -0.098   7.760 -12.587  0.00  0.00    -0.001 A 
ATOM     11  C   UNL     1      -0.394   7.371 -11.288  0.00  0.00    -0.003 A 
ENDBRANCH   1   6
BRANCH   2  12
ATOM     12  C   UNL     1       5.108   5.839 -10.981  0.00  0.00    +0.137 C 
ATOM     13  N   UNL     1       5.846   5.562  -9.633  0.00  0.00    -0.265 NA
ATOM     14  C   UNL     1       5.147   4.731  -8.813  0.00  0.00    +0.090 C 
ATOM     15  C   UNL     1       6.899   6.347  -9.371  0.00  0.00    +0.073 C 
ATOM     16  C   UNL     1       7.770   6.669 -10.569  0.00  0.00    +0.017 C 
ATOM     17  C   UNL     1       6.919   7.495 -11.526  0.00  0.00    +0.003 C 
ATOM     18  C   UNL     1       5.516   7.436 -11.001  0.00  0.00    +0.025 C 
ENDBRANCH   2  12
TORSDOF 2
ENDMDL
MODEL 2
REMARK VINA RESULT:      -6.9      4.988      6.724
REMARK  Name = 
REMARK  2 active torsions:
REMARK  status: ('A' for Active; 'I' for Inactive)
REMARK    1  A    between atoms: C_8  and  N_9
REMARK    2  A    between atoms: C_10  and  C_12
REMARK                            x       y       z     vdW  Elec       q    Type
REMARK                         _______ _______ _______ _____ _____    ______ ____
ROOT
ATOM      1  N   UNL     1       0.175   5.058  -5.068  0.00  0.00    -0.179 NA
ATOM      2  C   UNL     1       1.274   5.701  -5.626  0.00  0.00    +0.260 C 
ATOM      3  O   UNL     1       1.971   6.394  -4.907  0.00  0.00    -0.272 OA
ENDROOT
BRANCH   1   6
ATOM      4  C   UNL     1      -0.046   5.075  -2.282  0.00  0.00    +0.032 C 
ATOM      5  C   UNL     1      -0.627   5.953  -2.926  0.00  0.00    -0.007 A 
ATOM      6  C   UNL     1      -0.756   5.788  -4.299  0.00  0.00    +0.065 A 
ATOM      7  C   UNL     1      -1.858   6.261  -5.007  0.00  0.00    -0.007 A 
ATOM      8  C   UNL     1      -2.282   5.654  -6.308  0.00  0.00    +0.032 C 
ATOM      9  C   UNL     1      -2.661   7.227  -4.421  0.00  0.00    -0.003 A 
ATOM     10  C   UNL     1      -2.326   7.677  -3.167  0.00  0.00    -0.001 A 
ATOM     11  C   UNL     1      -1.388   6.993  -2.405  0.00  0.00    -0.003 A 
ENDBRANCH   1   6
BRANCH   2  12
ATOM     12  C   UNL     1       1.346   5.869  -7.225  0.00  0.00    +0.137 C 
ATOM     13  N   UNL     1       2.527   4.854  -7.335  0.00  0.00    -0.265 NA
ATOM     14  C   UNL     1       2.318   3.725  -6.604  0.00  0.00    +0.090 C 
ATOM     15  C   UNL     1       3.648   5.320  -7.900  0.00  0.00    +0.073 C 
ATOM     16  C   UNL     1       3.431   6.240  -9.084  0.00  0.00    +0.017 C 
ATOM     17  C   UNL     1       2.735   7.488  -8.554  0.00  0.00    +0.003 C 
ATOM     18  C   UNL     1       2.339   7.182  -7.141  0.00  0.00    +0.025 C 
ENDBRANCH   2  12
TORSDOF 2
ENDMDL
MODEL 3
REMARK VINA RESULT:      -6.7      6.359      9.293
REMARK  Name = 
REMARK  2 active torsions:
REMARK  status: ('A' for Active; 'I' for Inactive)
REMARK    1  A    between atoms: C_8  and  N_9
REMARK    2  A    between atoms: C_10  and  C_12
REMARK                            x       y       z     vdW  Elec       q    Type
REMARK                         _______ _______ _______ _____ _____    ______ ____
ROOT
ATOM      1  N   UNL     1       2.368   5.488  -3.641  0.00  0.00    -0.179 NA
ATOM      2  C   UNL     1       1.464   6.000  -4.564  0.00  0.00    +0.260 C 
ATOM      3  O   UNL     1       1.737   7.043  -5.132  0.00  0.00    -0.272 OA
ENDROOT
BRANCH   1   6
ATOM      4  C   UNL     1       4.894   6.680  -3.533  0.00  0.00    +0.032 C 
ATOM      5  C   UNL     1       4.019   7.077  -2.758  0.00  0.00    -0.007 A 
ATOM      6  C   UNL     1       2.870   6.311  -2.612  0.00  0.00    +0.065 A 
ATOM      7  C   UNL     1       2.174   6.234  -1.408  0.00  0.00    -0.007 A 
ATOM      8  C   UNL     1       1.312   5.059  -1.067  0.00  0.00    +0.032 C 
ATOM      9  C   UNL     1       2.397   7.208  -0.447  0.00  0.00    -0.003 A 
ATOM     10  C   UNL     1       3.293   8.209  -0.731  0.00  0.00    -0.001 A 
ATOM     11  C   UNL     1       4.148   8.095  -1.820  0.00  0.00    -0.003 A 
ENDBRANCH   1   6
BRANCH   2  12
ATOM     12  C   UNL     1      -0.056   5.470  -4.539  0.00  0.00    +0.137 C 
ATOM     13  N   UNL     1       0.065   4.886  -5.982  0.00  0.00    -0.265 NA
ATOM     14  C   UNL     1       1.212   4.178  -6.167  0.00  0.00    +0.090 C 
ATOM     15  C   UNL     1      -0.813   5.355  -6.878  0.00  0.00    +0.073 C 
ATOM     16  C   UNL     1      -2.216   5.567  -6.346  0.00  0.00    +0.017 C 
ATOM     17  C   UNL     1      -2.131   6.669  -5.297  0.00  0.00    +0.003 C 
ATOM     18  C   UNL     1      -0.671   6.909  -5.055  0.00  0.00    +0.025 C 
ENDBRANCH   2  12
TORSDOF 2
ENDMDL
MODEL 4
REMARK VINA RESULT:      -6.6      5.782      8.711
REMARK  Name = 
REMARK  2 active torsions:
REMARK  status: ('A' for Active; 'I' for Inactive)
REMARK    1  A    between atoms: C_8  and  N_9
REMARK    2  A    between atoms: C_10  and  C_12
REMARK                            x       y       z     vdW  Elec       q    Type
REMARK                         _______ _______ _______ _____ _____    ______ ____
ROOT
ATOM      1  N   UNL     1       1.732   7.076  -3.786  0.00  0.00    -0.179 NA
ATOM      2  C   UNL     1       0.542   6.391  -4.000  0.00  0.00    +0.260 C 
ATOM      3  O   UNL     1       0.365   5.333  -3.422  0.00  0.00    -0.272 OA
ENDROOT
BRANCH   1   6
ATOM      4  C   UNL     1       3.602   6.589  -1.766  0.00  0.00    +0.032 C 
ATOM      5  C   UNL     1       3.706   5.972  -2.830  0.00  0.00    -0.007 A 
ATOM      6  C   UNL     1       2.966   6.408  -3.921  0.00  0.00    +0.065 A 
ATOM      7  C   UNL     1       3.430   6.292  -5.230  0.00  0.00    -0.007 A 
ATOM      8  C   UNL     1       2.950   7.198  -6.321  0.00  0.00    +0.032 C 
ATOM      9  C   UNL     1       4.462   5.405  -5.495  0.00  0.00    -0.003 A 
ATOM     10  C   UNL     1       4.977   4.677  -4.450  0.00  0.00    -0.001 A 
ATOM     11  C   UNL     1       4.669   5.018  -3.140  0.00  0.00    -0.003 A 
ENDBRANCH   1   6
BRANCH   2  12
ATOM     12  C   UNL     1      -0.348   6.764  -5.288  0.00  0.00    +0.137 C 
ATOM     13  N   UNL     1      -1.678   6.585  -4.490  0.00  0.00    -0.265 NA
ATOM     14  C   UNL     1      -1.645   7.190  -3.272  0.00  0.00    +0.090 C 
ATOM     15  C   UNL     1      -2.539   5.684  -4.982  0.00  0.00    +0.073 C 
ATOM     16  C   UNL     1      -2.645   5.661  -6.494  0.00  0.00    +0.017 C 
ATOM     17  C   UNL     1      -1.290   5.211  -7.027  0.00  0.00    +0.003 C 
ATOM     18  C   UNL     1      -0.354   5.216  -5.856  0.00  0.00    +0.025 C 
ENDBRANCH   2  12
TORSDOF 2
ENDMDL
MODEL 5
REMARK VINA RESULT:      -6.6      6.532      7.740
REMARK  Name = 
REMARK  2 active torsions:
REMARK  status: ('A' for Active; 'I' for Inactive)
REMARK    1  A    between atoms: C_8  and  N_9
REMARK    2  A    between atoms: C_10  and  C_12
REMARK                            x       y       z     vdW  Elec       q    Type
REMARK                         _______ _______ _______ _____ _____    ______ ____
ROOT
ATOM      1  N   UNL     1       0.483   5.012  -3.094  0.00  0.00    -0.179 NA
ATOM      2  C   UNL     1       1.597   5.778  -2.773  0.00  0.00    +0.260 C 
ATOM      3  O   UNL     1       1.441   6.784  -2.104  0.00  0.00    -0.272 OA
ENDROOT
BRANCH   1   6
ATOM      4  C   UNL     1      -1.989   5.426  -1.857  0.00  0.00    +0.032 C 
ATOM      5  C   UNL     1      -1.743   6.030  -2.905  0.00  0.00    -0.007 A 
ATOM      6  C   UNL     1      -0.654   5.621  -3.663  0.00  0.00    +0.065 A 
ATOM      7  C   UNL     1      -0.640   5.707  -5.053  0.00  0.00    -0.007 A 
ATOM      8  C   UNL     1       0.225   4.817  -5.891  0.00  0.00    +0.032 C 
ATOM      9  C   UNL     1      -1.551   6.543  -5.678  0.00  0.00    -0.003 A 
ATOM     10  C   UNL     1      -2.426   7.254  -4.893  0.00  0.00    -0.001 A 
ATOM     11  C   UNL     1      -2.577   6.937  -3.550  0.00  0.00    -0.003 A 
ENDBRANCH   1   6
BRANCH   2  12
ATOM     12  C   UNL     1       2.948   5.579  -3.625  0.00  0.00    +0.137 C 
ATOM     13  N   UNL     1       3.843   5.843  -2.373  0.00  0.00    -0.265 NA
ATOM     14  C   UNL     1       3.420   5.163  -1.273  0.00  0.00    +0.090 C 
ATOM     15  C   UNL     1       4.712   6.856  -2.478  0.00  0.00    +0.073 C 
ATOM     16  C   UNL     1       5.383   6.984  -3.831  0.00  0.00    +0.017 C 
ATOM     17  C   UNL     1       4.290   7.325  -4.837  0.00  0.00    +0.003 C 
ATOM     18  C   UNL     1       2.986   7.152  -4.118  0.00  0.00    +0.025 C 
ENDBRANCH   2  12
TORSDOF 2
ENDMDL
MODEL 6
REMARK VINA RESULT:      -6.5      4.081      6.241
REMARK  Name = 
REMARK  2 active torsions:
REMARK  status: ('A' for Active; 'I' for Inactive)
REMARK    1  A    between atoms: C_8  and  N_9
REMARK    2  A    between atoms: C_10  and  C_12
REMARK                            x       y       z     vdW  Elec       q    Type
REMARK                         _______ _______ _______ _____ _____    ______ ____
ROOT
ATOM      1  N   UNL     1       0.256   4.945  -6.029  0.00  0.00    -0.179 NA
ATOM      2  C   UNL     1       1.010   5.518  -7.047  0.00  0.00    +0.260 C 
ATOM      3  O   UNL     1       1.738   6.456  -6.777  0.00  0.00    -0.272 OA
ENDROOT
BRANCH   1   6
ATOM      4  C   UNL     1       0.564   5.326  -3.277  0.00  0.00    +0.032 C 
ATOM      5  C   UNL     1      -0.159   6.105  -3.905  0.00  0.00    -0.007 A 
ATOM      6  C   UNL     1      -0.539   5.759  -5.195  0.00  0.00    +0.065 A 
ATOM      7  C   UNL     1      -1.772   6.121  -5.731  0.00  0.00    -0.007 A 
ATOM      8  C   UNL     1      -2.411   5.343  -6.840  0.00  0.00    +0.032 C 
ATOM      9  C   UNL     1      -2.485   7.146  -5.130  0.00  0.00    -0.003 A 
ATOM     10  C   UNL     1      -1.936   7.761  -4.031  0.00  0.00    -0.001 A 
ATOM     11  C   UNL     1      -0.847   7.195  -3.383  0.00  0.00    -0.003 A 
ENDBRANCH   1   6
BRANCH   2  12
ATOM     12  C   UNL     1       0.592   5.235  -8.576  0.00  0.00    +0.137 C 
ATOM     13  N   UNL     1       2.016   4.698  -8.923  0.00  0.00    -0.265 NA
ATOM     14  C   UNL     1       2.490   3.825  -7.993  0.00  0.00    +0.090 C 
ATOM     15  C   UNL     1       2.657   5.336  -9.912  0.00  0.00    +0.073 C 
ATOM     16  C   UNL     1       1.782   5.747 -11.079  0.00  0.00    +0.017 C 
ATOM     17  C   UNL     1       0.793   6.778 -10.550  0.00  0.00    +0.003 C 
ATOM     18  C   UNL     1       0.936   6.774  -9.057  0.00  0.00    +0.025 C 
ENDBRANCH   2  12
TORSDOF 2
ENDMDL
MODEL 7
REMARK VINA RESULT:      -6.4      4.282      7.372
REMARK  Name = 
REMARK  2 active torsions:
REMARK  status: ('A' for Active; 'I' for Inactive)
REMARK    1  A    between atoms: C_8  and  N_9
REMARK    2  A    between atoms: C_10  and  C_12
REMARK                            x       y       z     vdW  Elec       q    Type
REMARK                         _______ _______ _______ _____ _____    ______ ____
ROOT
ATOM      1  N   UNL     1       2.476   6.575  -5.522  0.00  0.00    -0.179 NA
ATOM      2  C   UNL     1       1.304   5.850  -5.348  0.00  0.00    +0.260 C 
ATOM      3  O   UNL     1       1.361   4.633  -5.369  0.00  0.00    -0.272 OA
ENDROOT
BRANCH   1   6
ATOM      4  C   UNL     1       5.091   5.593  -5.406  0.00  0.00    +0.032 C 
ATOM      5  C   UNL     1       4.495   5.564  -6.487  0.00  0.00    -0.007 A 
ATOM      6  C   UNL     1       3.323   6.297  -6.615  0.00  0.00    +0.065 A 
ATOM      7  C   UNL     1       2.940   6.884  -7.819  0.00  0.00    -0.007 A 
ATOM      8  C   UNL     1       2.034   8.075  -7.864  0.00  0.00    +0.032 C 
ATOM      9  C   UNL     1       3.522   6.436  -8.994  0.00  0.00    -0.003 A 
ATOM     10  C   UNL     1       4.451   5.427  -8.915  0.00  0.00    -0.001 A 
ATOM     11  C   UNL     1       4.988   5.064  -7.687  0.00  0.00    -0.003 A 
ENDBRANCH   1   6
BRANCH   2  12
ATOM     12  C   UNL     1      -0.108   6.594  -5.558  0.00  0.00    +0.137 C 
ATOM     13  N   UNL     1      -0.606   6.169  -4.140  0.00  0.00    -0.265 NA
ATOM     14  C   UNL     1       0.329   6.371  -3.173  0.00  0.00    +0.090 C 
ATOM     15  C   UNL     1      -1.739   5.456  -4.107  0.00  0.00    +0.073 C 
ATOM     16  C   UNL     1      -2.800   5.897  -5.096  0.00  0.00    +0.017 C 
ATOM     17  C   UNL     1      -2.240   5.643  -6.490  0.00  0.00    +0.003 C 
ATOM     18  C   UNL     1      -0.793   5.295  -6.307  0.00  0.00    +0.025 C 
ENDBRANCH   2  12
TORSDOF 2
ENDMDL
MODEL 8
REMARK VINA RESULT:      -6.2      3.514      5.874
REMARK  Name = 
REMARK  2 active torsions:
REMARK  status: ('A' for Active; 'I' for Inactive)
REMARK    1  A    between atoms: C_8  and  N_9
REMARK    2  A    between atoms: C_10  and  C_12
REMARK                            x       y       z     vdW  Elec       q    Type
REMARK                         _______ _______ _______ _____ _____    ______ ____
ROOT
ATOM      1  N   UNL     1       3.711   5.701  -7.132  0.00  0.00    -0.179 NA
ATOM      2  C   UNL     1       3.121   6.278  -8.250  0.00  0.00    +0.260 C 
ATOM      3  O   UNL     1       2.838   7.462  -8.215  0.00  0.00    -0.272 OA
ENDROOT
BRANCH   1   6
ATOM      4  C   UNL     1       4.806   7.078  -4.960  0.00  0.00    +0.032 C 
ATOM      5  C   UNL     1       3.607   6.786  -4.932  0.00  0.00    -0.007 A 
ATOM      6  C   UNL     1       3.129   5.869  -5.859  0.00  0.00    +0.065 A 
ATOM      7  C   UNL     1       2.089   4.989  -5.568  0.00  0.00    -0.007 A 
ATOM      8  C   UNL     1       1.928   3.690  -6.294  0.00  0.00    +0.032 C 
ATOM      9  C   UNL     1       1.267   5.264  -4.487  0.00  0.00    -0.003 A 
ATOM     10  C   UNL     1       1.515   6.398  -3.753  0.00  0.00    -0.001 A 
ATOM     11  C   UNL     1       2.707   7.091  -3.917  0.00  0.00    -0.003 A 
ENDBRANCH   1   6
BRANCH   2  12
ATOM     12  C   UNL     1       2.446   5.320  -9.354  0.00  0.00    +0.137 C 
ATOM     13  N   UNL     1       3.433   5.806 -10.461  0.00  0.00    -0.265 NA
ATOM     14  C   UNL     1       4.725   5.839 -10.035  0.00  0.00    +0.090 C 
ATOM     15  C   UNL     1       2.870   6.347 -11.550  0.00  0.00    +0.073 C 
ATOM     16  C   UNL     1       1.605   5.661 -12.022  0.00  0.00    +0.017 C 
ATOM     17  C   UNL     1       0.561   5.855 -10.928  0.00  0.00    +0.003 C 
ATOM     18  C   UNL     1       1.288   6.425  -9.748  0.00  0.00    +0.025 C 
ENDBRANCH   2  12
TORSDOF 2
ENDMDL
MODEL 9
REMARK VINA RESULT:      -6.2      1.553      2.965
REMARK  Name = 
REMARK  2 active torsions:
REMARK  status: ('A' for Active; 'I' for Inactive)
REMARK    1  A    between atoms: C_8  and  N_9
REMARK    2  A    between atoms: C_10  and  C_12
REMARK                            x       y       z     vdW  Elec       q    Type
REMARK                         _______ _______ _______ _____ _____    ______ ____
ROOT
ATOM      1  N   UNL     1       2.883   6.932 -11.561  0.00  0.00    -0.179 NA
ATOM      2  C   UNL     1       4.130   6.324 -11.479  0.00  0.00    +0.260 C 
ATOM      3  O   UNL     1       4.313   5.284 -12.085  0.00  0.00    -0.272 OA
ENDROOT
BRANCH   1   6
ATOM      4  C   UNL     1       0.908   6.234 -13.413  0.00  0.00    +0.032 C 
ATOM      5  C   UNL     1       0.929   5.654 -12.324  0.00  0.00    -0.007 A 
ATOM      6  C   UNL     1       1.714   6.184 -11.308  0.00  0.00    +0.065 A 
ATOM      7  C   UNL     1       1.359   6.087  -9.965  0.00  0.00    -0.007 A 
ATOM      8  C   UNL     1       1.851   7.067  -8.945  0.00  0.00    +0.032 C 
ATOM      9  C   UNL     1       0.418   5.142  -9.591  0.00  0.00    -0.003 A 
ATOM     10  C   UNL     1      -0.119   4.338 -10.567  0.00  0.00    -0.001 A 
ATOM     11  C   UNL     1       0.065   4.647 -11.908  0.00  0.00    -0.003 A 
ENDBRANCH   1   6
BRANCH   2  12
ATOM     12  C   UNL     1       5.122   6.747 -10.284  0.00  0.00    +0.137 C 
ATOM     13  N   UNL     1       6.378   6.604 -11.201  0.00  0.00    -0.265 NA
ATOM     14  C   UNL     1       6.208   7.190 -12.418  0.00  0.00    +0.090 C 
ATOM     15  C   UNL     1       7.312   5.741 -10.783  0.00  0.00    +0.073 C 
ATOM     16  C   UNL     1       7.560   5.744  -9.288  0.00  0.00    +0.017 C 
ATOM     17  C   UNL     1       6.278   5.254  -8.625  0.00  0.00    +0.003 C 
ATOM     18  C   UNL     1       5.237   5.209  -9.703  0.00  0.00    +0.025 C 
ENDBRANCH   2  12
TORSDOF 2
ENDMDL
