MODEL 1
REMARK VINA RESULT:      -9.8      0.000      0.000
REMARK  Name = 
REMARK  6 active torsions:
REMARK  status: ('A' for Active; 'I' for Inactive)
REMARK    1  A    between atoms: C_2  and  C_3
REMARK    2  A    between atoms: C_2  and  C_19
REMARK    3  A    between atoms: C_3  and  N_4
REMARK    4  A    between atoms: N_4  and  C_5
REMARK    5  A    between atoms: C_5  and  C_6
REMARK    6  A    between atoms: C_6  and  C_8
REMARK                            x       y       z     vdW  Elec       q    Type
REMARK                         _______ _______ _______ _____ _____    ______ ____
ROOT
ATOM      1  N   UNL     1       1.765   4.300  -6.903  0.00  0.00    -0.212 NA
ENDROOT
BRANCH   1   2
ATOM      2  C   UNL     1       3.070   4.763  -7.253  0.00  0.00    +0.125 C 
BRANCH   2   4
ATOM      3  O   UNL     1       2.017   4.697  -9.264  0.00  0.00    -0.218 OA
ATOM      4  C   UNL     1       3.367   4.173  -8.778  0.00  0.00    +0.209 C 
BRANCH   4   5
ATOM      5  C   UNL     1       4.250   5.625  -9.205  0.00  0.00    +0.198 C 
ATOM      6  O   UNL     1       4.683   5.121 -10.600  0.00  0.00    -0.477 OA
ATOM      7  C   UNL     1       5.644   5.895 -11.175  0.00  0.00    +0.135 A 
ATOM      8  C   UNL     1       6.798   6.127 -10.455  0.00  0.00    +0.014 A 
ATOM      9  C   UNL     1       7.989   6.300 -11.130  0.00  0.00    +0.028 A 
ATOM     10  C   UNL     1       8.037   6.253 -12.518  0.00  0.00    +0.140 A 
ATOM     11  C   UNL     1       6.855   6.247 -13.232  0.00  0.00    +0.033 A 
ATOM     12  F   UNL     1       9.205   5.872 -13.074  0.00  0.00    -0.204 F 
ATOM     13  C   UNL     1       6.681   6.013  -8.993  0.00  0.00    +0.033 C 
ATOM     14  C   UNL     1       5.661   6.197 -12.527  0.00  0.00    +0.039 A 
ATOM     15  C   UNL     1       5.638   5.026  -8.531  0.00  0.00    +0.051 C 
ENDBRANCH   4   5
ENDBRANCH   2   4
ENDBRANCH   1   2
BRANCH   1  16
ATOM     16  C   UNL     1       1.198   4.882  -5.738  0.00  0.00    +0.125 C 
BRANCH  16  17
ATOM     17  C   UNL     1      -0.432   4.997  -6.035  0.00  0.00    +0.209 C 
ATOM     18  O   UNL     1      -0.254   6.141  -7.033  0.00  0.00    -0.218 OA
BRANCH  17  19
ATOM     19  C   UNL     1      -0.720   6.083  -4.688  0.00  0.00    +0.198 C 
ATOM     20  O   UNL     1      -0.546   4.975  -3.614  0.00  0.00    -0.477 OA
ATOM     21  C   UNL     1      -0.967   5.333  -2.356  0.00  0.00    +0.135 A 
ATOM     22  C   UNL     1      -2.308   5.714  -2.336  0.00  0.00    +0.014 A 
ATOM     23  C   UNL     1      -2.652   6.769  -1.503  0.00  0.00    +0.028 A 
ATOM     24  C   UNL     1      -1.735   7.301  -0.603  0.00  0.00    +0.140 A 
ATOM     25  C   UNL     1      -0.705   6.440  -0.233  0.00  0.00    +0.033 A 
ATOM     26  F   UNL     1      -1.721   8.633  -0.311  0.00  0.00    -0.204 F 
ATOM     27  C   UNL     1      -2.960   5.422  -3.620  0.00  0.00    +0.033 C 
ATOM     28  C   UNL     1      -0.193   5.649  -1.263  0.00  0.00    +0.039 A 
ATOM     29  C   UNL     1      -2.357   5.934  -4.824  0.00  0.00    +0.051 C 
ENDBRANCH  17  19
ENDBRANCH  16  17
ENDBRANCH   1  16
TORSDOF 6
ENDMDL
MODEL 2
REMARK VINA RESULT:      -9.8      2.525      3.275
REMARK  Name = 
REMARK  6 active torsions:
REMARK  status: ('A' for Active; 'I' for Inactive)
REMARK    1  A    between atoms: C_2  and  C_3
REMARK    2  A    between atoms: C_2  and  C_19
REMARK    3  A    between atoms: C_3  and  N_4
REMARK    4  A    between atoms: N_4  and  C_5
REMARK    5  A    between atoms: C_5  and  C_6
REMARK    6  A    between atoms: C_6  and  C_8
REMARK                            x       y       z     vdW  Elec       q    Type
REMARK                         _______ _______ _______ _____ _____    ______ ____
ROOT
ATOM      1  N   UNL     1       0.006   5.456  -7.859  0.00  0.00    -0.212 NA
ENDROOT
BRANCH   1   2
ATOM      2  C   UNL     1       1.370   5.034  -7.850  0.00  0.00    +0.125 C 
BRANCH   2   4
ATOM      3  O   UNL     1       1.077   6.464  -9.589  0.00  0.00    -0.218 OA
ATOM      4  C   UNL     1       1.904   5.193  -9.415  0.00  0.00    +0.209 C 
BRANCH   4   5
ATOM      5  C   UNL     1       3.346   6.030  -8.875  0.00  0.00    +0.198 C 
ATOM      6  O   UNL     1       3.932   6.229 -10.292  0.00  0.00    -0.477 OA
ATOM      7  C   UNL     1       5.231   6.634 -10.282  0.00  0.00    +0.135 A 
ATOM      8  C   UNL     1       6.138   5.870  -9.575  0.00  0.00    +0.014 A 
ATOM      9  C   UNL     1       7.445   5.801 -10.013  0.00  0.00    +0.028 A 
ATOM     10  C   UNL     1       7.858   6.497 -11.143  0.00  0.00    +0.140 A 
ATOM     11  C   UNL     1       7.009   7.430 -11.706  0.00  0.00    +0.033 A 
ATOM     12  F   UNL     1       8.904   5.987 -11.823  0.00  0.00    -0.204 F 
ATOM     13  C   UNL     1       5.583   5.053  -8.485  0.00  0.00    +0.033 C 
ATOM     14  C   UNL     1       5.737   7.570 -11.169  0.00  0.00    +0.039 A 
ATOM     15  C   UNL     1       4.163   4.598  -8.713  0.00  0.00    +0.051 C 
ENDBRANCH   4   5
ENDBRANCH   2   4
ENDBRANCH   1   2
BRANCH   1  16
ATOM     16  C   UNL     1      -0.408   6.225  -6.738  0.00  0.00    +0.125 C 
BRANCH  16  17
ATOM     17  C   UNL     1      -0.228   5.234  -5.417  0.00  0.00    +0.209 C 
ATOM     18  O   UNL     1      -1.590   5.619  -4.838  0.00  0.00    -0.218 OA
BRANCH  17  19
ATOM     19  C   UNL     1       0.625   6.445  -4.477  0.00  0.00    +0.198 C 
ATOM     20  O   UNL     1       2.023   5.818  -4.734  0.00  0.00    -0.477 OA
ATOM     21  C   UNL     1       3.022   6.310  -3.928  0.00  0.00    +0.135 A 
ATOM     22  C   UNL     1       2.740   6.141  -2.574  0.00  0.00    +0.014 A 
ATOM     23  C   UNL     1       3.118   7.166  -1.718  0.00  0.00    +0.028 A 
ATOM     24  C   UNL     1       3.895   8.226  -2.169  0.00  0.00    +0.140 A 
ATOM     25  C   UNL     1       4.663   7.957  -3.299  0.00  0.00    +0.033 A 
ATOM     26  F   UNL     1       3.721   9.489  -1.682  0.00  0.00    -0.204 F 
ATOM     27  C   UNL     1       1.557   5.290  -2.382  0.00  0.00    +0.033 C 
ATOM     28  C   UNL     1       4.034   7.177  -4.272  0.00  0.00    +0.039 A 
ATOM     29  C   UNL     1       0.339   5.652  -3.060  0.00  0.00    +0.051 C 
ENDBRANCH  17  19
ENDBRANCH  16  17
ENDBRANCH   1  16
TORSDOF 6
ENDMDL
MODEL 3
REMARK VINA RESULT:      -9.7      2.037      3.042
REMARK  Name = 
REMARK  6 active torsions:
REMARK  status: ('A' for Active; 'I' for Inactive)
REMARK    1  A    between atoms: C_2  and  C_3
REMARK    2  A    between atoms: C_2  and  C_19
REMARK    3  A    between atoms: C_3  and  N_4
REMARK    4  A    between atoms: N_4  and  C_5
REMARK    5  A    between atoms: C_5  and  C_6
REMARK    6  A    between atoms: C_6  and  C_8
REMARK                            x       y       z     vdW  Elec       q    Type
REMARK                         _______ _______ _______ _____ _____    ______ ____
ROOT
ATOM      1  N   UNL     1       0.497   6.520  -9.656  0.00  0.00    -0.212 NA
ENDROOT
BRANCH   1   2
ATOM      2  C   UNL     1       0.882   6.580 -11.030  0.00  0.00    +0.125 C 
BRANCH   2   4
ATOM      3  O   UNL     1       1.447   5.046 -12.605  0.00  0.00    -0.218 OA
ATOM      4  C   UNL     1       2.023   5.389 -11.234  0.00  0.00    +0.209 C 
BRANCH   4   5
ATOM      5  C   UNL     1       3.179   6.554 -11.849  0.00  0.00    +0.198 C 
ATOM      6  O   UNL     1       4.185   5.497 -12.359  0.00  0.00    -0.477 OA
ATOM      7  C   UNL     1       5.395   6.025 -12.691  0.00  0.00    +0.135 A 
ATOM      8  C   UNL     1       6.051   6.778 -11.738  0.00  0.00    +0.014 A 
ATOM      9  C   UNL     1       7.431   6.784 -11.719  0.00  0.00    +0.028 A 
ATOM     10  C   UNL     1       8.162   6.055 -12.648  0.00  0.00    +0.140 A 
ATOM     11  C   UNL     1       7.508   5.493 -13.727  0.00  0.00    +0.033 A 
ATOM     12  F   UNL     1       9.391   5.648 -12.271  0.00  0.00    -0.204 F 
ATOM     13  C   UNL     1       5.203   7.397 -10.707  0.00  0.00    +0.033 C 
ATOM     14  C   UNL     1       6.126   5.605 -13.790  0.00  0.00    +0.039 A 
ATOM     15  C   UNL     1       3.952   6.617 -10.385  0.00  0.00    +0.051 C 
ENDBRANCH   4   5
ENDBRANCH   2   4
ENDBRANCH   1   2
BRANCH   1  16
ATOM     16  C   UNL     1       0.590   5.241  -9.046  0.00  0.00    +0.125 C 
BRANCH  16  17
ATOM     17  C   UNL     1       1.619   5.428  -7.755  0.00  0.00    +0.209 C 
ATOM     18  O   UNL     1       2.097   3.976  -7.819  0.00  0.00    -0.218 OA
BRANCH  17  19
ATOM     19  C   UNL     1       0.379   5.072  -6.565  0.00  0.00    +0.198 C 
ATOM     20  O   UNL     1       0.159   6.563  -6.188  0.00  0.00    -0.477 OA
ATOM     21  C   UNL     1      -0.576   6.755  -5.043  0.00  0.00    +0.135 A 
ATOM     22  C   UNL     1      -0.002   6.133  -3.935  0.00  0.00    +0.014 A 
ATOM     23  C   UNL     1      -0.867   5.550  -3.020  0.00  0.00    +0.028 A 
ATOM     24  C   UNL     1      -2.241   5.731  -3.117  0.00  0.00    +0.140 A 
ATOM     25  C   UNL     1      -2.639   6.874  -3.805  0.00  0.00    +0.033 A 
ATOM     26  F   UNL     1      -3.112   4.738  -2.776  0.00  0.00    -0.204 F 
ATOM     27  C   UNL     1       1.342   5.628  -4.250  0.00  0.00    +0.033 C 
ATOM     28  C   UNL     1      -1.881   7.179  -4.938  0.00  0.00    +0.039 A 
ATOM     29  C   UNL     1       1.494   4.761  -5.391  0.00  0.00    +0.051 C 
ENDBRANCH  17  19
ENDBRANCH  16  17
ENDBRANCH   1  16
TORSDOF 6
ENDMDL
MODEL 4
REMARK VINA RESULT:      -9.7      3.219      9.527
REMARK  Name = 
REMARK  6 active torsions:
REMARK  status: ('A' for Active; 'I' for Inactive)
REMARK    1  A    between atoms: C_2  and  C_3
REMARK    2  A    between atoms: C_2  and  C_19
REMARK    3  A    between atoms: C_3  and  N_4
REMARK    4  A    between atoms: N_4  and  C_5
REMARK    5  A    between atoms: C_5  and  C_6
REMARK    6  A    between atoms: C_6  and  C_8
REMARK                            x       y       z     vdW  Elec       q    Type
REMARK                         _______ _______ _______ _____ _____    ______ ____
ROOT
ATOM      1  N   UNL     1       5.577   5.085  -8.776  0.00  0.00    -0.212 NA
ENDROOT
BRANCH   1   2
ATOM      2  C   UNL     1       4.618   5.186  -7.723  0.00  0.00    +0.125 C 
BRANCH   2   4
ATOM      3  O   UNL     1       3.112   3.881  -8.811  0.00  0.00    -0.218 OA
ATOM      4  C   UNL     1       3.144   5.368  -8.467  0.00  0.00    +0.209 C 
BRANCH   4   5
ATOM      5  C   UNL     1       2.309   5.181  -6.937  0.00  0.00    +0.198 C 
ATOM      6  O   UNL     1       0.895   5.397  -7.521  0.00  0.00    -0.477 OA
ATOM      7  C   UNL     1      -0.056   5.590  -6.566  0.00  0.00    +0.135 A 
ATOM      8  C   UNL     1       0.156   6.593  -5.643  0.00  0.00    +0.014 A 
ATOM      9  C   UNL     1      -0.931   7.260  -5.114  0.00  0.00    +0.028 A 
ATOM     10  C   UNL     1      -2.226   6.928  -5.490  0.00  0.00    +0.140 A 
ATOM     11  C   UNL     1      -2.437   5.782  -6.234  0.00  0.00    +0.033 A 
ATOM     12  F   UNL     1      -3.154   7.903  -5.409  0.00  0.00    -0.204 F 
ATOM     13  C   UNL     1       1.557   6.978  -5.415  0.00  0.00    +0.033 C 
ATOM     14  C   UNL     1      -1.331   5.057  -6.652  0.00  0.00    +0.039 A 
ATOM     15  C   UNL     1       2.450   6.801  -6.619  0.00  0.00    +0.051 C 
ENDBRANCH   4   5
ENDBRANCH   2   4
ENDBRANCH   1   2
BRANCH   1  16
ATOM     16  C   UNL     1       5.571   6.148  -9.717  0.00  0.00    +0.125 C 
BRANCH  16  17
ATOM     17  C   UNL     1       5.773   5.437 -11.205  0.00  0.00    +0.209 C 
ATOM     18  O   UNL     1       6.940   6.352 -11.577  0.00  0.00    -0.218 OA
BRANCH  17  19
ATOM     19  C   UNL     1       4.587   6.466 -11.988  0.00  0.00    +0.198 C 
ATOM     20  O   UNL     1       3.377   5.604 -11.533  0.00  0.00    -0.477 OA
ATOM     21  C   UNL     1       2.197   5.902 -12.172  0.00  0.00    +0.135 A 
ATOM     22  C   UNL     1       2.297   5.768 -13.556  0.00  0.00    +0.014 A 
ATOM     23  C   UNL     1       1.619   6.698 -14.330  0.00  0.00    +0.028 A 
ATOM     24  C   UNL     1       0.743   7.610 -13.753  0.00  0.00    +0.140 A 
ATOM     25  C   UNL     1       0.215   7.224 -12.524  0.00  0.00    +0.033 A 
ATOM     26  F   UNL     1       0.616   8.877 -14.242  0.00  0.00    -0.204 F 
ATOM     27  C   UNL     1       3.569   5.137 -13.936  0.00  0.00    +0.033 C 
ATOM     28  C   UNL     1       1.111   6.580 -11.668  0.00  0.00    +0.039 A 
ATOM     29  C   UNL     1       4.792   5.718 -13.444  0.00  0.00    +0.051 C 
ENDBRANCH  17  19
ENDBRANCH  16  17
ENDBRANCH   1  16
TORSDOF 6
ENDMDL
MODEL 5
REMARK VINA RESULT:      -9.6      3.059      9.571
REMARK  Name = 
REMARK  6 active torsions:
REMARK  status: ('A' for Active; 'I' for Inactive)
REMARK    1  A    between atoms: C_2  and  C_3
REMARK    2  A    between atoms: C_2  and  C_19
REMARK    3  A    between atoms: C_3  and  N_4
REMARK    4  A    between atoms: N_4  and  C_5
REMARK    5  A    between atoms: C_5  and  C_6
REMARK    6  A    between atoms: C_6  and  C_8
REMARK                            x       y       z     vdW  Elec       q    Type
REMARK                         _______ _______ _______ _____ _____    ______ ____
ROOT
ATOM      1  N   UNL     1       1.274   5.144 -13.220  0.00  0.00    -0.212 NA
ENDROOT
BRANCH   1   2
ATOM      2  C   UNL     1       0.384   4.995 -12.113  0.00  0.00    +0.125 C 
BRANCH   2   4
ATOM      3  O   UNL     1      -0.477   6.612 -10.773  0.00  0.00    -0.218 OA
ATOM      4  C   UNL     1       0.930   6.046 -10.948  0.00  0.00    +0.209 C 
BRANCH   4   5
ATOM      5  C   UNL     1       0.748   4.820  -9.708  0.00  0.00    +0.198 C 
ATOM      6  O   UNL     1       0.526   5.821  -8.552  0.00  0.00    -0.477 OA
ATOM      7  C   UNL     1       0.604   5.244  -7.321  0.00  0.00    +0.135 A 
ATOM      8  C   UNL     1       1.742   4.524  -7.019  0.00  0.00    +0.014 A 
ATOM      9  C   UNL     1       2.183   4.483  -5.712  0.00  0.00    +0.028 A 
ATOM     10  C   UNL     1       1.493   5.143  -4.703  0.00  0.00    +0.140 A 
ATOM     11  C   UNL     1       0.243   5.665  -4.973  0.00  0.00    +0.033 A 
ATOM     12  F   UNL     1       2.210   5.536  -3.631  0.00  0.00    -0.204 F 
ATOM     13  C   UNL     1       2.488   3.983  -8.165  0.00  0.00    +0.033 C 
ATOM     14  C   UNL     1      -0.235   5.586  -6.273  0.00  0.00    +0.039 A 
ATOM     15  C   UNL     1       2.379   4.812  -9.421  0.00  0.00    +0.051 C 
ENDBRANCH   4   5
ENDBRANCH   2   4
ENDBRANCH   1   2
BRANCH   1  16
ATOM     16  C   UNL     1       2.385   6.002 -13.006  0.00  0.00    +0.125 C 
BRANCH  16  17
ATOM     17  C   UNL     1       3.450   5.682 -14.239  0.00  0.00    +0.209 C 
ATOM     18  O   UNL     1       2.942   4.251 -14.419  0.00  0.00    -0.218 OA
BRANCH  17  19
ATOM     19  C   UNL     1       4.741   5.194 -13.155  0.00  0.00    +0.198 C 
ATOM     20  O   UNL     1       4.569   6.423 -12.220  0.00  0.00    -0.477 OA
ATOM     21  C   UNL     1       5.600   6.606 -11.330  0.00  0.00    +0.135 A 
ATOM     22  C   UNL     1       6.831   6.748 -11.969  0.00  0.00    +0.014 A 
ATOM     23  C   UNL     1       7.930   6.164 -11.356  0.00  0.00    +0.028 A 
ATOM     24  C   UNL     1       7.834   5.617 -10.082  0.00  0.00    +0.140 A 
ATOM     25  C   UNL     1       6.800   6.123  -9.299  0.00  0.00    +0.033 A 
ATOM     26  F   UNL     1       8.545   4.506  -9.733  0.00  0.00    -0.204 F 
ATOM     27  C   UNL     1       6.660   6.879 -13.423  0.00  0.00    +0.033 C 
ATOM     28  C   UNL     1       5.602   6.357  -9.977  0.00  0.00    +0.039 A 
ATOM     29  C   UNL     1       5.900   5.870 -14.115  0.00  0.00    +0.051 C 
ENDBRANCH  17  19
ENDBRANCH  16  17
ENDBRANCH   1  16
TORSDOF 6
ENDMDL
MODEL 6
REMARK VINA RESULT:      -9.5      1.689      2.483
REMARK  Name = 
REMARK  6 active torsions:
REMARK  status: ('A' for Active; 'I' for Inactive)
REMARK    1  A    between atoms: C_2  and  C_3
REMARK    2  A    between atoms: C_2  and  C_19
REMARK    3  A    between atoms: C_3  and  N_4
REMARK    4  A    between atoms: N_4  and  C_5
REMARK    5  A    between atoms: C_5  and  C_6
REMARK    6  A    between atoms: C_6  and  C_8
REMARK                            x       y       z     vdW  Elec       q    Type
REMARK                         _______ _______ _______ _____ _____    ______ ____
ROOT
ATOM      1  N   UNL     1       0.183   4.613  -6.250  0.00  0.00    -0.212 NA
ENDROOT
BRANCH   1   2
ATOM      2  C   UNL     1       1.517   4.129  -6.093  0.00  0.00    +0.125 C 
BRANCH   2   4
ATOM      3  O   UNL     1       3.632   4.709  -5.506  0.00  0.00    -0.218 OA
ATOM      4  C   UNL     1       2.500   5.464  -6.200  0.00  0.00    +0.209 C 
BRANCH   4   5
ATOM      5  C   UNL     1       2.996   5.011  -7.819  0.00  0.00    +0.198 C 
ATOM      6  O   UNL     1       4.396   5.660  -7.724  0.00  0.00    -0.477 OA
ATOM      7  C   UNL     1       5.027   5.752  -8.927  0.00  0.00    +0.135 A 
ATOM      8  C   UNL     1       4.359   6.384  -9.956  0.00  0.00    +0.014 A 
ATOM      9  C   UNL     1       5.086   7.071 -10.907  0.00  0.00    +0.028 A 
ATOM     10  C   UNL     1       6.473   7.122 -10.847  0.00  0.00    +0.140 A 
ATOM     11  C   UNL     1       7.138   6.304  -9.954  0.00  0.00    +0.033 A 
ATOM     12  F   UNL     1       7.068   8.195 -11.407  0.00  0.00    -0.204 F 
ATOM     13  C   UNL     1       2.891   6.404  -9.859  0.00  0.00    +0.033 C 
ATOM     14  C   UNL     1       6.384   5.528  -9.086  0.00  0.00    +0.039 A 
ATOM     15  C   UNL     1       2.365   6.409  -8.444  0.00  0.00    +0.051 C 
ENDBRANCH   4   5
ENDBRANCH   2   4
ENDBRANCH   1   2
BRANCH   1  16
ATOM     16  C   UNL     1      -0.090   5.870  -5.650  0.00  0.00    +0.125 C 
BRANCH  16  17
ATOM     17  C   UNL     1      -1.592   5.725  -4.956  0.00  0.00    +0.209 C 
ATOM     18  O   UNL     1      -2.185   6.852  -5.804  0.00  0.00    -0.218 OA
BRANCH  17  19
ATOM     19  C   UNL     1      -1.209   6.797  -3.621  0.00  0.00    +0.198 C 
ATOM     20  O   UNL     1      -0.846   5.639  -2.651  0.00  0.00    -0.477 OA
ATOM     21  C   UNL     1      -0.733   6.016  -1.334  0.00  0.00    +0.135 A 
ATOM     22  C   UNL     1      -1.901   6.603  -0.851  0.00  0.00    +0.014 A 
ATOM     23  C   UNL     1      -1.755   7.670   0.024  0.00  0.00    +0.028 A 
ATOM     24  C   UNL     1      -0.507   8.019   0.528  0.00  0.00    +0.140 A 
ATOM     25  C   UNL     1       0.436   6.994   0.531  0.00  0.00    +0.033 A 
ATOM     26  F   UNL     1      -0.178   9.322   0.764  0.00  0.00    -0.204 F 
ATOM     27  C   UNL     1      -3.002   6.461  -1.813  0.00  0.00    +0.033 C 
ATOM     28  C   UNL     1       0.417   6.168  -0.595  0.00  0.00    +0.039 A 
ATOM     29  C   UNL     1      -2.790   6.913  -3.165  0.00  0.00    +0.051 C 
ENDBRANCH  17  19
ENDBRANCH  16  17
ENDBRANCH   1  16
TORSDOF 6
ENDMDL
MODEL 7
REMARK VINA RESULT:      -9.3      1.210     10.594
REMARK  Name = 
REMARK  6 active torsions:
REMARK  status: ('A' for Active; 'I' for Inactive)
REMARK    1  A    between atoms: C_2  and  C_3
REMARK    2  A    between atoms: C_2  and  C_19
REMARK    3  A    between atoms: C_3  and  N_4
REMARK    4  A    between atoms: N_4  and  C_5
REMARK    5  A    between atoms: C_5  and  C_6
REMARK    6  A    between atoms: C_6  and  C_8
REMARK                            x       y       z     vdW  Elec       q    Type
REMARK                         _______ _______ _______ _____ _____    ______ ____
ROOT
ATOM      1  N   UNL     1       3.037   4.258  -7.204  0.00  0.00    -0.212 NA
ENDROOT
BRANCH   1   2
ATOM      2  C   UNL     1       1.878   3.979  -6.418  0.00  0.00    +0.125 C 
BRANCH   2   4
ATOM      3  O   UNL     1       0.024   5.201  -6.890  0.00  0.00    -0.218 OA
ATOM      4  C   UNL     1       1.241   5.457  -6.005  0.00  0.00    +0.209 C 
BRANCH   4   5
ATOM      5  C   UNL     1       0.516   4.780  -4.561  0.00  0.00    +0.198 C 
ATOM      6  O   UNL     1      -0.523   5.910  -4.382  0.00  0.00    -0.477 OA
ATOM      7  C   UNL     1      -1.141   5.883  -3.169  0.00  0.00    +0.135 A 
ATOM      8  C   UNL     1      -0.345   5.886  -2.042  0.00  0.00    +0.014 A 
ATOM      9  C   UNL     1      -0.812   6.490  -0.892  0.00  0.00    +0.028 A 
ATOM     10  C   UNL     1      -2.068   7.081  -0.854  0.00  0.00    +0.140 A 
ATOM     11  C   UNL     1      -2.940   6.875  -1.905  0.00  0.00    +0.033 A 
ATOM     12  F   UNL     1      -2.242   8.087   0.027  0.00  0.00    -0.204 F 
ATOM     13  C   UNL     1       1.022   5.372  -2.215  0.00  0.00    +0.033 C 
ATOM     14  C   UNL     1      -2.489   6.157  -3.003  0.00  0.00    +0.039 A 
ATOM     15  C   UNL     1       1.594   5.586  -3.595  0.00  0.00    +0.051 C 
ENDBRANCH   4   5
ENDBRANCH   2   4
ENDBRANCH   1   2
BRANCH   1  16
ATOM     16  C   UNL     1       2.916   3.992  -8.594  0.00  0.00    +0.125 C 
BRANCH  16  17
ATOM     17  C   UNL     1       2.729   5.473  -9.325  0.00  0.00    +0.209 C 
ATOM     18  O   UNL     1       1.765   4.924 -10.378  0.00  0.00    -0.218 OA
BRANCH  17  19
ATOM     19  C   UNL     1       4.131   5.271 -10.359  0.00  0.00    +0.198 C 
ATOM     20  O   UNL     1       5.134   5.777  -9.286  0.00  0.00    -0.477 OA
ATOM     21  C   UNL     1       6.389   6.056  -9.769  0.00  0.00    +0.135 A 
ATOM     22  C   UNL     1       6.365   7.008 -10.788  0.00  0.00    +0.014 A 
ATOM     23  C   UNL     1       7.251   6.827 -11.840  0.00  0.00    +0.028 A 
ATOM     24  C   UNL     1       8.232   5.844 -11.792  0.00  0.00    +0.140 A 
ATOM     25  C   UNL     1       8.595   5.435 -10.511  0.00  0.00    +0.033 A 
ATOM     26  F   UNL     1       8.617   5.172 -12.915  0.00  0.00    -0.204 F 
ATOM     27  C   UNL     1       5.031   7.611 -10.916  0.00  0.00    +0.033 C 
ATOM     28  C   UNL     1       7.541   5.321  -9.603  0.00  0.00    +0.039 A 
ATOM     29  C   UNL     1       3.899   6.735 -11.083  0.00  0.00    +0.051 C 
ENDBRANCH  17  19
ENDBRANCH  16  17
ENDBRANCH   1  16
TORSDOF 6
ENDMDL
MODEL 8
REMARK VINA RESULT:      -9.3      3.511      9.249
REMARK  Name = 
REMARK  6 active torsions:
REMARK  status: ('A' for Active; 'I' for Inactive)
REMARK    1  A    between atoms: C_2  and  C_3
REMARK    2  A    between atoms: C_2  and  C_19
REMARK    3  A    between atoms: C_3  and  N_4
REMARK    4  A    between atoms: N_4  and  C_5
REMARK    5  A    between atoms: C_5  and  C_6
REMARK    6  A    between atoms: C_6  and  C_8
REMARK                            x       y       z     vdW  Elec       q    Type
REMARK                         _______ _______ _______ _____ _____    ______ ____
ROOT
ATOM      1  N   UNL     1       0.782   5.275 -11.396  0.00  0.00    -0.212 NA
ENDROOT
BRANCH   1   2
ATOM      2  C   UNL     1       0.894   4.761 -10.068  0.00  0.00    +0.125 C 
BRANCH   2   4
ATOM      3  O   UNL     1      -0.348   5.659  -8.393  0.00  0.00    -0.218 OA
ATOM      4  C   UNL     1       0.951   6.088  -9.071  0.00  0.00    +0.209 C 
BRANCH   4   5
ATOM      5  C   UNL     1       1.991   5.239  -7.943  0.00  0.00    +0.198 C 
ATOM      6  O   UNL     1       1.738   6.205  -6.764  0.00  0.00    -0.477 OA
ATOM      7  C   UNL     1       2.605   6.026  -5.729  0.00  0.00    +0.135 A 
ATOM      8  C   UNL     1       3.956   6.075  -6.008  0.00  0.00    +0.014 A 
ATOM      9  C   UNL     1       4.824   6.545  -5.043  0.00  0.00    +0.028 A 
ATOM     10  C   UNL     1       4.358   6.955  -3.800  0.00  0.00    +0.140 A 
ATOM     11  C   UNL     1       3.047   6.691  -3.453  0.00  0.00    +0.033 A 
ATOM     12  F   UNL     1       5.093   7.878  -3.148  0.00  0.00    -0.204 F 
ATOM     13  C   UNL     1       4.343   5.764  -7.392  0.00  0.00    +0.033 C 
ATOM     14  C   UNL     1       2.221   6.104  -4.401  0.00  0.00    +0.039 A 
ATOM     15  C   UNL     1       3.303   6.130  -8.422  0.00  0.00    +0.051 C 
ENDBRANCH   4   5
ENDBRANCH   2   4
ENDBRANCH   1   2
BRANCH   1  16
ATOM     16  C   UNL     1       1.548   6.439 -11.671  0.00  0.00    +0.125 C 
BRANCH  16  17
ATOM     17  C   UNL     1       2.431   6.089 -13.035  0.00  0.00    +0.209 C 
ATOM     18  O   UNL     1       1.858   4.675 -13.144  0.00  0.00    -0.218 OA
BRANCH  17  19
ATOM     19  C   UNL     1       3.837   5.557 -12.131  0.00  0.00    +0.198 C 
ATOM     20  O   UNL     1       4.536   6.943 -12.190  0.00  0.00    -0.477 OA
ATOM     21  C   UNL     1       5.859   6.927 -11.818  0.00  0.00    +0.135 A 
ATOM     22  C   UNL     1       6.617   6.053 -12.597  0.00  0.00    +0.014 A 
ATOM     23  C   UNL     1       7.614   5.337 -11.950  0.00  0.00    +0.028 A 
ATOM     24  C   UNL     1       7.953   5.610 -10.630  0.00  0.00    +0.140 A 
ATOM     25  C   UNL     1       7.637   6.893 -10.193  0.00  0.00    +0.033 A 
ATOM     26  F   UNL     1       8.336   4.616  -9.777  0.00  0.00    -0.204 F 
ATOM     27  C   UNL     1       5.839   5.553 -13.739  0.00  0.00    +0.033 C 
ATOM     28  C   UNL     1       6.413   7.390 -10.647  0.00  0.00    +0.039 A 
ATOM     29  C   UNL     1       4.561   4.941 -13.479  0.00  0.00    +0.051 C 
ENDBRANCH  17  19
ENDBRANCH  16  17
ENDBRANCH   1  16
TORSDOF 6
ENDMDL
MODEL 9
REMARK VINA RESULT:      -9.3      3.320      3.894
REMARK  Name = 
REMARK  6 active torsions:
REMARK  status: ('A' for Active; 'I' for Inactive)
REMARK    1  A    between atoms: C_2  and  C_3
REMARK    2  A    between atoms: C_2  and  C_19
REMARK    3  A    between atoms: C_3  and  N_4
REMARK    4  A    between atoms: N_4  and  C_5
REMARK    5  A    between atoms: C_5  and  C_6
REMARK    6  A    between atoms: C_6  and  C_8
REMARK                            x       y       z     vdW  Elec       q    Type
REMARK                         _______ _______ _______ _____ _____    ______ ____
ROOT
ATOM      1  N   UNL     1       0.923   5.913  -8.342  0.00  0.00    -0.212 NA
ENDROOT
BRANCH   1   2
ATOM      2  C   UNL     1       1.339   6.452  -9.597  0.00  0.00    +0.125 C 
BRANCH   2   4
ATOM      3  O   UNL     1       1.117   5.115 -11.418  0.00  0.00    -0.218 OA
ATOM      4  C   UNL     1       2.198   5.245 -10.348  0.00  0.00    +0.209 C 
BRANCH   4   5
ATOM      5  C   UNL     1       3.142   6.424 -11.238  0.00  0.00    +0.198 C 
ATOM      6  O   UNL     1       4.118   5.391 -11.848  0.00  0.00    -0.477 OA
ATOM      7  C   UNL     1       5.210   5.963 -12.426  0.00  0.00    +0.135 A 
ATOM      8  C   UNL     1       5.965   6.827 -11.660  0.00  0.00    +0.014 A 
ATOM      9  C   UNL     1       7.323   6.916 -11.889  0.00  0.00    +0.028 A 
ATOM     10  C   UNL     1       7.932   6.160 -12.882  0.00  0.00    +0.140 A 
ATOM     11  C   UNL     1       7.142   5.476 -13.786  0.00  0.00    +0.033 A 
ATOM     12  F   UNL     1       9.234   5.858 -12.706  0.00  0.00    -0.204 F 
ATOM     13  C   UNL     1       5.267   7.474 -10.538  0.00  0.00    +0.033 C 
ATOM     14  C   UNL     1       5.766   5.501 -13.608  0.00  0.00    +0.039 A 
ATOM     15  C   UNL     1       4.152   6.649  -9.945  0.00  0.00    +0.051 C 
ENDBRANCH   4   5
ENDBRANCH   2   4
ENDBRANCH   1   2
BRANCH   1  16
ATOM     16  C   UNL     1       1.542   6.477  -7.195  0.00  0.00    +0.125 C 
BRANCH  16  17
ATOM     17  C   UNL     1       2.785   5.448  -6.798  0.00  0.00    +0.209 C 
ATOM     18  O   UNL     1       1.885   4.212  -6.833  0.00  0.00    -0.218 OA
BRANCH  17  19
ATOM     19  C   UNL     1       2.577   5.674  -5.071  0.00  0.00    +0.198 C 
ATOM     20  O   UNL     1       3.692   6.751  -4.965  0.00  0.00    -0.477 OA
ATOM     21  C   UNL     1       4.081   7.040  -3.679  0.00  0.00    +0.135 A 
ATOM     22  C   UNL     1       4.537   5.912  -2.999  0.00  0.00    +0.014 A 
ATOM     23  C   UNL     1       4.208   5.811  -1.655  0.00  0.00    +0.028 A 
ATOM     24  C   UNL     1       3.605   6.868  -0.982  0.00  0.00    +0.140 A 
ATOM     25  C   UNL     1       3.819   8.124  -1.545  0.00  0.00    +0.033 A 
ATOM     26  F   UNL     1       2.683   6.650  -0.001  0.00  0.00    -0.204 F 
ATOM     27  C   UNL     1       4.680   4.767  -3.909  0.00  0.00    +0.033 C 
ATOM     28  C   UNL     1       3.787   8.163  -2.940  0.00  0.00    +0.039 A 
ATOM     29  C   UNL     1       3.546   4.388  -4.713  0.00  0.00    +0.051 C 
ENDBRANCH  17  19
ENDBRANCH  16  17
ENDBRANCH   1  16
TORSDOF 6
ENDMDL
