MODEL 1
REMARK VINA RESULT:      -8.0      0.000      0.000
REMARK  Name = 
REMARK  11 active torsions:
REMARK  status: ('A' for Active; 'I' for Inactive)
REMARK    1  A    between atoms: C_2  and  N_24
REMARK    2  A    between atoms: N_3  and  C_4
REMARK    3  A    between atoms: C_4  and  C_5
REMARK    4  A    between atoms: C_5  and  C_6
REMARK    5  A    between atoms: C_6  and  C_7
REMARK    6  A    between atoms: C_7  and  C_8
REMARK    7  A    between atoms: C_8  and  C_9
REMARK    8  A    between atoms: C_9  and  N_10
REMARK    9  A    between atoms: C_11  and  N_13
REMARK   10  A    between atoms: N_16  and  C_17
REMARK   11  A    between atoms: N_27  and  C_28
REMARK                            x       y       z     vdW  Elec       q    Type
REMARK                         _______ _______ _______ _____ _____    ______ ____
ROOT
ATOM      1  C   UNL     1       0.430   5.496  -3.756  0.00  0.00    +0.004 C 
ENDROOT
BRANCH   1   2
ATOM      2  C   UNL     1      -0.162   6.266  -4.904  0.00  0.00    +0.047 C 
BRANCH   2   3
ATOM      3  C   UNL     1      -0.221   5.465  -6.173  0.00  0.00    +0.220 C 
BRANCH   3   6
ATOM      4  N   UNL     1       0.186   5.440  -8.875  0.00  0.00    +0.132 NA
ATOM      5  C   UNL     1       1.281   5.392  -7.954  0.00  0.00    +0.505 C 
ATOM      6  N   UNL     1       1.103   5.143  -6.691  0.00  0.00    -0.089 NA
BRANCH   5   7
ATOM      7  N   UNL     1       2.570   5.682  -8.499  0.00  0.00    +0.011 NA
ATOM      8  C   UNL     1       2.902   6.905  -8.788  0.00  0.00    +0.510 C 
ATOM      9  N   UNL     1       3.780   7.139  -9.869  0.00  0.00    -0.063 NA
ATOM     10  N   UNL     1       2.432   7.910  -7.906  0.00  0.00    +0.133 NA
BRANCH   9  11
ATOM     11  C   UNL     1       4.786   6.174 -10.196  0.00  0.00    +0.159 A 
ATOM     12  C   UNL     1       4.892   5.733 -11.505  0.00  0.00    +0.038 A 
ATOM     13  C   UNL     1       6.122   5.316 -11.997  0.00  0.00    +0.014 A 
ATOM     14  C   UNL     1       7.294   5.478 -11.272  0.00  0.00    +0.058 A 
ATOM     15 CL   UNL     1       8.782   5.929 -12.100  0.00  0.00    -0.082 Cl
ATOM     16  C   UNL     1       7.151   5.783  -9.936  0.00  0.00    +0.014 A 
ATOM     17  C   UNL     1       5.907   6.012  -9.391  0.00  0.00    +0.038 A 
ENDBRANCH   9  11
ENDBRANCH   5   7
ENDBRANCH   3   6
ENDBRANCH   2   3
ENDBRANCH   1   2
BRANCH   1  18
ATOM     18  C   UNL     1       0.156   6.130  -2.418  0.00  0.00    +0.004 C 
BRANCH  18  19
ATOM     19  C   UNL     1       0.695   5.328  -1.263  0.00  0.00    +0.047 C 
BRANCH  19  20
ATOM     20  C   UNL     1       0.791   6.153  -0.010  0.00  0.00    +0.220 C 
BRANCH  20  21
ATOM     21  N   UNL     1       1.207   7.511  -0.351  0.00  0.00    -0.089 NA
ATOM     22  C   UNL     1       2.382   7.972  -0.024  0.00  0.00    +0.505 C 
ATOM     23  N   UNL     1       2.380   9.388   0.223  0.00  0.00    +0.132 NA
BRANCH  22  24
ATOM     24  N   UNL     1       3.009   7.216   1.024  0.00  0.00    +0.011 NA
ATOM     25  C   UNL     1       4.310   7.229   1.002  0.00  0.00    +0.510 C 
ATOM     26  N   UNL     1       4.913   7.294  -0.285  0.00  0.00    -0.063 NA
ATOM     27  N   UNL     1       5.002   6.808   2.171  0.00  0.00    +0.133 NA
BRANCH  26  28
ATOM     28  C   UNL     1       4.112   6.976  -1.435  0.00  0.00    +0.159 A 
ATOM     29  C   UNL     1       4.251   7.886  -2.482  0.00  0.00    +0.038 A 
ATOM     30  C   UNL     1       4.066   7.517  -3.803  0.00  0.00    +0.014 A 
ATOM     31  C   UNL     1       4.116   6.190  -4.145  0.00  0.00    +0.058 A 
ATOM     32 CL   UNL     1       4.646   5.755  -5.767  0.00  0.00    -0.082 Cl
ATOM     33  C   UNL     1       3.958   5.263  -3.143  0.00  0.00    +0.014 A 
ATOM     34  C   UNL     1       4.257   5.656  -1.857  0.00  0.00    +0.038 A 
ENDBRANCH  26  28
ENDBRANCH  22  24
ENDBRANCH  20  21
ENDBRANCH  19  20
ENDBRANCH  18  19
ENDBRANCH   1  18
TORSDOF 11
ENDMDL
MODEL 2
REMARK VINA RESULT:      -7.7      2.292      3.393
REMARK  Name = 
REMARK  11 active torsions:
REMARK  status: ('A' for Active; 'I' for Inactive)
REMARK    1  A    between atoms: C_2  and  N_24
REMARK    2  A    between atoms: N_3  and  C_4
REMARK    3  A    between atoms: C_4  and  C_5
REMARK    4  A    between atoms: C_5  and  C_6
REMARK    5  A    between atoms: C_6  and  C_7
REMARK    6  A    between atoms: C_7  and  C_8
REMARK    7  A    between atoms: C_8  and  C_9
REMARK    8  A    between atoms: C_9  and  N_10
REMARK    9  A    between atoms: C_11  and  N_13
REMARK   10  A    between atoms: N_16  and  C_17
REMARK   11  A    between atoms: N_27  and  C_28
REMARK                            x       y       z     vdW  Elec       q    Type
REMARK                         _______ _______ _______ _____ _____    ______ ____
ROOT
ATOM      1  C   UNL     1      -1.268   6.878  -3.436  0.00  0.00    +0.004 C 
ENDROOT
BRANCH   1   2
ATOM      2  C   UNL     1      -1.474   6.847  -4.925  0.00  0.00    +0.047 C 
BRANCH   2   3
ATOM      3  C   UNL     1      -0.624   5.815  -5.608  0.00  0.00    +0.220 C 
BRANCH   3   6
ATOM      4  N   UNL     1       1.549   4.219  -6.058  0.00  0.00    +0.132 NA
ATOM      5  C   UNL     1       1.453   5.529  -6.628  0.00  0.00    +0.505 C 
ATOM      6  N   UNL     1       0.567   6.389  -6.221  0.00  0.00    -0.089 NA
BRANCH   5   7
ATOM      7  N   UNL     1       2.356   5.814  -7.698  0.00  0.00    +0.011 NA
ATOM      8  C   UNL     1       2.180   5.276  -8.868  0.00  0.00    +0.510 C 
ATOM      9  N   UNL     1       3.309   4.983  -9.665  0.00  0.00    -0.063 NA
ATOM     10  N   UNL     1       0.837   5.128  -9.297  0.00  0.00    +0.133 NA
BRANCH   9  11
ATOM     11  C   UNL     1       4.479   5.803  -9.575  0.00  0.00    +0.159 A 
ATOM     12  C   UNL     1       5.615   5.287  -8.971  0.00  0.00    +0.038 A 
ATOM     13  C   UNL     1       6.870   5.733  -9.364  0.00  0.00    +0.014 A 
ATOM     14  C   UNL     1       7.043   6.566 -10.460  0.00  0.00    +0.058 A 
ATOM     15 CL   UNL     1       8.423   6.335 -11.528  0.00  0.00    -0.082 Cl
ATOM     16  C   UNL     1       5.907   7.173 -10.953  0.00  0.00    +0.014 A 
ATOM     17  C   UNL     1       4.665   6.877 -10.437  0.00  0.00    +0.038 A 
ENDBRANCH   9  11
ENDBRANCH   5   7
ENDBRANCH   3   6
ENDBRANCH   2   3
ENDBRANCH   1   2
BRANCH   1  18
ATOM     18  C   UNL     1      -1.463   5.534  -2.786  0.00  0.00    +0.004 C 
BRANCH  18  19
ATOM     19  C   UNL     1      -0.693   5.382  -1.501  0.00  0.00    +0.047 C 
BRANCH  19  20
ATOM     20  C   UNL     1       0.588   6.167  -1.523  0.00  0.00    +0.220 C 
BRANCH  20  21
ATOM     21  N   UNL     1       1.611   5.453  -0.764  0.00  0.00    -0.089 NA
ATOM     22  C   UNL     1       2.823   5.299  -1.220  0.00  0.00    +0.505 C 
ATOM     23  N   UNL     1       3.438   4.078  -0.776  0.00  0.00    +0.132 NA
BRANCH  22  24
ATOM     24  N   UNL     1       2.917   5.497  -2.640  0.00  0.00    +0.011 NA
ATOM     25  C   UNL     1       4.080   5.904  -3.058  0.00  0.00    +0.510 C 
ATOM     26  N   UNL     1       4.800   6.754  -2.173  0.00  0.00    -0.063 NA
ATOM     27  N   UNL     1       4.365   5.796  -4.446  0.00  0.00    +0.133 NA
BRANCH  26  28
ATOM     28  C   UNL     1       4.087   7.388  -1.099  0.00  0.00    +0.159 A 
ATOM     29  C   UNL     1       4.736   7.301   0.132  0.00  0.00    +0.038 A 
ATOM     30  C   UNL     1       4.570   8.257   1.118  0.00  0.00    +0.014 A 
ATOM     31  C   UNL     1       4.075   9.491   0.782  0.00  0.00    +0.058 A 
ATOM     32 CL   UNL     1       4.553  10.885   1.748  0.00  0.00    -0.082 Cl
ATOM     33  C   UNL     1       3.405   9.611  -0.412  0.00  0.00    +0.014 A 
ATOM     34  C   UNL     1       3.688   8.690  -1.397  0.00  0.00    +0.038 A 
ENDBRANCH  26  28
ENDBRANCH  22  24
ENDBRANCH  20  21
ENDBRANCH  19  20
ENDBRANCH  18  19
ENDBRANCH   1  18
TORSDOF 11
ENDMDL
MODEL 3
REMARK VINA RESULT:      -7.7      1.878      2.676
REMARK  Name = 
REMARK  11 active torsions:
REMARK  status: ('A' for Active; 'I' for Inactive)
REMARK    1  A    between atoms: C_2  and  N_24
REMARK    2  A    between atoms: N_3  and  C_4
REMARK    3  A    between atoms: C_4  and  C_5
REMARK    4  A    between atoms: C_5  and  C_6
REMARK    5  A    between atoms: C_6  and  C_7
REMARK    6  A    between atoms: C_7  and  C_8
REMARK    7  A    between atoms: C_8  and  C_9
REMARK    8  A    between atoms: C_9  and  N_10
REMARK    9  A    between atoms: C_11  and  N_13
REMARK   10  A    between atoms: N_16  and  C_17
REMARK   11  A    between atoms: N_27  and  C_28
REMARK                            x       y       z     vdW  Elec       q    Type
REMARK                         _______ _______ _______ _____ _____    ______ ____
ROOT
ATOM      1  C   UNL     1      -1.762   6.776  -4.306  0.00  0.00    +0.004 C 
ENDROOT
BRANCH   1   2
ATOM      2  C   UNL     1      -0.474   7.264  -4.911  0.00  0.00    +0.047 C 
BRANCH   2   3
ATOM      3  C   UNL     1       0.538   6.168  -5.085  0.00  0.00    +0.220 C 
BRANCH   3   6
ATOM      4  N   UNL     1       2.273   4.304  -6.077  0.00  0.00    +0.132 NA
ATOM      5  C   UNL     1       2.356   5.681  -6.460  0.00  0.00    +0.505 C 
ATOM      6  N   UNL     1       1.721   6.612  -5.812  0.00  0.00    -0.089 NA
BRANCH   5   7
ATOM      7  N   UNL     1       3.139   5.961  -7.622  0.00  0.00    +0.011 NA
ATOM      8  C   UNL     1       2.807   5.460  -8.775  0.00  0.00    +0.510 C 
ATOM      9  N   UNL     1       3.823   5.148  -9.704  0.00  0.00    -0.063 NA
ATOM     10  N   UNL     1       1.419   5.371  -9.047  0.00  0.00    +0.133 NA
BRANCH   9  11
ATOM     11  C   UNL     1       5.027   5.923  -9.735  0.00  0.00    +0.159 A 
ATOM     12  C   UNL     1       6.170   5.411  -9.141  0.00  0.00    +0.038 A 
ATOM     13  C   UNL     1       7.421   5.772  -9.624  0.00  0.00    +0.014 A 
ATOM     14  C   UNL     1       7.573   6.505 -10.793  0.00  0.00    +0.058 A 
ATOM     15 CL   UNL     1       8.891   6.131 -11.898  0.00  0.00    -0.082 Cl
ATOM     16  C   UNL     1       6.439   7.116 -11.284  0.00  0.00    +0.014 A 
ATOM     17  C   UNL     1       5.212   6.914 -10.690  0.00  0.00    +0.038 A 
ENDBRANCH   9  11
ENDBRANCH   5   7
ENDBRANCH   3   6
ENDBRANCH   2   3
ENDBRANCH   1   2
BRANCH   1  18
ATOM     18  C   UNL     1      -2.085   7.437  -2.993  0.00  0.00    +0.004 C 
BRANCH  18  19
ATOM     19  C   UNL     1      -1.863   6.536  -1.807  0.00  0.00    +0.047 C 
BRANCH  19  20
ATOM     20  C   UNL     1      -2.225   7.216  -0.517  0.00  0.00    +0.220 C 
BRANCH  20  21
ATOM     21  N   UNL     1      -1.408   8.414  -0.350  0.00  0.00    -0.089 NA
ATOM     22  C   UNL     1      -0.498   8.501   0.580  0.00  0.00    +0.505 C 
ATOM     23  N   UNL     1      -0.315   9.843   1.062  0.00  0.00    +0.132 NA
BRANCH  22  24
ATOM     24  N   UNL     1      -0.680   7.542   1.634  0.00  0.00    +0.011 NA
ATOM     25  C   UNL     1       0.386   7.296   2.339  0.00  0.00    +0.510 C 
ATOM     26  N   UNL     1       1.625   7.359   1.642  0.00  0.00    -0.063 NA
ATOM     27  N   UNL     1       0.223   6.640   3.589  0.00  0.00    +0.133 NA
BRANCH  26  28
ATOM     28  C   UNL     1       1.607   7.315   0.205  0.00  0.00    +0.159 A 
ATOM     29  C   UNL     1       2.694   7.952  -0.388  0.00  0.00    +0.038 A 
ATOM     30  C   UNL     1       3.184   7.571  -1.625  0.00  0.00    +0.014 A 
ATOM     31  C   UNL     1       2.865   6.333  -2.122  0.00  0.00    +0.058 A 
ATOM     32 CL   UNL     1       4.000   5.542  -3.212  0.00  0.00    -0.082 Cl
ATOM     33  C   UNL     1       1.782   5.683  -1.580  0.00  0.00    +0.014 A 
ATOM     34  C   UNL     1       1.402   6.033  -0.302  0.00  0.00    +0.038 A 
ENDBRANCH  26  28
ENDBRANCH  22  24
ENDBRANCH  20  21
ENDBRANCH  19  20
ENDBRANCH  18  19
ENDBRANCH   1  18
TORSDOF 11
ENDMDL
MODEL 4
REMARK VINA RESULT:      -7.6      2.137      3.185
REMARK  Name = 
REMARK  11 active torsions:
REMARK  status: ('A' for Active; 'I' for Inactive)
REMARK    1  A    between atoms: C_2  and  N_24
REMARK    2  A    between atoms: N_3  and  C_4
REMARK    3  A    between atoms: C_4  and  C_5
REMARK    4  A    between atoms: C_5  and  C_6
REMARK    5  A    between atoms: C_6  and  C_7
REMARK    6  A    between atoms: C_7  and  C_8
REMARK    7  A    between atoms: C_8  and  C_9
REMARK    8  A    between atoms: C_9  and  N_10
REMARK    9  A    between atoms: C_11  and  N_13
REMARK   10  A    between atoms: N_16  and  C_17
REMARK   11  A    between atoms: N_27  and  C_28
REMARK                            x       y       z     vdW  Elec       q    Type
REMARK                         _______ _______ _______ _____ _____    ______ ____
ROOT
ATOM      1  C   UNL     1      -2.727   6.925  -1.234  0.00  0.00    +0.004 C 
ENDROOT
BRANCH   1   2
ATOM      2  C   UNL     1      -2.521   5.708  -2.094  0.00  0.00    +0.047 C 
BRANCH   2   3
ATOM      3  C   UNL     1      -3.279   5.778  -3.390  0.00  0.00    +0.220 C 
BRANCH   3   6
ATOM      4  N   UNL     1      -1.962   7.657  -4.874  0.00  0.00    +0.132 NA
ATOM      5  C   UNL     1      -1.690   6.260  -5.026  0.00  0.00    +0.505 C 
ATOM      6  N   UNL     1      -2.476   5.351  -4.528  0.00  0.00    -0.089 NA
BRANCH   5   7
ATOM      7  N   UNL     1      -0.483   5.928  -5.715  0.00  0.00    +0.011 NA
ATOM      8  C   UNL     1       0.672   6.149  -5.160  0.00  0.00    +0.510 C 
ATOM      9  N   UNL     1       1.775   6.474  -5.980  0.00  0.00    -0.063 NA
ATOM     10  N   UNL     1       0.750   5.930  -3.761  0.00  0.00    +0.133 NA
BRANCH   9  11
ATOM     11  C   UNL     1       1.862   5.941  -7.306  0.00  0.00    +0.159 A 
ATOM     12  C   UNL     1       1.904   6.817  -8.379  0.00  0.00    +0.038 A 
ATOM     13  C   UNL     1       2.562   6.450  -9.546  0.00  0.00    +0.014 A 
ATOM     14  C   UNL     1       3.326   5.294  -9.624  0.00  0.00    +0.058 A 
ATOM     15 CL   UNL     1       4.835   5.300 -10.531  0.00  0.00    -0.082 Cl
ATOM     16  C   UNL     1       3.158   4.379  -8.608  0.00  0.00    +0.014 A 
ATOM     17  C   UNL     1       2.349   4.659  -7.529  0.00  0.00    +0.038 A 
ENDBRANCH   9  11
ENDBRANCH   5   7
ENDBRANCH   3   6
ENDBRANCH   2   3
ENDBRANCH   1   2
BRANCH   1  18
ATOM     18  C   UNL     1      -1.440   7.486  -0.691  0.00  0.00    +0.004 C 
BRANCH  18  19
ATOM     19  C   UNL     1      -0.383   6.437  -0.472  0.00  0.00    +0.047 C 
BRANCH  19  20
ATOM     20  C   UNL     1       0.625   6.869   0.556  0.00  0.00    +0.220 C 
BRANCH  20  21
ATOM     21  N   UNL     1       1.339   8.047   0.074  0.00  0.00    -0.089 NA
ATOM     22  C   UNL     1       2.562   8.309   0.445  0.00  0.00    +0.505 C 
ATOM     23  N   UNL     1       2.844   9.718   0.493  0.00  0.00    +0.132 NA
BRANCH  22  24
ATOM     24  N   UNL     1       2.946   7.613   1.641  0.00  0.00    +0.011 NA
ATOM     25  C   UNL     1       4.223   7.390   1.756  0.00  0.00    +0.510 C 
ATOM     26  N   UNL     1       4.929   7.159   0.543  0.00  0.00    -0.063 NA
ATOM     27  N   UNL     1       4.724   7.026   3.036  0.00  0.00    +0.133 NA
BRANCH  26  28
ATOM     28  C   UNL     1       4.178   6.826  -0.636  0.00  0.00    +0.159 A 
ATOM     29  C   UNL     1       4.610   7.492  -1.781  0.00  0.00    +0.038 A 
ATOM     30  C   UNL     1       4.458   6.950  -3.046  0.00  0.00    +0.014 A 
ATOM     31  C   UNL     1       4.233   5.604  -3.179  0.00  0.00    +0.058 A 
ATOM     32 CL   UNL     1       4.786   4.795  -4.643  0.00  0.00    -0.082 Cl
ATOM     33  C   UNL     1       3.782   4.917  -2.078  0.00  0.00    +0.014 A 
ATOM     34  C   UNL     1       4.052   5.452  -0.836  0.00  0.00    +0.038 A 
ENDBRANCH  26  28
ENDBRANCH  22  24
ENDBRANCH  20  21
ENDBRANCH  19  20
ENDBRANCH  18  19
ENDBRANCH   1  18
TORSDOF 11
ENDMDL
MODEL 5
REMARK VINA RESULT:      -7.4      3.170      5.646
REMARK  Name = 
REMARK  11 active torsions:
REMARK  status: ('A' for Active; 'I' for Inactive)
REMARK    1  A    between atoms: C_2  and  N_24
REMARK    2  A    between atoms: N_3  and  C_4
REMARK    3  A    between atoms: C_4  and  C_5
REMARK    4  A    between atoms: C_5  and  C_6
REMARK    5  A    between atoms: C_6  and  C_7
REMARK    6  A    between atoms: C_7  and  C_8
REMARK    7  A    between atoms: C_8  and  C_9
REMARK    8  A    between atoms: C_9  and  N_10
REMARK    9  A    between atoms: C_11  and  N_13
REMARK   10  A    between atoms: N_16  and  C_17
REMARK   11  A    between atoms: N_27  and  C_28
REMARK                            x       y       z     vdW  Elec       q    Type
REMARK                         _______ _______ _______ _____ _____    ______ ____
ROOT
ATOM      1  C   UNL     1       0.252   5.567 -10.235  0.00  0.00    +0.004 C 
ENDROOT
BRANCH   1   2
ATOM      2  C   UNL     1      -0.148   4.968 -11.555  0.00  0.00    +0.047 C 
BRANCH   2   3
ATOM      3  C   UNL     1       0.673   5.486 -12.701  0.00  0.00    +0.220 C 
BRANCH   3   6
ATOM      4  N   UNL     1       2.623   4.394 -14.274  0.00  0.00    +0.132 NA
ATOM      5  C   UNL     1       2.933   5.354 -13.258  0.00  0.00    +0.505 C 
ATOM      6  N   UNL     1       2.071   5.683 -12.341  0.00  0.00    -0.089 NA
BRANCH   5   7
ATOM      7  N   UNL     1       4.224   5.960 -13.342  0.00  0.00    +0.011 NA
ATOM      8  C   UNL     1       4.741   6.248 -14.499  0.00  0.00    +0.510 C 
ATOM      9  N   UNL     1       6.143   6.189 -14.658  0.00  0.00    -0.063 NA
ATOM     10  N   UNL     1       3.842   6.715 -15.491  0.00  0.00    +0.133 NA
BRANCH   9  11
ATOM     11  C   UNL     1       7.001   6.486 -13.551  0.00  0.00    +0.159 A 
ATOM     12  C   UNL     1       6.629   7.482 -12.662  0.00  0.00    +0.038 A 
ATOM     13  C   UNL     1       7.042   7.415 -11.337  0.00  0.00    +0.014 A 
ATOM     14  C   UNL     1       7.683   6.296 -10.824  0.00  0.00    +0.058 A 
ATOM     15 CL   UNL     1       7.318   5.748  -9.191  0.00  0.00    -0.082 Cl
ATOM     16  C   UNL     1       8.164   5.390 -11.745  0.00  0.00    +0.014 A 
ATOM     17  C   UNL     1       7.921   5.552 -13.091  0.00  0.00    +0.038 A 
ENDBRANCH   9  11
ENDBRANCH   5   7
ENDBRANCH   3   6
ENDBRANCH   2   3
ENDBRANCH   1   2
BRANCH   1  18
ATOM     18  C   UNL     1       1.180   4.684  -9.444  0.00  0.00    +0.004 C 
BRANCH  18  19
ATOM     19  C   UNL     1       1.344   5.129  -8.015  0.00  0.00    +0.047 C 
BRANCH  19  20
ATOM     20  C   UNL     1       2.780   5.077  -7.577  0.00  0.00    +0.220 C 
BRANCH  20  21
ATOM     21  N   UNL     1       2.878   4.363  -6.307  0.00  0.00    -0.089 NA
ATOM     22  C   UNL     1       3.229   4.966  -5.205  0.00  0.00    +0.505 C 
ATOM     23  N   UNL     1       3.936   4.106  -4.296  0.00  0.00    +0.132 NA
BRANCH  22  24
ATOM     24  N   UNL     1       3.898   6.215  -5.438  0.00  0.00    +0.011 NA
ATOM     25  C   UNL     1       3.849   7.054  -4.444  0.00  0.00    +0.510 C 
ATOM     26  N   UNL     1       2.667   7.018  -3.653  0.00  0.00    -0.063 NA
ATOM     27  N   UNL     1       4.754   8.150  -4.450  0.00  0.00    +0.133 NA
BRANCH  26  28
ATOM     28  C   UNL     1       1.503   6.367  -4.188  0.00  0.00    +0.159 A 
ATOM     29  C   UNL     1       0.786   5.636  -3.243  0.00  0.00    +0.038 A 
ATOM     30  C   UNL     1      -0.577   5.427  -3.357  0.00  0.00    +0.014 A 
ATOM     31  C   UNL     1      -1.316   6.236  -4.181  0.00  0.00    +0.058 A 
ATOM     32 CL   UNL     1      -3.010   6.519  -3.791  0.00  0.00    -0.082 Cl
ATOM     33  C   UNL     1      -0.647   6.953  -5.144  0.00  0.00    +0.014 A 
ATOM     34  C   UNL     1       0.687   7.222  -4.928  0.00  0.00    +0.038 A 
ENDBRANCH  26  28
ENDBRANCH  22  24
ENDBRANCH  20  21
ENDBRANCH  19  20
ENDBRANCH  18  19
ENDBRANCH   1  18
TORSDOF 11
ENDMDL
MODEL 6
REMARK VINA RESULT:      -7.4      2.301      9.100
REMARK  Name = 
REMARK  11 active torsions:
REMARK  status: ('A' for Active; 'I' for Inactive)
REMARK    1  A    between atoms: C_2  and  N_24
REMARK    2  A    between atoms: N_3  and  C_4
REMARK    3  A    between atoms: C_4  and  C_5
REMARK    4  A    between atoms: C_5  and  C_6
REMARK    5  A    between atoms: C_6  and  C_7
REMARK    6  A    between atoms: C_7  and  C_8
REMARK    7  A    between atoms: C_8  and  C_9
REMARK    8  A    between atoms: C_9  and  N_10
REMARK    9  A    between atoms: C_11  and  N_13
REMARK   10  A    between atoms: N_16  and  C_17
REMARK   11  A    between atoms: N_27  and  C_28
REMARK                            x       y       z     vdW  Elec       q    Type
REMARK                         _______ _______ _______ _____ _____    ______ ____
ROOT
ATOM      1  C   UNL     1       4.454   7.671  -3.400  0.00  0.00    +0.004 C 
ENDROOT
BRANCH   1   2
ATOM      2  C   UNL     1       4.971   6.791  -2.296  0.00  0.00    +0.047 C 
BRANCH   2   3
ATOM      3  C   UNL     1       3.906   5.909  -1.708  0.00  0.00    +0.220 C 
BRANCH   3   6
ATOM      4  N   UNL     1       1.697   4.675  -0.676  0.00  0.00    +0.132 NA
ATOM      5  C   UNL     1       1.590   5.647  -1.721  0.00  0.00    +0.505 C 
ATOM      6  N   UNL     1       2.628   6.046  -2.395  0.00  0.00    -0.089 NA
BRANCH   5   7
ATOM      7  N   UNL     1       0.285   6.184  -1.946  0.00  0.00    +0.011 NA
ATOM      8  C   UNL     1      -0.411   6.656  -0.954  0.00  0.00    +0.510 C 
ATOM      9  N   UNL     1      -1.818   6.549  -0.992  0.00  0.00    -0.063 NA
ATOM     10  N   UNL     1       0.313   7.351   0.048  0.00  0.00    +0.133 NA
BRANCH   9  11
ATOM     11  C   UNL     1      -2.505   6.584  -2.248  0.00  0.00    +0.159 A 
ATOM     12  C   UNL     1      -2.246   7.625  -3.125  0.00  0.00    +0.038 A 
ATOM     13  C   UNL     1      -2.376   7.423  -4.494  0.00  0.00    +0.014 A 
ATOM     14  C   UNL     1      -2.599   6.164  -5.032  0.00  0.00    +0.058 A 
ATOM     15 CL   UNL     1      -1.810   5.701  -6.536  0.00  0.00    -0.082 Cl
ATOM     16  C   UNL     1      -2.989   5.181  -4.148  0.00  0.00    +0.014 A 
ATOM     17  C   UNL     1      -3.049   5.429  -2.795  0.00  0.00    +0.038 A 
ENDBRANCH   9  11
ENDBRANCH   5   7
ENDBRANCH   3   6
ENDBRANCH   2   3
ENDBRANCH   1   2
BRANCH   1  18
ATOM     18  C   UNL     1       5.141   7.429  -4.717  0.00  0.00    +0.004 C 
BRANCH  18  19
ATOM     19  C   UNL     1       4.715   6.145  -5.379  0.00  0.00    +0.047 C 
BRANCH  19  20
ATOM     20  C   UNL     1       3.874   6.400  -6.599  0.00  0.00    +0.220 C 
BRANCH  20  21
ATOM     21  N   UNL     1       3.779   5.177  -7.390  0.00  0.00    -0.089 NA
ATOM     22  C   UNL     1       3.086   5.125  -8.493  0.00  0.00    +0.505 C 
ATOM     23  N   UNL     1       2.520   3.826  -8.740  0.00  0.00    +0.132 NA
BRANCH  22  24
ATOM     24  N   UNL     1       2.128   6.189  -8.605  0.00  0.00    +0.011 NA
ATOM     25  C   UNL     1       1.694   6.410  -9.812  0.00  0.00    +0.510 C 
ATOM     26  N   UNL     1       2.626   6.180 -10.862  0.00  0.00    -0.063 NA
ATOM     27  N   UNL     1       0.517   7.191  -9.966  0.00  0.00    +0.133 NA
BRANCH  26  28
ATOM     28  C   UNL     1       4.022   6.092 -10.534  0.00  0.00    +0.159 A 
ATOM     29  C   UNL     1       4.698   5.089 -11.226  0.00  0.00    +0.038 A 
ATOM     30  C   UNL     1       6.049   5.177 -11.513  0.00  0.00    +0.014 A 
ATOM     31  C   UNL     1       6.669   6.399 -11.464  0.00  0.00    +0.058 A 
ATOM     32 CL   UNL     1       8.062   6.682 -12.503  0.00  0.00    -0.082 Cl
ATOM     33  C   UNL     1       6.046   7.407 -10.768  0.00  0.00    +0.014 A 
ATOM     34  C   UNL     1       4.681   7.319 -10.602  0.00  0.00    +0.038 A 
ENDBRANCH  26  28
ENDBRANCH  22  24
ENDBRANCH  20  21
ENDBRANCH  19  20
ENDBRANCH  18  19
ENDBRANCH   1  18
TORSDOF 11
ENDMDL
MODEL 7
REMARK VINA RESULT:      -7.3      3.347      8.631
REMARK  Name = 
REMARK  11 active torsions:
REMARK  status: ('A' for Active; 'I' for Inactive)
REMARK    1  A    between atoms: C_2  and  N_24
REMARK    2  A    between atoms: N_3  and  C_4
REMARK    3  A    between atoms: C_4  and  C_5
REMARK    4  A    between atoms: C_5  and  C_6
REMARK    5  A    between atoms: C_6  and  C_7
REMARK    6  A    between atoms: C_7  and  C_8
REMARK    7  A    between atoms: C_8  and  C_9
REMARK    8  A    between atoms: C_9  and  N_10
REMARK    9  A    between atoms: C_11  and  N_13
REMARK   10  A    between atoms: N_16  and  C_17
REMARK   11  A    between atoms: N_27  and  C_28
REMARK                            x       y       z     vdW  Elec       q    Type
REMARK                         _______ _______ _______ _____ _____    ______ ____
ROOT
ATOM      1  C   UNL     1      -2.517   6.926  -3.525  0.00  0.00    +0.004 C 
ENDROOT
BRANCH   1   2
ATOM      2  C   UNL     1      -2.035   7.584  -2.261  0.00  0.00    +0.047 C 
BRANCH   2   3
ATOM      3  C   UNL     1      -1.497   6.599  -1.262  0.00  0.00    +0.220 C 
BRANCH   3   6
ATOM      4  N   UNL     1       0.966   5.617  -0.602  0.00  0.00    +0.132 NA
ATOM      5  C   UNL     1       0.511   6.883  -0.113  0.00  0.00    +0.505 C 
ATOM      6  N   UNL     1      -0.736   7.243  -0.200  0.00  0.00    -0.089 NA
BRANCH   5   7
ATOM      7  N   UNL     1       1.515   7.743   0.430  0.00  0.00    +0.011 NA
ATOM      8  C   UNL     1       1.443   8.138   1.666  0.00  0.00    +0.510 C 
ATOM      9  N   UNL     1       1.949   9.411   2.009  0.00  0.00    -0.063 NA
ATOM     10  N   UNL     1       0.955   7.192   2.602  0.00  0.00    +0.133 NA
BRANCH   9  11
ATOM     11  C   UNL     1       3.062   9.956   1.291  0.00  0.00    +0.159 A 
ATOM     12  C   UNL     1       2.827  10.635   0.105  0.00  0.00    +0.038 A 
ATOM     13  C   UNL     1       3.693  11.645  -0.295  0.00  0.00    +0.014 A 
ATOM     14  C   UNL     1       4.702  12.117   0.532  0.00  0.00    +0.058 A 
ATOM     15 CL   UNL     1       5.078  13.837   0.564  0.00  0.00    -0.082 Cl
ATOM     16  C   UNL     1       5.005  11.343   1.632  0.00  0.00    +0.014 A 
ATOM     17  C   UNL     1       4.264  10.221   1.933  0.00  0.00    +0.038 A 
ENDBRANCH   9  11
ENDBRANCH   5   7
ENDBRANCH   3   6
ENDBRANCH   2   3
ENDBRANCH   1   2
BRANCH   1  18
ATOM     18  C   UNL     1      -1.760   7.372  -4.747  0.00  0.00    +0.004 C 
BRANCH  18  19
ATOM     19  C   UNL     1      -0.283   7.088  -4.664  0.00  0.00    +0.047 C 
BRANCH  19  20
ATOM     20  C   UNL     1       0.234   6.463  -5.929  0.00  0.00    +0.220 C 
BRANCH  20  21
ATOM     21  N   UNL     1       0.786   5.144  -5.632  0.00  0.00    -0.089 NA
ATOM     22  C   UNL     1       1.944   4.764  -6.096  0.00  0.00    +0.505 C 
ATOM     23  N   UNL     1       2.015   3.347  -6.330  0.00  0.00    +0.132 NA
BRANCH  22  24
ATOM     24  N   UNL     1       2.384   5.545  -7.217  0.00  0.00    +0.011 NA
ATOM     25  C   UNL     1       3.675   5.606  -7.368  0.00  0.00    +0.510 C 
ATOM     26  N   UNL     1       4.445   5.583  -6.172  0.00  0.00    -0.063 NA
ATOM     27  N   UNL     1       4.181   6.056  -8.617  0.00  0.00    +0.133 NA
BRANCH  26  28
ATOM     28  C   UNL     1       3.787   5.864  -4.926  0.00  0.00    +0.159 A 
ATOM     29  C   UNL     1       4.171   5.018  -3.887  0.00  0.00    +0.038 A 
ATOM     30  C   UNL     1       4.137   5.419  -2.563  0.00  0.00    +0.014 A 
ATOM     31  C   UNL     1       4.093   6.758  -2.267  0.00  0.00    +0.058 A 
ATOM     32 CL   UNL     1       4.798   7.311  -0.751  0.00  0.00    -0.082 Cl
ATOM     33  C   UNL     1       3.694   7.622  -3.258  0.00  0.00    +0.014 A 
ATOM     34  C   UNL     1       3.847   7.209  -4.564  0.00  0.00    +0.038 A 
ENDBRANCH  26  28
ENDBRANCH  22  24
ENDBRANCH  20  21
ENDBRANCH  19  20
ENDBRANCH  18  19
ENDBRANCH   1  18
TORSDOF 11
ENDMDL
MODEL 8
REMARK VINA RESULT:      -7.2      3.086      9.193
REMARK  Name = 
REMARK  11 active torsions:
REMARK  status: ('A' for Active; 'I' for Inactive)
REMARK    1  A    between atoms: C_2  and  N_24
REMARK    2  A    between atoms: N_3  and  C_4
REMARK    3  A    between atoms: C_4  and  C_5
REMARK    4  A    between atoms: C_5  and  C_6
REMARK    5  A    between atoms: C_6  and  C_7
REMARK    6  A    between atoms: C_7  and  C_8
REMARK    7  A    between atoms: C_8  and  C_9
REMARK    8  A    between atoms: C_9  and  N_10
REMARK    9  A    between atoms: C_11  and  N_13
REMARK   10  A    between atoms: N_16  and  C_17
REMARK   11  A    between atoms: N_27  and  C_28
REMARK                            x       y       z     vdW  Elec       q    Type
REMARK                         _______ _______ _______ _____ _____    ______ ____
ROOT
ATOM      1  C   UNL     1      -1.583   7.892  -4.575  0.00  0.00    +0.004 C 
ENDROOT
BRANCH   1   2
ATOM      2  C   UNL     1      -2.709   6.907  -4.733  0.00  0.00    +0.047 C 
BRANCH   2   3
ATOM      3  C   UNL     1      -3.286   6.468  -3.418  0.00  0.00    +0.220 C 
BRANCH   3   6
ATOM      4  N   UNL     1      -2.196   5.055  -1.349  0.00  0.00    +0.132 NA
ATOM      5  C   UNL     1      -2.000   6.467  -1.474  0.00  0.00    +0.505 C 
ATOM      6  N   UNL     1      -2.713   7.188  -2.289  0.00  0.00    -0.089 NA
BRANCH   5   7
ATOM      7  N   UNL     1      -0.945   7.026  -0.688  0.00  0.00    +0.011 NA
ATOM      8  C   UNL     1       0.260   6.543  -0.767  0.00  0.00    +0.510 C 
ATOM      9  N   UNL     1       1.086   6.573   0.378  0.00  0.00    -0.063 NA
ATOM     10  N   UNL     1       0.686   6.121  -2.052  0.00  0.00    +0.133 NA
BRANCH   9  11
ATOM     11  C   UNL     1       0.948   7.632   1.332  0.00  0.00    +0.159 A 
ATOM     12  C   UNL     1       1.135   8.940   0.914  0.00  0.00    +0.038 A 
ATOM     13  C   UNL     1       0.466   9.973   1.558  0.00  0.00    +0.014 A 
ATOM     14  C   UNL     1      -0.515   9.731   2.509  0.00  0.00    +0.058 A 
ATOM     15 CL   UNL     1      -1.950  10.750   2.567  0.00  0.00    -0.082 Cl
ATOM     16  C   UNL     1      -0.584   8.447   3.006  0.00  0.00    +0.014 A 
ATOM     17  C   UNL     1       0.219   7.448   2.499  0.00  0.00    +0.038 A 
ENDBRANCH   9  11
ENDBRANCH   5   7
ENDBRANCH   3   6
ENDBRANCH   2   3
ENDBRANCH   1   2
BRANCH   1  18
ATOM     18  C   UNL     1      -0.311   7.445  -5.243  0.00  0.00    +0.004 C 
BRANCH  18  19
ATOM     19  C   UNL     1      -0.354   6.011  -5.699  0.00  0.00    +0.047 C 
BRANCH  19  20
ATOM     20  C   UNL     1       0.213   5.849  -7.081  0.00  0.00    +0.220 C 
BRANCH  20  21
ATOM     21  N   UNL     1       1.063   4.662  -7.123  0.00  0.00    -0.089 NA
ATOM     22  C   UNL     1       2.248   4.686  -7.666  0.00  0.00    +0.505 C 
ATOM     23  N   UNL     1       2.623   3.426  -8.249  0.00  0.00    +0.132 NA
BRANCH  22  24
ATOM     24  N   UNL     1       2.437   5.798  -8.555  0.00  0.00    +0.011 NA
ATOM     25  C   UNL     1       3.670   6.193  -8.681  0.00  0.00    +0.510 C 
ATOM     26  N   UNL     1       4.490   6.060  -7.526  0.00  0.00    -0.063 NA
ATOM     27  N   UNL     1       3.991   7.041  -9.776  0.00  0.00    +0.133 NA
BRANCH  26  28
ATOM     28  C   UNL     1       3.855   5.867  -6.252  0.00  0.00    +0.159 A 
ATOM     29  C   UNL     1       4.563   5.027  -5.395  0.00  0.00    +0.038 A 
ATOM     30  C   UNL     1       4.480   5.143  -4.018  0.00  0.00    +0.014 A 
ATOM     31  C   UNL     1       4.008   6.307  -3.469  0.00  0.00    +0.058 A 
ATOM     32 CL   UNL     1       4.581   6.781  -1.871  0.00  0.00    -0.082 Cl
ATOM     33  C   UNL     1       3.283   7.150  -4.276  0.00  0.00    +0.014 A 
ATOM     34  C   UNL     1       3.483   7.061  -5.636  0.00  0.00    +0.038 A 
ENDBRANCH  26  28
ENDBRANCH  22  24
ENDBRANCH  20  21
ENDBRANCH  19  20
ENDBRANCH  18  19
ENDBRANCH   1  18
TORSDOF 11
ENDMDL
MODEL 9
REMARK VINA RESULT:      -7.2      3.749      9.167
REMARK  Name = 
REMARK  11 active torsions:
REMARK  status: ('A' for Active; 'I' for Inactive)
REMARK    1  A    between atoms: C_2  and  N_24
REMARK    2  A    between atoms: N_3  and  C_4
REMARK    3  A    between atoms: C_4  and  C_5
REMARK    4  A    between atoms: C_5  and  C_6
REMARK    5  A    between atoms: C_6  and  C_7
REMARK    6  A    between atoms: C_7  and  C_8
REMARK    7  A    between atoms: C_8  and  C_9
REMARK    8  A    between atoms: C_9  and  N_10
REMARK    9  A    between atoms: C_11  and  N_13
REMARK   10  A    between atoms: N_16  and  C_17
REMARK   11  A    between atoms: N_27  and  C_28
REMARK                            x       y       z     vdW  Elec       q    Type
REMARK                         _______ _______ _______ _____ _____    ______ ____
ROOT
ATOM      1  C   UNL     1       4.365   5.508  -2.939  0.00  0.00    +0.004 C 
ENDROOT
BRANCH   1   2
ATOM      2  C   UNL     1       2.960   5.570  -2.406  0.00  0.00    +0.047 C 
BRANCH   2   3
ATOM      3  C   UNL     1       2.901   5.456  -0.909  0.00  0.00    +0.220 C 
BRANCH   3   6
ATOM      4  N   UNL     1       4.766   6.423   0.839  0.00  0.00    +0.132 NA
ATOM      5  C   UNL     1       3.699   7.245   0.354  0.00  0.00    +0.505 C 
ATOM      6  N   UNL     1       2.671   6.740  -0.261  0.00  0.00    -0.089 NA
BRANCH   5   7
ATOM      7  N   UNL     1       3.856   8.652   0.545  0.00  0.00    +0.011 NA
ATOM      8  C   UNL     1       2.961   9.331   1.199  0.00  0.00    +0.510 C 
ATOM      9  N   UNL     1       2.724  10.676   0.842  0.00  0.00    -0.063 NA
ATOM     10  N   UNL     1       2.366   8.681   2.311  0.00  0.00    +0.133 NA
BRANCH   9  11
ATOM     11  C   UNL     1       3.792  11.477   0.323  0.00  0.00    +0.159 A 
ATOM     12  C   UNL     1       3.665  12.025  -0.944  0.00  0.00    +0.038 A 
ATOM     13  C   UNL     1       4.309  13.217  -1.249  0.00  0.00    +0.014 A 
ATOM     14  C   UNL     1       4.950  13.974  -0.278  0.00  0.00    +0.058 A 
ATOM     15 CL   UNL     1       4.854  15.731  -0.331  0.00  0.00    -0.082 Cl
ATOM     16  C   UNL     1       5.184  13.350   0.929  0.00  0.00    +0.014 A 
ATOM     17  C   UNL     1       4.709  12.081   1.174  0.00  0.00    +0.038 A 
ENDBRANCH   9  11
ENDBRANCH   5   7
ENDBRANCH   3   6
ENDBRANCH   2   3
ENDBRANCH   1   2
BRANCH   1  18
ATOM     18  C   UNL     1       5.026   6.858  -3.017  0.00  0.00    +0.004 C 
BRANCH  18  19
ATOM     19  C   UNL     1       5.147   7.377  -4.425  0.00  0.00    +0.047 C 
BRANCH  19  20
ATOM     20  C   UNL     1       4.291   6.595  -5.382  0.00  0.00    +0.220 C 
BRANCH  20  21
ATOM     21  N   UNL     1       3.336   7.490  -6.027  0.00  0.00    -0.089 NA
ATOM     22  C   UNL     1       2.496   7.064  -6.929  0.00  0.00    +0.505 C 
ATOM     23  N   UNL     1       2.172   8.064  -7.910  0.00  0.00    +0.132 NA
BRANCH  22  24
ATOM     24  N   UNL     1       2.883   5.808  -7.508  0.00  0.00    +0.011 NA
ATOM     25  C   UNL     1       1.925   5.166  -8.110  0.00  0.00    +0.510 C 
ATOM     26  N   UNL     1       0.624   5.321  -7.556  0.00  0.00    -0.063 NA
ATOM     27  N   UNL     1       2.281   4.107  -8.989  0.00  0.00    +0.133 NA
BRANCH  26  28
ATOM     28  C   UNL     1       0.504   5.837  -6.221  0.00  0.00    +0.159 A 
ATOM     29  C   UNL     1      -0.637   6.611  -6.020  0.00  0.00    +0.038 A 
ATOM     30  C   UNL     1      -1.243   6.719  -4.781  0.00  0.00    +0.014 A 
ATOM     31  C   UNL     1      -0.971   5.784  -3.815  0.00  0.00    +0.058 A 
ATOM     32 CL   UNL     1      -2.204   5.433  -2.608  0.00  0.00    -0.082 Cl
ATOM     33  C   UNL     1       0.160   5.018  -3.964  0.00  0.00    +0.014 A 
ATOM     34  C   UNL     1       0.661   4.860  -5.238  0.00  0.00    +0.038 A 
ENDBRANCH  26  28
ENDBRANCH  22  24
ENDBRANCH  20  21
ENDBRANCH  19  20
ENDBRANCH  18  19
ENDBRANCH   1  18
TORSDOF 11
ENDMDL
