MODEL 1
REMARK VINA RESULT:      -8.8      0.000      0.000
REMARK  Name = 
REMARK  10 active torsions:
REMARK  status: ('A' for Active; 'I' for Inactive)
REMARK    1  A    between atoms: C_2  and  N_5
REMARK    2  A    between atoms: N_8  and  C_9
REMARK    3  A    between atoms: C_9  and  C_10
REMARK    4  A    between atoms: C_9  and  C_34
REMARK    5  A    between atoms: C_16  and  C_17
REMARK    6  A    between atoms: N_19  and  C_20
REMARK    7  A    between atoms: C_20  and  C_21
REMARK    8  A    between atoms: C_20  and  C_26
REMARK    9  A    between atoms: C_21  and  C_22
REMARK   10  A    between atoms: C_26  and  C_28
REMARK                            x       y       z     vdW  Elec       q    Type
REMARK                         _______ _______ _______ _____ _____    ______ ____
ROOT
ATOM      1  C   UNL     1       2.545   5.304  -6.478  0.00  0.00    +0.246 C 
ATOM      2  N   UNL     1       2.132   5.692  -7.751  0.00  0.00    -0.272 N 
ATOM      3  C   UNL     1       2.050   4.845  -9.058  0.00  0.00    +0.153 C 
ATOM      4  C   UNL     1       1.962   6.281  -9.996  0.00  0.00    +0.029 C 
ATOM      5  C   UNL     1       0.307   6.212 -10.379  0.00  0.00    +0.004 C 
ATOM      6  C   UNL     1      -0.032   7.354 -11.284  0.00  0.00    +0.000 C 
ATOM      7  C   UNL     1      -0.364   4.995 -10.251  0.00  0.00    +0.000 C 
ATOM      8  C   UNL     1       0.830   7.046  -8.992  0.00  0.00    +0.022 C 
ATOM      9  C   UNL     1       0.669   5.793  -7.948  0.00  0.00    +0.094 C 
ATOM     10  O   UNL     1       3.189   4.354  -6.097  0.00  0.00    -0.273 OA
ENDROOT
BRANCH   3  11
ATOM     11  C   UNL     1       3.628   4.769  -9.355  0.00  0.00    +0.260 C 
ATOM     12  N   UNL     1       3.696   4.871 -10.783  0.00  0.00    -0.198 NA
ATOM     13  O   UNL     1       4.270   3.785  -9.010  0.00  0.00    -0.272 OA
BRANCH  12  14
ATOM     14  C   UNL     1       5.102   5.088 -11.453  0.00  0.00    +0.161 C 
BRANCH  14  15
ATOM     15  C   UNL     1       4.394   5.285 -12.897  0.00  0.00    +0.249 C 
ATOM     16  O   UNL     1       3.395   6.016 -12.927  0.00  0.00    -0.285 OA
BRANCH  15  17
ATOM     17  C   UNL     1       5.364   5.622 -13.956  0.00  0.00    +0.321 C 
ATOM     18  O   UNL     1       6.481   5.083 -13.968  0.00  0.00    -0.263 OA
ATOM     19  N   UNL     1       5.064   6.548 -14.992  0.00  0.00    -0.081 NA
ENDBRANCH  15  17
ENDBRANCH  14  15
BRANCH  14  20
ATOM     20  C   UNL     1       5.150   6.704 -11.150  0.00  0.00    +0.030 C 
BRANCH  20  21
ATOM     21  C   UNL     1       6.252   6.978 -10.203  0.00  0.00    +0.002 C 
ATOM     22  C   UNL     1       7.236   5.809 -10.299  0.00  0.00    +0.000 C 
ATOM     23  C   UNL     1       7.926   6.632 -11.387  0.00  0.00    +0.000 C 
ATOM     24  C   UNL     1       7.379   7.861 -10.665  0.00  0.00    +0.000 C 
ENDBRANCH  20  21
ENDBRANCH  14  20
ENDBRANCH  12  14
ENDBRANCH   3  11
BRANCH   1  25
ATOM     25  C   UNL     1       1.772   6.251  -5.413  0.00  0.00    +0.173 C 
BRANCH  25  28
ATOM     26  N   UNL     1      -0.766   5.092  -2.874  0.00  0.00    -0.191 NA
ATOM     27  C   UNL     1      -0.118   5.542  -4.071  0.00  0.00    +0.340 C 
ATOM     28  N   UNL     1       1.165   5.084  -4.529  0.00  0.00    -0.180 NA
ATOM     29  O   UNL     1      -0.969   5.716  -4.998  0.00  0.00    -0.249 OA
BRANCH  26  31
ATOM     30  C   UNL     1      -2.233   5.596  -1.991  0.00  0.00    +0.022 C 
ATOM     31  C   UNL     1      -2.068   5.682  -2.528  0.00  0.00    +0.080 C 
ATOM     32  C   UNL     1      -2.009   7.205  -2.641  0.00  0.00    +0.022 C 
ATOM     33  C   UNL     1      -3.098   5.130  -3.514  0.00  0.00    +0.022 C 
ENDBRANCH  26  31
ENDBRANCH  25  28
BRANCH  25  34
ATOM     34  C   UNL     1       3.069   6.495  -4.439  0.00  0.00    +0.027 C 
ATOM     35  C   UNL     1       3.330   5.202  -3.739  0.00  0.00    +0.002 C 
ATOM     36  C   UNL     1       2.440   7.435  -3.410  0.00  0.00    +0.002 C 
ATOM     37  C   UNL     1       4.156   7.161  -5.101  0.00  0.00    +0.002 C 
ENDBRANCH  25  34
ENDBRANCH   1  25
TORSDOF 10
ENDMDL
MODEL 2
REMARK VINA RESULT:      -8.6      2.079      9.547
REMARK  Name = 
REMARK  10 active torsions:
REMARK  status: ('A' for Active; 'I' for Inactive)
REMARK    1  A    between atoms: C_2  and  N_5
REMARK    2  A    between atoms: N_8  and  C_9
REMARK    3  A    between atoms: C_9  and  C_10
REMARK    4  A    between atoms: C_9  and  C_34
REMARK    5  A    between atoms: C_16  and  C_17
REMARK    6  A    between atoms: N_19  and  C_20
REMARK    7  A    between atoms: C_20  and  C_21
REMARK    8  A    between atoms: C_20  and  C_26
REMARK    9  A    between atoms: C_21  and  C_22
REMARK   10  A    between atoms: C_26  and  C_28
REMARK                            x       y       z     vdW  Elec       q    Type
REMARK                         _______ _______ _______ _____ _____    ______ ____
ROOT
ATOM      1  C   UNL     1       3.391   5.137  -7.750  0.00  0.00    +0.246 C 
ATOM      2  N   UNL     1       3.415   5.687  -6.470  0.00  0.00    -0.272 N 
ATOM      3  C   UNL     1       3.129   5.000  -5.099  0.00  0.00    +0.153 C 
ATOM      4  C   UNL     1       2.923   6.535  -4.359  0.00  0.00    +0.029 C 
ATOM      5  C   UNL     1       4.399   6.591  -3.517  0.00  0.00    +0.004 C 
ATOM      6  C   UNL     1       4.448   7.844  -2.701  0.00  0.00    +0.000 C 
ATOM      7  C   UNL     1       5.095   5.402  -3.298  0.00  0.00    +0.000 C 
ATOM      8  C   UNL     1       4.286   7.236  -5.087  0.00  0.00    +0.022 C 
ATOM      9  C   UNL     1       4.758   5.881  -5.879  0.00  0.00    +0.094 C 
ATOM     10  O   UNL     1       2.897   4.120  -8.178  0.00  0.00    -0.273 OA
ENDROOT
BRANCH   3  11
ATOM     11  C   UNL     1       1.533   4.881  -5.255  0.00  0.00    +0.260 C 
ATOM     12  N   UNL     1       1.065   4.987  -3.905  0.00  0.00    -0.198 NA
ATOM     13  O   UNL     1       1.039   3.878  -5.755  0.00  0.00    -0.272 OA
BRANCH  12  14
ATOM     14  C   UNL     1      -0.477   5.169  -3.659  0.00  0.00    +0.161 C 
BRANCH  14  15
ATOM     15  C   UNL     1      -0.213   5.347  -2.070  0.00  0.00    +0.249 C 
ATOM     16  O   UNL     1       0.728   6.084  -1.747  0.00  0.00    -0.285 OA
BRANCH  15  17
ATOM     17  C   UNL     1      -1.448   5.660  -1.327  0.00  0.00    +0.321 C 
ATOM     18  O   UNL     1      -2.493   5.039  -1.572  0.00  0.00    -0.263 OA
ATOM     19  N   UNL     1      -1.490   6.653  -0.311  0.00  0.00    -0.081 NA
ENDBRANCH  15  17
ENDBRANCH  14  15
BRANCH  14  20
ATOM     20  C   UNL     1      -0.471   6.790  -3.939  0.00  0.00    +0.030 C 
BRANCH  20  21
ATOM     21  C   UNL     1      -1.302   7.071  -5.128  0.00  0.00    +0.002 C 
ATOM     22  C   UNL     1      -2.366   5.973  -5.210  0.00  0.00    +0.000 C 
ATOM     23  C   UNL     1      -3.224   6.903  -4.354  0.00  0.00    +0.000 C 
ATOM     24  C   UNL     1      -2.436   8.048  -4.985  0.00  0.00    +0.000 C 
ENDBRANCH  20  21
ENDBRANCH  14  20
ENDBRANCH  12  14
ENDBRANCH   3  11
BRANCH   1  25
ATOM     25  C   UNL     1       4.424   5.994  -8.659  0.00  0.00    +0.173 C 
BRANCH  25  28
ATOM     26  N   UNL     1       5.974   4.985 -11.947  0.00  0.00    -0.191 NA
ATOM     27  C   UNL     1       5.755   5.322 -10.572  0.00  0.00    +0.340 C 
ATOM     28  N   UNL     1       4.615   4.909  -9.799  0.00  0.00    -0.180 NA
ATOM     29  O   UNL     1       6.851   5.309  -9.930  0.00  0.00    -0.249 OA
BRANCH  26  31
ATOM     30  C   UNL     1       7.648   5.203 -12.528  0.00  0.00    +0.022 C 
ATOM     31  C   UNL     1       7.178   5.513 -12.606  0.00  0.00    +0.080 C 
ATOM     32  C   UNL     1       6.998   5.509 -14.125  0.00  0.00    +0.022 C 
ATOM     33  C   UNL     1       7.379   6.947 -12.114  0.00  0.00    +0.022 C 
ENDBRANCH  26  31
ENDBRANCH  25  28
BRANCH  25  34
ATOM     34  C   UNL     1       3.272   6.834  -9.468  0.00  0.00    +0.027 C 
ATOM     35  C   UNL     1       2.578   5.861 -10.364  0.00  0.00    +0.002 C 
ATOM     36  C   UNL     1       4.166   7.696 -10.361  0.00  0.00    +0.002 C 
ATOM     37  C   UNL     1       2.483   7.679  -8.615  0.00  0.00    +0.002 C 
ENDBRANCH  25  34
ENDBRANCH   1  25
TORSDOF 10
ENDMDL
MODEL 3
REMARK VINA RESULT:      -8.5      2.279      5.151
REMARK  Name = 
REMARK  10 active torsions:
REMARK  status: ('A' for Active; 'I' for Inactive)
REMARK    1  A    between atoms: C_2  and  N_5
REMARK    2  A    between atoms: N_8  and  C_9
REMARK    3  A    between atoms: C_9  and  C_10
REMARK    4  A    between atoms: C_9  and  C_34
REMARK    5  A    between atoms: C_16  and  C_17
REMARK    6  A    between atoms: N_19  and  C_20
REMARK    7  A    between atoms: C_20  and  C_21
REMARK    8  A    between atoms: C_20  and  C_26
REMARK    9  A    between atoms: C_21  and  C_22
REMARK   10  A    between atoms: C_26  and  C_28
REMARK                            x       y       z     vdW  Elec       q    Type
REMARK                         _______ _______ _______ _____ _____    ______ ____
ROOT
ATOM      1  C   UNL     1      -0.022   6.954  -4.968  0.00  0.00    +0.246 C 
ATOM      2  N   UNL     1       1.250   6.392  -5.054  0.00  0.00    -0.272 N 
ATOM      3  C   UNL     1       2.592   7.058  -5.486  0.00  0.00    +0.153 C 
ATOM      4  C   UNL     1       3.296   5.511  -5.725  0.00  0.00    +0.029 C 
ATOM      5  C   UNL     1       4.276   5.480  -4.336  0.00  0.00    +0.004 C 
ATOM      6  C   UNL     1       5.084   4.221  -4.336  0.00  0.00    +0.000 C 
ATOM      7  C   UNL     1       4.571   6.683  -3.693  0.00  0.00    +0.000 C 
ATOM      8  C   UNL     1       2.698   4.849  -4.283  0.00  0.00    +0.022 C 
ATOM      9  C   UNL     1       1.965   6.222  -3.769  0.00  0.00    +0.094 C 
ATOM     10  O   UNL     1      -0.487   7.964  -5.442  0.00  0.00    -0.273 OA
ENDROOT
BRANCH   3  11
ATOM     11  C   UNL     1       2.284   7.142  -7.062  0.00  0.00    +0.260 C 
ATOM     12  N   UNL     1       3.561   6.880  -7.657  0.00  0.00    -0.198 NA
ATOM     13  O   UNL     1       1.840   8.175  -7.546  0.00  0.00    -0.272 OA
BRANCH  12  14
ATOM     14  C   UNL     1       3.626   6.624  -9.208  0.00  0.00    +0.161 C 
BRANCH  14  15
ATOM     15  C   UNL     1       4.912   5.658  -9.004  0.00  0.00    +0.249 C 
ATOM     16  O   UNL     1       4.674   4.480  -8.703  0.00  0.00    -0.285 OA
BRANCH  15  17
ATOM     17  C   UNL     1       5.877   5.767 -10.114  0.00  0.00    +0.321 C 
ATOM     18  O   UNL     1       5.488   5.655 -11.286  0.00  0.00    -0.263 OA
ATOM     19  N   UNL     1       7.260   6.014  -9.895  0.00  0.00    -0.081 NA
ENDBRANCH  15  17
ENDBRANCH  14  15
BRANCH  14  20
ATOM     20  C   UNL     1       2.561   5.371  -9.186  0.00  0.00    +0.030 C 
BRANCH  20  21
ATOM     21  C   UNL     1       1.733   5.429 -10.409  0.00  0.00    +0.002 C 
ATOM     22  C   UNL     1       0.494   4.564 -10.161  0.00  0.00    +0.000 C 
ATOM     23  C   UNL     1      -0.149   5.844  -9.630  0.00  0.00    +0.000 C 
ATOM     24  C   UNL     1       0.792   6.591 -10.572  0.00  0.00    +0.000 C 
ENDBRANCH  20  21
ENDBRANCH  14  20
ENDBRANCH  12  14
ENDBRANCH   3  11
BRANCH   1  25
ATOM     25  C   UNL     1      -0.835   6.130  -3.832  0.00  0.00    +0.173 C 
BRANCH  25  28
ATOM     26  N   UNL     1      -1.971   7.593  -0.546  0.00  0.00    -0.191 NA
ATOM     27  C   UNL     1      -1.194   7.025  -1.607  0.00  0.00    +0.340 C 
ATOM     28  N   UNL     1      -1.311   7.388  -2.993  0.00  0.00    -0.180 NA
ATOM     29  O   UNL     1      -0.001   6.817  -1.223  0.00  0.00    -0.249 OA
BRANCH  26  31
ATOM     30  C   UNL     1      -1.724   6.524   0.863  0.00  0.00    +0.022 C 
ATOM     31  C   UNL     1      -1.753   7.091   0.819  0.00  0.00    +0.080 C 
ATOM     32  C   UNL     1      -0.395   7.556   1.346  0.00  0.00    +0.022 C 
ATOM     33  C   UNL     1      -2.869   7.653   1.699  0.00  0.00    +0.022 C 
ENDBRANCH  26  31
ENDBRANCH  25  28
BRANCH  25  34
ATOM     34  C   UNL     1      -2.229   6.006  -4.687  0.00  0.00    +0.027 C 
ATOM     35  C   UNL     1      -2.883   7.346  -4.641  0.00  0.00    +0.002 C 
ATOM     36  C   UNL     1      -3.021   5.096  -3.747  0.00  0.00    +0.002 C 
ATOM     37  C   UNL     1      -2.058   5.357  -5.957  0.00  0.00    +0.002 C 
ENDBRANCH  25  34
ENDBRANCH   1  25
TORSDOF 10
ENDMDL
MODEL 4
REMARK VINA RESULT:      -8.4      2.053      9.248
REMARK  Name = 
REMARK  10 active torsions:
REMARK  status: ('A' for Active; 'I' for Inactive)
REMARK    1  A    between atoms: C_2  and  N_5
REMARK    2  A    between atoms: N_8  and  C_9
REMARK    3  A    between atoms: C_9  and  C_10
REMARK    4  A    between atoms: C_9  and  C_34
REMARK    5  A    between atoms: C_16  and  C_17
REMARK    6  A    between atoms: N_19  and  C_20
REMARK    7  A    between atoms: C_20  and  C_21
REMARK    8  A    between atoms: C_20  and  C_26
REMARK    9  A    between atoms: C_21  and  C_22
REMARK   10  A    between atoms: C_26  and  C_28
REMARK                            x       y       z     vdW  Elec       q    Type
REMARK                         _______ _______ _______ _____ _____    ______ ____
ROOT
ATOM      1  C   UNL     1       2.245   5.227  -8.215  0.00  0.00    +0.246 C 
ATOM      2  N   UNL     1       2.673   5.783  -7.011  0.00  0.00    -0.272 N 
ATOM      3  C   UNL     1       2.839   5.103  -5.617  0.00  0.00    +0.153 C 
ATOM      4  C   UNL     1       2.875   6.642  -4.857  0.00  0.00    +0.029 C 
ATOM      5  C   UNL     1       4.542   6.704  -4.528  0.00  0.00    +0.004 C 
ATOM      6  C   UNL     1       4.844   7.961  -3.775  0.00  0.00    +0.000 C 
ATOM      7  C   UNL     1       5.275   5.517  -4.535  0.00  0.00    +0.000 C 
ATOM      8  C   UNL     1       3.934   7.340  -5.983  0.00  0.00    +0.022 C 
ATOM      9  C   UNL     1       4.134   5.982  -6.878  0.00  0.00    +0.094 C 
ATOM     10  O   UNL     1       1.644   4.207  -8.458  0.00  0.00    -0.273 OA
ENDROOT
BRANCH   3  11
ATOM     11  C   UNL     1       1.277   4.982  -5.258  0.00  0.00    +0.260 C 
ATOM     12  N   UNL     1       1.269   5.020  -3.825  0.00  0.00    -0.198 NA
ATOM     13  O   UNL     1       0.639   4.001  -5.619  0.00  0.00    -0.272 OA
BRANCH  12  14
ATOM     14  C   UNL     1      -0.111   5.180  -3.088  0.00  0.00    +0.161 C 
BRANCH  14  15
ATOM     15  C   UNL     1       0.596   6.079  -1.940  0.00  0.00    +0.249 C 
ATOM     16  O   UNL     1      -0.159   6.617  -1.118  0.00  0.00    -0.285 OA
BRANCH  15  17
ATOM     17  C   UNL     1       1.719   5.377  -1.289  0.00  0.00    +0.321 C 
ATOM     18  O   UNL     1       1.534   4.271  -0.759  0.00  0.00    -0.263 OA
ATOM     19  N   UNL     1       3.033   5.917  -1.256  0.00  0.00    -0.081 NA
ENDBRANCH  15  17
ENDBRANCH  14  15
BRANCH  14  20
ATOM     20  C   UNL     1      -0.582   6.492  -3.960  0.00  0.00    +0.030 C 
BRANCH  20  21
ATOM     21  C   UNL     1      -2.057   6.501  -4.049  0.00  0.00    +0.002 C 
ATOM     22  C   UNL     1      -2.435   7.346  -5.268  0.00  0.00    +0.000 C 
ATOM     23  C   UNL     1      -2.367   6.035  -6.051  0.00  0.00    +0.000 C 
ATOM     24  C   UNL     1      -2.732   5.347  -4.738  0.00  0.00    +0.000 C 
ENDBRANCH  20  21
ENDBRANCH  14  20
ENDBRANCH  12  14
ENDBRANCH   3  11
BRANCH   1  25
ATOM     25  C   UNL     1       2.934   6.080  -9.409  0.00  0.00    +0.173 C 
BRANCH  25  28
ATOM     26  N   UNL     1       5.484   4.851 -11.902  0.00  0.00    -0.191 NA
ATOM     27  C   UNL     1       4.838   5.442 -10.768  0.00  0.00    +0.340 C 
ATOM     28  N   UNL     1       3.714   4.872 -10.077  0.00  0.00    -0.180 NA
ATOM     29  O   UNL     1       5.692   5.993 -10.006  0.00  0.00    -0.249 OA
BRANCH  26  31
ATOM     30  C   UNL     1       6.673   5.484 -13.074  0.00  0.00    +0.022 C 
ATOM     31  C   UNL     1       6.605   5.577 -12.517  0.00  0.00    +0.080 C 
ATOM     32  C   UNL     1       6.371   7.085 -12.435  0.00  0.00    +0.022 C 
ATOM     33  C   UNL     1       7.871   5.208 -11.742  0.00  0.00    +0.022 C 
ENDBRANCH  26  31
ENDBRANCH  25  28
BRANCH  25  34
ATOM     34  C   UNL     1       1.654   5.992 -10.431  0.00  0.00    +0.027 C 
ATOM     35  C   UNL     1       2.053   6.702 -11.682  0.00  0.00    +0.002 C 
ATOM     36  C   UNL     1       0.678   6.911  -9.694  0.00  0.00    +0.002 C 
ATOM     37  C   UNL     1       1.095   4.673 -10.527  0.00  0.00    +0.002 C 
ENDBRANCH  25  34
ENDBRANCH   1  25
TORSDOF 10
ENDMDL
MODEL 5
REMARK VINA RESULT:      -8.3      2.777     10.114
REMARK  Name = 
REMARK  10 active torsions:
REMARK  status: ('A' for Active; 'I' for Inactive)
REMARK    1  A    between atoms: C_2  and  N_5
REMARK    2  A    between atoms: N_8  and  C_9
REMARK    3  A    between atoms: C_9  and  C_10
REMARK    4  A    between atoms: C_9  and  C_34
REMARK    5  A    between atoms: C_16  and  C_17
REMARK    6  A    between atoms: N_19  and  C_20
REMARK    7  A    between atoms: C_20  and  C_21
REMARK    8  A    between atoms: C_20  and  C_26
REMARK    9  A    between atoms: C_21  and  C_22
REMARK   10  A    between atoms: C_26  and  C_28
REMARK                            x       y       z     vdW  Elec       q    Type
REMARK                         _______ _______ _______ _____ _____    ______ ____
ROOT
ATOM      1  C   UNL     1       2.016   5.449  -4.775  0.00  0.00    +0.246 C 
ATOM      2  N   UNL     1       2.269   6.112  -3.576  0.00  0.00    -0.272 N 
ATOM      3  C   UNL     1       2.341   5.534  -2.129  0.00  0.00    +0.153 C 
ATOM      4  C   UNL     1       2.176   7.114  -1.477  0.00  0.00    +0.029 C 
ATOM      5  C   UNL     1       3.789   7.337  -0.988  0.00  0.00    +0.004 C 
ATOM      6  C   UNL     1       3.910   8.659  -0.297  0.00  0.00    +0.000 C 
ATOM      7  C   UNL     1       4.610   6.219  -0.841  0.00  0.00    +0.000 C 
ATOM      8  C   UNL     1       3.289   7.830  -2.538  0.00  0.00    +0.022 C 
ATOM      9  C   UNL     1       3.688   6.443  -3.312  0.00  0.00    +0.094 C 
ATOM     10  O   UNL     1       1.525   4.369  -5.007  0.00  0.00    -0.273 OA
ENDROOT
BRANCH   3  11
ATOM     11  C   UNL     1       0.764   5.302  -1.920  0.00  0.00    +0.260 C 
ATOM     12  N   UNL     1       0.469   6.097  -0.764  0.00  0.00    -0.198 NA
ATOM     13  O   UNL     1       0.330   4.173  -1.729  0.00  0.00    -0.272 OA
BRANCH  12  14
ATOM     14  C   UNL     1      -1.039   6.335  -0.385  0.00  0.00    +0.161 C 
BRANCH  14  15
ATOM     15  C   UNL     1      -0.629   7.662   0.449  0.00  0.00    +0.249 C 
ATOM     16  O   UNL     1      -1.347   8.659   0.287  0.00  0.00    -0.285 OA
BRANCH  15  17
ATOM     17  C   UNL     1      -0.385   7.376   1.876  0.00  0.00    +0.321 C 
ATOM     18  O   UNL     1      -1.336   7.103   2.624  0.00  0.00    -0.263 OA
ATOM     19  N   UNL     1       0.920   7.387   2.439  0.00  0.00    -0.081 NA
ENDBRANCH  15  17
ENDBRANCH  14  15
BRANCH  14  20
ATOM     20  C   UNL     1      -1.392   7.184  -1.749  0.00  0.00    +0.030 C 
BRANCH  20  21
ATOM     21  C   UNL     1      -2.718   6.759  -2.244  0.00  0.00    +0.002 C 
ATOM     22  C   UNL     1      -2.761   7.058  -3.745  0.00  0.00    +0.000 C 
ATOM     23  C   UNL     1      -2.209   5.644  -3.923  0.00  0.00    +0.000 C 
ATOM     24  C   UNL     1      -2.908   5.312  -2.607  0.00  0.00    +0.000 C 
ENDBRANCH  20  21
ENDBRANCH  14  20
ENDBRANCH  12  14
ENDBRANCH   3  11
BRANCH   1  25
ATOM     25  C   UNL     1       2.757   6.284  -5.951  0.00  0.00    +0.173 C 
BRANCH  25  28
ATOM     26  N   UNL     1       4.085   4.961  -9.224  0.00  0.00    -0.191 NA
ATOM     27  C   UNL     1       3.964   5.498  -7.901  0.00  0.00    +0.340 C 
ATOM     28  N   UNL     1       3.008   5.057  -6.922  0.00  0.00    -0.180 NA
ATOM     29  O   UNL     1       5.110   5.769  -7.424  0.00  0.00    -0.249 OA
BRANCH  26  31
ATOM     30  C   UNL     1       5.119   5.310 -10.636  0.00  0.00    +0.022 C 
ATOM     31  C   UNL     1       5.096   5.543 -10.119  0.00  0.00    +0.080 C 
ATOM     32  C   UNL     1       4.770   7.010 -10.405  0.00  0.00    +0.022 C 
ATOM     33  C   UNL     1       6.448   5.443  -9.411  0.00  0.00    +0.022 C 
ENDBRANCH  26  31
ENDBRANCH  25  28
BRANCH  25  34
ATOM     34  C   UNL     1       1.380   6.767  -6.700  0.00  0.00    +0.027 C 
ATOM     35  C   UNL     1       0.953   5.641  -7.582  0.00  0.00    +0.002 C 
ATOM     36  C   UNL     1       1.956   7.849  -7.614  0.00  0.00    +0.002 C 
ATOM     37  C   UNL     1       0.422   7.351  -5.804  0.00  0.00    +0.002 C 
ENDBRANCH  25  34
ENDBRANCH   1  25
TORSDOF 10
ENDMDL
MODEL 6
REMARK VINA RESULT:      -7.9      2.645      9.300
REMARK  Name = 
REMARK  10 active torsions:
REMARK  status: ('A' for Active; 'I' for Inactive)
REMARK    1  A    between atoms: C_2  and  N_5
REMARK    2  A    between atoms: N_8  and  C_9
REMARK    3  A    between atoms: C_9  and  C_10
REMARK    4  A    between atoms: C_9  and  C_34
REMARK    5  A    between atoms: C_16  and  C_17
REMARK    6  A    between atoms: N_19  and  C_20
REMARK    7  A    between atoms: C_20  and  C_21
REMARK    8  A    between atoms: C_20  and  C_26
REMARK    9  A    between atoms: C_21  and  C_22
REMARK   10  A    between atoms: C_26  and  C_28
REMARK                            x       y       z     vdW  Elec       q    Type
REMARK                         _______ _______ _______ _____ _____    ______ ____
ROOT
ATOM      1  C   UNL     1       2.949   6.159  -6.461  0.00  0.00    +0.246 C 
ATOM      2  N   UNL     1       1.651   6.034  -5.969  0.00  0.00    -0.272 N 
ATOM      3  C   UNL     1       1.034   6.619  -4.662  0.00  0.00    +0.153 C 
ATOM      4  C   UNL     1      -0.279   5.520  -4.776  0.00  0.00    +0.029 C 
ATOM      5  C   UNL     1      -1.465   6.622  -5.298  0.00  0.00    +0.004 C 
ATOM      6  C   UNL     1      -2.776   5.910  -5.411  0.00  0.00    +0.000 C 
ATOM      7  C   UNL     1      -1.248   7.986  -5.104  0.00  0.00    +0.000 C 
ATOM      8  C   UNL     1      -0.535   5.764  -6.435  0.00  0.00    +0.022 C 
ATOM      9  C   UNL     1       0.635   6.897  -6.612  0.00  0.00    +0.094 C 
ATOM     10  O   UNL     1       3.982   6.485  -5.924  0.00  0.00    -0.273 OA
ENDROOT
BRANCH   3  11
ATOM     11  C   UNL     1       1.755   5.622  -3.627  0.00  0.00    +0.260 C 
ATOM     12  N   UNL     1       1.520   6.245  -2.358  0.00  0.00    -0.198 NA
ATOM     13  O   UNL     1       2.954   5.397  -3.728  0.00  0.00    -0.272 OA
BRANCH  12  14
ATOM     14  C   UNL     1       1.859   5.435  -1.053  0.00  0.00    +0.161 C 
BRANCH  14  15
ATOM     15  C   UNL     1       2.605   6.732  -0.431  0.00  0.00    +0.249 C 
ATOM     16  O   UNL     1       2.235   7.094   0.695  0.00  0.00    -0.285 OA
BRANCH  15  17
ATOM     17  C   UNL     1       4.074   6.636  -0.532  0.00  0.00    +0.321 C 
ATOM     18  O   UNL     1       4.708   5.955   0.288  0.00  0.00    -0.263 OA
ATOM     19  N   UNL     1       4.808   7.293  -1.556  0.00  0.00    -0.081 NA
ENDBRANCH  15  17
ENDBRANCH  14  15
BRANCH  14  20
ATOM     20  C   UNL     1       0.434   5.777  -0.305  0.00  0.00    +0.030 C 
BRANCH  20  21
ATOM     21  C   UNL     1      -0.445   6.488  -1.258  0.00  0.00    +0.002 C 
ATOM     22  C   UNL     1      -1.776   5.733  -1.298  0.00  0.00    +0.000 C 
ATOM     23  C   UNL     1      -2.204   6.664  -0.164  0.00  0.00    +0.000 C 
ATOM     24  C   UNL     1      -1.222   7.673  -0.755  0.00  0.00    +0.000 C 
ENDBRANCH  20  21
ENDBRANCH  14  20
ENDBRANCH  12  14
ENDBRANCH   3  11
BRANCH   1  25
ATOM     25  C   UNL     1       2.865   6.036  -8.075  0.00  0.00    +0.173 C 
BRANCH  25  28
ATOM     26  N   UNL     1       5.729   5.987 -10.530  0.00  0.00    -0.191 NA
ATOM     27  C   UNL     1       4.586   6.363  -9.751  0.00  0.00    +0.340 C 
ATOM     28  N   UNL     1       4.425   6.091  -8.349  0.00  0.00    -0.180 NA
ATOM     29  O   UNL     1       4.157   7.503 -10.113  0.00  0.00    -0.249 OA
BRANCH  26  31
ATOM     30  C   UNL     1       5.556   6.840 -12.089  0.00  0.00    +0.022 C 
ATOM     31  C   UNL     1       5.727   6.312 -11.964  0.00  0.00    +0.080 C 
ATOM     32  C   UNL     1       7.149   6.257 -12.523  0.00  0.00    +0.022 C 
ATOM     33  C   UNL     1       4.854   5.272 -12.669  0.00  0.00    +0.022 C 
ENDBRANCH  26  31
ENDBRANCH  25  28
BRANCH  25  34
ATOM     34  C   UNL     1       2.782   4.399  -8.110  0.00  0.00    +0.027 C 
ATOM     35  C   UNL     1       4.049   3.917  -8.734  0.00  0.00    +0.002 C 
ATOM     36  C   UNL     1       1.680   4.224  -9.156  0.00  0.00    +0.002 C 
ATOM     37  C   UNL     1       2.359   3.827  -6.862  0.00  0.00    +0.002 C 
ENDBRANCH  25  34
ENDBRANCH   1  25
TORSDOF 10
ENDMDL
MODEL 7
REMARK VINA RESULT:      -7.8      3.173      9.376
REMARK  Name = 
REMARK  10 active torsions:
REMARK  status: ('A' for Active; 'I' for Inactive)
REMARK    1  A    between atoms: C_2  and  N_5
REMARK    2  A    between atoms: N_8  and  C_9
REMARK    3  A    between atoms: C_9  and  C_10
REMARK    4  A    between atoms: C_9  and  C_34
REMARK    5  A    between atoms: C_16  and  C_17
REMARK    6  A    between atoms: N_19  and  C_20
REMARK    7  A    between atoms: C_20  and  C_21
REMARK    8  A    between atoms: C_20  and  C_26
REMARK    9  A    between atoms: C_21  and  C_22
REMARK   10  A    between atoms: C_26  and  C_28
REMARK                            x       y       z     vdW  Elec       q    Type
REMARK                         _______ _______ _______ _____ _____    ______ ____
ROOT
ATOM      1  C   UNL     1       1.697   6.035  -6.098  0.00  0.00    +0.246 C 
ATOM      2  N   UNL     1       0.602   5.945  -5.240  0.00  0.00    -0.272 N 
ATOM      3  C   UNL     1       0.230   6.846  -4.023  0.00  0.00    +0.153 C 
ATOM      4  C   UNL     1      -0.855   5.645  -3.451  0.00  0.00    +0.029 C 
ATOM      5  C   UNL     1      -2.308   6.410  -3.891  0.00  0.00    +0.004 C 
ATOM      6  C   UNL     1      -3.459   5.576  -3.425  0.00  0.00    +0.000 C 
ATOM      7  C   UNL     1      -2.296   7.781  -4.148  0.00  0.00    +0.000 C 
ATOM      8  C   UNL     1      -1.548   5.334  -4.967  0.00  0.00    +0.022 C 
ATOM      9  C   UNL     1      -0.677   6.463  -5.775  0.00  0.00    +0.094 C 
ATOM     10  O   UNL     1       2.755   6.609  -5.991  0.00  0.00    -0.273 OA
ENDROOT
BRANCH   3  11
ATOM     11  C   UNL     1       1.348   6.295  -3.007  0.00  0.00    +0.260 C 
ATOM     12  N   UNL     1       0.926   6.821  -1.742  0.00  0.00    -0.198 NA
ATOM     13  O   UNL     1       2.525   6.589  -3.172  0.00  0.00    -0.272 OA
BRANCH  12  14
ATOM     14  C   UNL     1       1.630   6.292  -0.439  0.00  0.00    +0.161 C 
BRANCH  14  15
ATOM     15  C   UNL     1       2.564   7.615  -0.395  0.00  0.00    +0.249 C 
ATOM     16  O   UNL     1       2.133   8.573   0.261  0.00  0.00    -0.285 OA
BRANCH  15  17
ATOM     17  C   UNL     1       3.968   7.301  -0.068  0.00  0.00    +0.321 C 
ATOM     18  O   UNL     1       4.846   7.409  -0.937  0.00  0.00    -0.263 OA
ATOM     19  N   UNL     1       4.368   6.884   1.231  0.00  0.00    -0.081 NA
ENDBRANCH  15  17
ENDBRANCH  14  15
BRANCH  14  20
ATOM     20  C   UNL     1       0.514   6.928   0.588  0.00  0.00    +0.030 C 
BRANCH  20  21
ATOM     21  C   UNL     1      -0.831   6.737   0.007  0.00  0.00    +0.002 C 
ATOM     22  C   UNL     1      -1.815   6.599   1.172  0.00  0.00    +0.000 C 
ATOM     23  C   UNL     1      -1.958   8.118   1.077  0.00  0.00    +0.000 C 
ATOM     24  C   UNL     1      -1.607   7.959  -0.400  0.00  0.00    +0.000 C 
ENDBRANCH  20  21
ENDBRANCH  14  20
ENDBRANCH  12  14
ENDBRANCH   3  11
BRANCH   1  25
ATOM     25  C   UNL     1       1.243   5.408  -7.523  0.00  0.00    +0.173 C 
BRANCH  25  28
ATOM     26  N   UNL     1       1.895   6.811 -10.963  0.00  0.00    -0.191 NA
ATOM     27  C   UNL     1       1.278   6.380  -9.744  0.00  0.00    +0.340 C 
ATOM     28  N   UNL     1       1.840   6.560  -8.433  0.00  0.00    -0.180 NA
ATOM     29  O   UNL     1       0.020   6.547  -9.798  0.00  0.00    -0.249 OA
BRANCH  26  31
ATOM     30  C   UNL     1       1.535   6.543 -12.691  0.00  0.00    +0.022 C 
ATOM     31  C   UNL     1       1.204   6.523 -12.229  0.00  0.00    +0.080 C 
ATOM     32  C   UNL     1       0.676   5.088 -12.232  0.00  0.00    +0.022 C 
ATOM     33  C   UNL     1       0.037   7.504 -12.348  0.00  0.00    +0.022 C 
ENDBRANCH  26  31
ENDBRANCH  25  28
BRANCH  25  34
ATOM     34  C   UNL     1       2.543   4.422  -7.688  0.00  0.00    +0.027 C 
ATOM     35  C   UNL     1       2.283   3.565  -8.883  0.00  0.00    +0.002 C 
ATOM     36  C   UNL     1       2.347   3.535  -6.458  0.00  0.00    +0.002 C 
ATOM     37  C   UNL     1       3.797   5.116  -7.589  0.00  0.00    +0.002 C 
ENDBRANCH  25  34
ENDBRANCH   1  25
TORSDOF 10
ENDMDL
MODEL 8
REMARK VINA RESULT:      -7.4      2.568      5.699
REMARK  Name = 
REMARK  10 active torsions:
REMARK  status: ('A' for Active; 'I' for Inactive)
REMARK    1  A    between atoms: C_2  and  N_5
REMARK    2  A    between atoms: N_8  and  C_9
REMARK    3  A    between atoms: C_9  and  C_10
REMARK    4  A    between atoms: C_9  and  C_34
REMARK    5  A    between atoms: C_16  and  C_17
REMARK    6  A    between atoms: N_19  and  C_20
REMARK    7  A    between atoms: C_20  and  C_21
REMARK    8  A    between atoms: C_20  and  C_26
REMARK    9  A    between atoms: C_21  and  C_22
REMARK   10  A    between atoms: C_26  and  C_28
REMARK                            x       y       z     vdW  Elec       q    Type
REMARK                         _______ _______ _______ _____ _____    ______ ____
ROOT
ATOM      1  C   UNL     1      -0.227   5.955  -3.882  0.00  0.00    +0.246 C 
ATOM      2  N   UNL     1       1.047   5.582  -3.457  0.00  0.00    -0.272 N 
ATOM      3  C   UNL     1       2.434   5.950  -4.068  0.00  0.00    +0.153 C 
ATOM      4  C   UNL     1       3.171   4.667  -3.198  0.00  0.00    +0.029 C 
ATOM      5  C   UNL     1       3.946   5.602  -2.008  0.00  0.00    +0.004 C 
ATOM      6  C   UNL     1       4.750   4.700  -1.126  0.00  0.00    +0.000 C 
ATOM      7  C   UNL     1       4.144   6.963  -2.244  0.00  0.00    +0.000 C 
ATOM      8  C   UNL     1       2.378   5.002  -1.736  0.00  0.00    +0.022 C 
ATOM      9  C   UNL     1       1.576   6.320  -2.289  0.00  0.00    +0.094 C 
ATOM     10  O   UNL     1      -0.624   6.397  -4.935  0.00  0.00    -0.273 OA
ENDROOT
BRANCH   3  11
ATOM     11  C   UNL     1       2.350   5.000  -5.362  0.00  0.00    +0.260 C 
ATOM     12  N   UNL     1       2.362   5.933  -6.451  0.00  0.00    -0.198 NA
ATOM     13  O   UNL     1       1.395   4.249  -5.511  0.00  0.00    -0.272 OA
BRANCH  12  14
ATOM     14  C   UNL     1       2.547   5.377  -7.911  0.00  0.00    +0.161 C 
BRANCH  14  15
ATOM     15  C   UNL     1       1.704   6.628  -8.503  0.00  0.00    +0.249 C 
ATOM     16  O   UNL     1       2.276   7.727  -8.507  0.00  0.00    -0.285 OA
BRANCH  15  17
ATOM     17  C   UNL     1       1.081   6.319  -9.804  0.00  0.00    +0.321 C 
ATOM     18  O   UNL     1       1.264   5.211 -10.331  0.00  0.00    -0.263 OA
ATOM     19  N   UNL     1       0.253   7.250 -10.489  0.00  0.00    -0.081 NA
ENDBRANCH  15  17
ENDBRANCH  14  15
BRANCH  14  20
ATOM     20  C   UNL     1       3.996   6.114  -8.156  0.00  0.00    +0.030 C 
BRANCH  20  21
ATOM     21  C   UNL     1       4.906   5.163  -8.829  0.00  0.00    +0.002 C 
ATOM     22  C   UNL     1       4.752   5.377 -10.337  0.00  0.00    +0.000 C 
ATOM     23  C   UNL     1       5.881   6.396 -10.190  0.00  0.00    +0.000 C 
ATOM     24  C   UNL     1       6.346   5.561  -9.000  0.00  0.00    +0.000 C 
ENDBRANCH  20  21
ENDBRANCH  14  20
ENDBRANCH  12  14
ENDBRANCH   3  11
BRANCH   1  25
ATOM     25  C   UNL     1      -1.188   5.954  -2.577  0.00  0.00    +0.173 C 
BRANCH  25  28
ATOM     26  N   UNL     1      -1.503   8.692  -0.001  0.00  0.00    -0.191 NA
ATOM     27  C   UNL     1      -1.119   7.515  -0.723  0.00  0.00    +0.340 C 
ATOM     28  N   UNL     1      -0.919   7.455  -2.145  0.00  0.00    -0.180 NA
ATOM     29  O   UNL     1      -0.283   6.834  -0.051  0.00  0.00    -0.249 OA
BRANCH  26  31
ATOM     30  C   UNL     1      -2.035   8.978   1.679  0.00  0.00    +0.022 C 
ATOM     31  C   UNL     1      -1.698   8.580   1.453  0.00  0.00    +0.080 C 
ATOM     32  C   UNL     1      -2.412   7.272   1.795  0.00  0.00    +0.022 C 
ATOM     33  C   UNL     1      -0.314   8.599   2.104  0.00  0.00    +0.022 C 
ENDBRANCH  26  31
ENDBRANCH  25  28
BRANCH  25  34
ATOM     34  C   UNL     1      -2.569   6.295  -3.391  0.00  0.00    +0.027 C 
ATOM     35  C   UNL     1      -2.377   7.634  -4.023  0.00  0.00    +0.002 C 
ATOM     36  C   UNL     1      -3.517   6.499  -2.207  0.00  0.00    +0.002 C 
ATOM     37  C   UNL     1      -3.035   5.203  -4.199  0.00  0.00    +0.002 C 
ENDBRANCH  25  34
ENDBRANCH   1  25
TORSDOF 10
ENDMDL
MODEL 9
REMARK VINA RESULT:      -7.3      4.034     10.611
REMARK  Name = 
REMARK  10 active torsions:
REMARK  status: ('A' for Active; 'I' for Inactive)
REMARK    1  A    between atoms: C_2  and  N_5
REMARK    2  A    between atoms: N_8  and  C_9
REMARK    3  A    between atoms: C_9  and  C_10
REMARK    4  A    between atoms: C_9  and  C_34
REMARK    5  A    between atoms: C_16  and  C_17
REMARK    6  A    between atoms: N_19  and  C_20
REMARK    7  A    between atoms: C_20  and  C_21
REMARK    8  A    between atoms: C_20  and  C_26
REMARK    9  A    between atoms: C_21  and  C_22
REMARK   10  A    between atoms: C_26  and  C_28
REMARK                            x       y       z     vdW  Elec       q    Type
REMARK                         _______ _______ _______ _____ _____    ______ ____
ROOT
ATOM      1  C   UNL     1       2.045   6.334  -2.106  0.00  0.00    +0.246 C 
ATOM      2  N   UNL     1       0.659   6.186  -2.112  0.00  0.00    -0.272 N 
ATOM      3  C   UNL     1      -0.436   7.167  -1.592  0.00  0.00    +0.153 C 
ATOM      4  C   UNL     1      -1.590   5.896  -1.590  0.00  0.00    +0.029 C 
ATOM      5  C   UNL     1      -2.461   6.364  -2.973  0.00  0.00    +0.004 C 
ATOM      6  C   UNL     1      -3.612   5.429  -3.164  0.00  0.00    +0.000 C 
ATOM      7  C   UNL     1      -2.342   7.676  -3.433  0.00  0.00    +0.000 C 
ATOM      8  C   UNL     1      -1.149   5.290  -3.111  0.00  0.00    +0.022 C 
ATOM      9  C   UNL     1      -0.008   6.427  -3.411  0.00  0.00    +0.094 C 
ATOM     10  O   UNL     1       2.770   7.074  -1.485  0.00  0.00    -0.273 OA
ENDROOT
BRANCH   3  11
ATOM     11  C   UNL     1      -0.198   6.931  -0.020  0.00  0.00    +0.260 C 
ATOM     12  N   UNL     1       0.128   8.242   0.460  0.00  0.00    -0.198 NA
ATOM     13  O   UNL     1       0.670   6.156   0.359  0.00  0.00    -0.272 OA
BRANCH  12  14
ATOM     14  C   UNL     1       0.186   8.477   2.014  0.00  0.00    +0.161 C 
BRANCH  14  15
ATOM     15  C   UNL     1       1.343   9.593   1.811  0.00  0.00    +0.249 C 
ATOM     16  O   UNL     1       1.415  10.475   2.678  0.00  0.00    -0.285 OA
BRANCH  15  17
ATOM     17  C   UNL     1       2.657   8.992   1.515  0.00  0.00    +0.321 C 
ATOM     18  O   UNL     1       3.409   9.526   0.686  0.00  0.00    -0.263 OA
ATOM     19  N   UNL     1       3.114   7.812   2.161  0.00  0.00    -0.081 NA
ENDBRANCH  15  17
ENDBRANCH  14  15
BRANCH  14  20
ATOM     20  C   UNL     1      -1.022   9.593   2.030  0.00  0.00    +0.030 C 
BRANCH  20  21
ATOM     21  C   UNL     1      -1.929   9.297   3.159  0.00  0.00    +0.002 C 
ATOM     22  C   UNL     1      -3.359   9.538   2.670  0.00  0.00    +0.000 C 
ATOM     23  C   UNL     1      -3.343   8.066   2.259  0.00  0.00    +0.000 C 
ATOM     24  C   UNL     1      -2.333   7.866   3.386  0.00  0.00    +0.000 C 
ENDBRANCH  20  21
ENDBRANCH  14  20
ENDBRANCH  12  14
ENDBRANCH   3  11
BRANCH   1  25
ATOM     25  C   UNL     1       2.624   5.466  -3.347  0.00  0.00    +0.173 C 
BRANCH  25  28
ATOM     26  N   UNL     1       3.668   6.753  -6.737  0.00  0.00    -0.191 NA
ATOM     27  C   UNL     1       2.939   6.182  -5.642  0.00  0.00    +0.340 C 
ATOM     28  N   UNL     1       2.947   6.692  -4.299  0.00  0.00    -0.180 NA
ATOM     29  O   UNL     1       1.805   5.763  -6.033  0.00  0.00    -0.249 OA
BRANCH  26  31
ATOM     30  C   UNL     1       3.166   5.703  -8.091  0.00  0.00    +0.022 C 
ATOM     31  C   UNL     1       3.579   6.092  -8.047  0.00  0.00    +0.080 C 
ATOM     32  C   UNL     1       3.226   7.109  -9.133  0.00  0.00    +0.022 C 
ATOM     33  C   UNL     1       4.947   5.475  -8.343  0.00  0.00    +0.022 C 
ENDBRANCH  26  31
ENDBRANCH  25  28
BRANCH  25  34
ATOM     34  C   UNL     1       4.152   5.346  -2.763  0.00  0.00    +0.027 C 
ATOM     35  C   UNL     1       4.794   6.679  -2.961  0.00  0.00    +0.002 C 
ATOM     36  C   UNL     1       4.751   4.408  -3.812  0.00  0.00    +0.002 C 
ATOM     37  C   UNL     1       4.216   4.728  -1.469  0.00  0.00    +0.002 C 
ENDBRANCH  25  34
ENDBRANCH   1  25
TORSDOF 10
ENDMDL
