MODEL 1
REMARK VINA RESULT:      -6.0      0.000      0.000
REMARK  Name = 
REMARK  9 active torsions:
REMARK  status: ('A' for Active; 'I' for Inactive)
REMARK    1  A    between atoms: C_2  and  C_3
REMARK    2  A    between atoms: C_7  and  O_8
REMARK    3  A    between atoms: O_8  and  C_9
REMARK    4  A    between atoms: C_12  and  N_13
REMARK    5  A    between atoms: C_32  and  O_33
REMARK    6  A    between atoms: O_33  and  C_34
REMARK    7  A    between atoms: C_38  and  O_39
REMARK    8  A    between atoms: C_41  and  O_42
REMARK    9  A    between atoms: C_44  and  O_45
REMARK                            x       y       z     vdW  Elec       q    Type
REMARK                         _______ _______ _______ _____ _____    ______ ____
ROOT
ATOM      1  C   UNL     1       1.357   5.728 -11.457  0.00  0.00    +0.169 C 
ATOM      2  O   UNL     1       1.876   4.557 -10.606  0.00  0.00    -0.452 OA
ATOM      3  C   UNL     1       1.873   4.624  -9.264  0.00  0.00    +0.317 C 
ATOM      4  O   UNL     1       1.726   3.417  -8.832  0.00  0.00    -0.250 OA
ATOM      5  C   UNL     1       1.364   5.706  -8.429  0.00  0.00    +0.114 C 
ATOM      6  C   UNL     1       2.604   6.606  -7.854  0.00  0.00    +0.040 C 
ATOM      7  C   UNL     1       3.619   5.456  -7.390  0.00  0.00    +0.009 C 
ATOM      8  C   UNL     1       3.188   4.940  -6.337  0.00  0.00    -0.028 C 
ATOM      9  C   UNL     1       1.695   5.316  -5.991  0.00  0.00    +0.026 C 
ATOM     10  C   UNL     1       2.096   5.243  -4.375  0.00  0.00    +0.011 C 
ATOM     11  C   UNL     1       2.334   6.872  -3.989  0.00  0.00    +0.021 C 
ATOM     12  C   UNL     1       2.905   6.046  -2.719  0.00  0.00    +0.034 C 
ATOM     13  C   UNL     1       1.475   5.410  -2.198  0.00  0.00    +0.118 C 
ATOM     14  C   UNL     1       3.825   7.038  -4.572  0.00  0.00    -0.048 C 
ATOM     15  C   UNL     1       4.377   8.257  -3.880  0.00  0.00    +0.026 C 
ATOM     16  C   UNL     1       3.510   7.089  -5.805  0.00  0.00    -0.034 C 
ATOM     17  C   UNL     1       0.690   5.610  -3.643  0.00  0.00    +0.030 C 
ATOM     18  C   UNL     1       4.912   5.982  -7.915  0.00  0.00    +0.171 C 
ATOM     19  O   UNL     1       5.880   6.128  -7.250  0.00  0.00    -0.292 OA
ATOM     20  C   UNL     1       4.906   5.206  -9.312  0.00  0.00    +0.089 C 
ATOM     21  C   UNL     1       6.273   4.374  -9.031  0.00  0.00    +0.011 C 
ATOM     22  C   UNL     1       5.678   6.367 -10.300  0.00  0.00    +0.125 C 
ATOM     23  C   UNL     1       4.480   7.470 -10.125  0.00  0.00    +0.030 C 
ATOM     24  C   UNL     1       3.360   7.307 -11.033  0.00  0.00    +0.006 C 
ATOM     25  C   UNL     1       2.008   6.927  -6.301  0.00  0.00    +0.030 C 
ATOM     26  C   UNL     1       2.014   6.949 -10.588  0.00  0.00    +0.044 C 
ENDROOT
BRANCH   1  28
ATOM     27  C   UNL     1      -0.740   6.611 -11.054  0.00  0.00    +0.004 C 
ATOM     28  C   UNL     1      -0.097   5.855 -10.686  0.00  0.00    +0.044 C 
ENDBRANCH   1  28
BRANCH  22  29
ATOM     29  O   UNL     1       5.022   5.811 -11.530  0.00  0.00    -0.333 OA
BRANCH  29  30
ATOM     30  C   UNL     1       6.191   5.346 -12.383  0.00  0.00    +0.235 C 
ATOM     31  O   UNL     1       6.086   6.537 -13.345  0.00  0.00    -0.332 OA
ATOM     32  C   UNL     1       5.342   5.972 -14.522  0.00  0.00    +0.132 C 
ATOM     33  C   UNL     1       5.384   7.408 -15.303  0.00  0.00    +0.034 C 
ATOM     34  C   UNL     1       3.906   6.268 -13.620  0.00  0.00    +0.085 C 
ATOM     35  C   UNL     1       3.879   4.650 -13.355  0.00  0.00    +0.024 C 
ATOM     36  C   UNL     1       5.233   4.250 -13.192  0.00  0.00    +0.063 C 
BRANCH  34  37
ATOM     37  N   UNL     1       2.876   6.184 -14.786  0.00  0.00    -0.269 NA
ATOM     38  C   UNL     1       1.941   7.223 -14.312  0.00  0.00    +0.090 C 
ATOM     39  C   UNL     1       2.093   5.046 -14.250  0.00  0.00    +0.090 C 
ENDBRANCH  34  37
ENDBRANCH  29  30
ENDBRANCH  22  29
BRANCH  13  40
ATOM     40  O   UNL     1       1.159   6.749  -1.509  0.00  0.00    -0.331 OA
BRANCH  40  41
ATOM     41  C   UNL     1       2.031   6.169  -0.379  0.00  0.00    +0.266 C 
ATOM     42  C   UNL     1       3.084   7.532  -0.216  0.00  0.00    +0.201 C 
ATOM     43  C   UNL     1       2.010   8.833  -0.039  0.00  0.00    +0.177 C 
ATOM     44  C   UNL     1       1.365   8.438   1.469  0.00  0.00    +0.172 C 
ATOM     45  C   UNL     1       0.242   7.534   0.546  0.00  0.00    +0.147 C 
ATOM     46  C   UNL     1      -0.589   7.248   1.936  0.00  0.00    +0.035 C 
ATOM     47  O   UNL     1       1.140   6.392   0.800  0.00  0.00    -0.329 OA
BRANCH  42  48
ATOM     48  O   UNL     1       3.381   7.250   1.227  0.00  0.00    -0.346 OA
ATOM     49  C   UNL     1       4.750   7.036   0.909  0.00  0.00    +0.174 C 
ENDBRANCH  42  48
BRANCH  44  50
ATOM     50  O   UNL     1       0.473   9.641   1.446  0.00  0.00    -0.349 OA
ATOM     51  C   UNL     1       0.805  10.208   2.682  0.00  0.00    +0.174 C 
ENDBRANCH  44  50
BRANCH  43  52
ATOM     52  O   UNL     1       3.119   9.599   0.633  0.00  0.00    -0.348 OA
ATOM     53  C   UNL     1       3.367  10.752   0.034  0.00  0.00    +0.174 C 
ENDBRANCH  43  52
ENDBRANCH  40  41
ENDBRANCH  13  40
TORSDOF 9
ENDMDL
MODEL 2
REMARK VINA RESULT:      -5.0      3.250     11.815
REMARK  Name = 
REMARK  9 active torsions:
REMARK  status: ('A' for Active; 'I' for Inactive)
REMARK    1  A    between atoms: C_2  and  C_3
REMARK    2  A    between atoms: C_7  and  O_8
REMARK    3  A    between atoms: O_8  and  C_9
REMARK    4  A    between atoms: C_12  and  N_13
REMARK    5  A    between atoms: C_32  and  O_33
REMARK    6  A    between atoms: O_33  and  C_34
REMARK    7  A    between atoms: C_38  and  O_39
REMARK    8  A    between atoms: C_41  and  O_42
REMARK    9  A    between atoms: C_44  and  O_45
REMARK                            x       y       z     vdW  Elec       q    Type
REMARK                         _______ _______ _______ _____ _____    ______ ____
ROOT
ATOM      1  C   UNL     1       3.513   6.154  -3.970  0.00  0.00    +0.169 C 
ATOM      2  O   UNL     1       3.074   4.905  -4.752  0.00  0.00    -0.452 OA
ATOM      3  C   UNL     1       2.944   4.938  -6.089  0.00  0.00    +0.317 C 
ATOM      4  O   UNL     1       3.206   3.748  -6.517  0.00  0.00    -0.250 OA
ATOM      5  C   UNL     1       3.229   6.054  -6.983  0.00  0.00    +0.114 C 
ATOM      6  C   UNL     1       1.835   6.773  -7.450  0.00  0.00    +0.040 C 
ATOM      7  C   UNL     1       0.939   5.491  -7.799  0.00  0.00    +0.009 C 
ATOM      8  C   UNL     1       1.334   5.008  -8.882  0.00  0.00    -0.028 C 
ATOM      9  C   UNL     1       2.727   5.563  -9.373  0.00  0.00    +0.026 C 
ATOM     10  C   UNL     1       2.191   5.398 -10.943  0.00  0.00    +0.011 C 
ATOM     11  C   UNL     1       1.709   6.973 -11.326  0.00  0.00    +0.021 C 
ATOM     12  C   UNL     1       1.135   6.049 -12.525  0.00  0.00    +0.034 C 
ATOM     13  C   UNL     1       2.581   5.588 -13.171  0.00  0.00    +0.118 C 
ATOM     14  C   UNL     1       0.269   6.961 -10.606  0.00  0.00    -0.048 C 
ATOM     15  C   UNL     1      -0.498   8.082 -11.259  0.00  0.00    +0.026 C 
ATOM     16  C   UNL     1       0.688   7.084  -9.409  0.00  0.00    -0.034 C 
ATOM     17  C   UNL     1       3.464   5.923 -11.810  0.00  0.00    +0.030 C 
ATOM     18  C   UNL     1      -0.357   5.860  -7.161  0.00  0.00    +0.171 C 
ATOM     19  O   UNL     1      -1.394   5.864  -7.732  0.00  0.00    -0.292 OA
ATOM     20  C   UNL     1      -0.121   5.127  -5.761  0.00  0.00    +0.089 C 
ATOM     21  C   UNL     1      -1.389   4.121  -5.899  0.00  0.00    +0.011 C 
ATOM     22  C   UNL     1      -0.943   6.205  -4.720  0.00  0.00    +0.125 C 
ATOM     23  C   UNL     1       0.081   7.447  -5.022  0.00  0.00    +0.030 C 
ATOM     24  C   UNL     1       1.292   7.453  -4.223  0.00  0.00    +0.006 C 
ATOM     25  C   UNL     1       2.237   7.128  -9.057  0.00  0.00    +0.030 C 
ATOM     26  C   UNL     1       2.625   7.258  -4.788  0.00  0.00    +0.044 C 
ENDROOT
BRANCH   1  28
ATOM     27  C   UNL     1       5.505   7.197  -4.502  0.00  0.00    +0.004 C 
ATOM     28  C   UNL     1       4.861   6.446  -4.877  0.00  0.00    +0.044 C 
ENDBRANCH   1  28
BRANCH  22  29
ATOM     29  O   UNL     1      -0.109   5.769  -3.550  0.00  0.00    -0.333 OA
BRANCH  29  30
ATOM     30  C   UNL     1      -1.119   5.147  -2.599  0.00  0.00    +0.235 C 
ATOM     31  O   UNL     1      -1.259   6.424  -1.761  0.00  0.00    -0.332 OA
ATOM     32  C   UNL     1      -0.374   6.163  -0.575  0.00  0.00    +0.132 C 
ATOM     33  C   UNL     1      -0.719   7.627   0.068  0.00  0.00    +0.034 C 
ATOM     34  C   UNL     1       0.932   6.676  -1.571  0.00  0.00    +0.085 C 
ATOM     35  C   UNL     1       1.316   5.086  -1.683  0.00  0.00    +0.024 C 
ATOM     36  C   UNL     1       0.084   4.381  -1.739  0.00  0.00    +0.063 C 
BRANCH  34  37
ATOM     37  N   UNL     1       1.986   6.944  -0.455  0.00  0.00    -0.269 NA
ATOM     38  C   UNL     1       2.697   8.061  -1.107  0.00  0.00    +0.090 C 
ATOM     39  C   UNL     1       2.956   5.905  -0.874  0.00  0.00    +0.090 C 
ENDBRANCH  34  37
ENDBRANCH  29  30
ENDBRANCH  22  29
BRANCH  13  40
ATOM     40  O   UNL     1       2.655   6.938 -13.905  0.00  0.00    -0.331 OA
BRANCH  40  41
ATOM     41  C   UNL     1       1.953   6.160 -15.035  0.00  0.00    +0.266 C 
ATOM     42  C   UNL     1       0.808   7.391 -15.446  0.00  0.00    +0.201 C 
ATOM     43  C   UNL     1       1.780   8.763 -15.674  0.00  0.00    +0.177 C 
ATOM     44  C   UNL     1       2.604   8.275 -17.063  0.00  0.00    +0.172 C 
ATOM     45  C   UNL     1       3.702   7.586 -15.945  0.00  0.00    +0.147 C 
ATOM     46  C   UNL     1       4.689   7.236 -17.213  0.00  0.00    +0.035 C 
ATOM     47  O   UNL     1       2.935   6.342 -16.147  0.00  0.00    -0.329 OA
BRANCH  42  48
ATOM     48  O   UNL     1       0.683   6.930 -16.869  0.00  0.00    -0.346 OA
ATOM     49  C   UNL     1      -0.722   6.788 -16.704  0.00  0.00    +0.174 C 
ENDBRANCH  42  48
BRANCH  44  50
ATOM     50  O   UNL     1       3.382   9.553 -17.098  0.00  0.00    -0.349 OA
ATOM     51  C   UNL     1       3.180   9.920 -18.434  0.00  0.00    +0.174 C 
ENDBRANCH  44  50
BRANCH  43  52
ATOM     52  O   UNL     1       0.682   9.343 -16.526  0.00  0.00    -0.348 OA
ATOM     53  C   UNL     1       0.391  10.589 -16.192  0.00  0.00    +0.174 C 
ENDBRANCH  43  52
ENDBRANCH  40  41
ENDBRANCH  13  40
TORSDOF 9
ENDMDL
MODEL 3
REMARK VINA RESULT:      -4.5      2.905     11.342
REMARK  Name = 
REMARK  9 active torsions:
REMARK  status: ('A' for Active; 'I' for Inactive)
REMARK    1  A    between atoms: C_2  and  C_3
REMARK    2  A    between atoms: C_7  and  O_8
REMARK    3  A    between atoms: O_8  and  C_9
REMARK    4  A    between atoms: C_12  and  N_13
REMARK    5  A    between atoms: C_32  and  O_33
REMARK    6  A    between atoms: O_33  and  C_34
REMARK    7  A    between atoms: C_38  and  O_39
REMARK    8  A    between atoms: C_41  and  O_42
REMARK    9  A    between atoms: C_44  and  O_45
REMARK                            x       y       z     vdW  Elec       q    Type
REMARK                         _______ _______ _______ _____ _____    ______ ____
ROOT
ATOM      1  C   UNL     1       0.244   5.580  -0.787  0.00  0.00    +0.169 C 
ATOM      2  O   UNL     1       0.340   6.912  -1.549  0.00  0.00    -0.452 OA
ATOM      3  C   UNL     1       0.477   6.935  -2.885  0.00  0.00    +0.317 C 
ATOM      4  O   UNL     1      -0.089   8.019  -3.298  0.00  0.00    -0.250 OA
ATOM      5  C   UNL     1       0.500   5.797  -3.796  0.00  0.00    +0.114 C 
ATOM      6  C   UNL     1       2.036   5.479  -4.264  0.00  0.00    +0.040 C 
ATOM      7  C   UNL     1       2.562   6.958  -4.590  0.00  0.00    +0.009 C 
ATOM      8  C   UNL     1       2.056   7.335  -5.668  0.00  0.00    -0.028 C 
ATOM      9  C   UNL     1       0.860   6.439  -6.176  0.00  0.00    +0.026 C 
ATOM     10  C   UNL     1       1.338   6.763  -7.740  0.00  0.00    +0.011 C 
ATOM     11  C   UNL     1       2.220   5.378  -8.142  0.00  0.00    +0.021 C 
ATOM     12  C   UNL     1       2.532   6.439  -9.324  0.00  0.00    +0.034 C 
ATOM     13  C   UNL     1       1.017   6.510  -9.972  0.00  0.00    +0.118 C 
ATOM     14  C   UNL     1       3.604   5.759  -7.412  0.00  0.00    -0.048 C 
ATOM     15  C   UNL     1       4.641   4.891  -8.076  0.00  0.00    +0.026 C 
ATOM     16  C   UNL     1       3.229   5.512  -6.220  0.00  0.00    -0.034 C 
ATOM     17  C   UNL     1       0.251   5.933  -8.622  0.00  0.00    +0.030 C 
ATOM     18  C   UNL     1       3.908   6.934  -3.948  0.00  0.00    +0.171 C 
ATOM     19  O   UNL     1       4.910   7.213  -4.513  0.00  0.00    -0.292 OA
ATOM     20  C   UNL     1       3.483   7.558  -2.540  0.00  0.00    +0.089 C 
ATOM     21  C   UNL     1       4.439   8.865  -2.656  0.00  0.00    +0.011 C 
ATOM     22  C   UNL     1       4.557   6.720  -1.508  0.00  0.00    +0.125 C 
ATOM     23  C   UNL     1       3.899   5.256  -1.834  0.00  0.00    +0.030 C 
ATOM     24  C   UNL     1       2.731   4.918  -1.044  0.00  0.00    +0.006 C 
ATOM     25  C   UNL     1       1.746   5.055  -5.878  0.00  0.00    +0.030 C 
ATOM     26  C   UNL     1       1.395   4.762  -1.615  0.00  0.00    +0.044 C 
ENDROOT
BRANCH   1  28
ATOM     27  C   UNL     1      -1.944   5.315  -1.480  0.00  0.00    +0.004 C 
ATOM     28  C   UNL     1      -0.975   4.955  -1.707  0.00  0.00    +0.044 C 
ENDBRANCH   1  28
BRANCH  22  29
ATOM     29  O   UNL     1       3.635   6.902  -0.338  0.00  0.00    -0.333 OA
BRANCH  29  30
ATOM     30  C   UNL     1       4.556   6.792   0.867  0.00  0.00    +0.235 C 
ATOM     31  O   UNL     1       3.394   6.692   1.864  0.00  0.00    -0.332 OA
ATOM     32  C   UNL     1       3.279   8.087   2.409  0.00  0.00    +0.132 C 
ATOM     33  C   UNL     1       2.025   7.664   3.369  0.00  0.00    +0.034 C 
ATOM     34  C   UNL     1       2.354   8.445   1.003  0.00  0.00    +0.085 C 
ATOM     35  C   UNL     1       3.695   9.214   0.459  0.00  0.00    +0.024 C 
ATOM     36  C   UNL     1       4.804   8.439   0.894  0.00  0.00    +0.063 C 
BRANCH  34  37
ATOM     37  N   UNL     1       1.687   9.766   1.492  0.00  0.00    -0.269 NA
ATOM     38  C   UNL     1       0.354   9.559   0.893  0.00  0.00    +0.090 C 
ATOM     39  C   UNL     1       2.190  10.633   0.402  0.00  0.00    +0.090 C 
ENDBRANCH  34  37
ENDBRANCH  29  30
ENDBRANCH  22  29
BRANCH  13  40
ATOM     40  O   UNL     1       1.305   5.200 -10.726  0.00  0.00    -0.331 OA
BRANCH  40  41
ATOM     41  C   UNL     1       2.516   5.985 -11.266  0.00  0.00    +0.266 C 
ATOM     42  C   UNL     1       2.979   4.835 -12.473  0.00  0.00    +0.201 C 
ATOM     43  C   UNL     1       1.538   4.568 -13.328  0.00  0.00    +0.177 C 
ATOM     44  C   UNL     1       1.368   6.090 -14.038  0.00  0.00    +0.172 C 
ATOM     45  C   UNL     1       0.532   6.466 -12.592  0.00  0.00    +0.147 C 
ATOM     46  C   UNL     1       0.132   7.912 -13.263  0.00  0.00    +0.035 C 
ATOM     47  O   UNL     1       1.828   6.995 -12.127  0.00  0.00    -0.329 OA
BRANCH  42  48
ATOM     48  O   UNL     1       3.609   5.873 -13.355  0.00  0.00    -0.346 OA
ATOM     49  C   UNL     1       4.898   5.353 -13.054  0.00  0.00    +0.174 C 
ENDBRANCH  42  48
BRANCH  44  50
ATOM     50  O   UNL     1       0.095   5.677 -14.710  0.00  0.00    -0.349 OA
ATOM     51  C   UNL     1       0.142   6.504 -15.839  0.00  0.00    +0.174 C 
ENDBRANCH  44  50
BRANCH  43  52
ATOM     52  O   UNL     1       2.370   4.113 -14.498  0.00  0.00    -0.348 OA
ATOM     53  C   UNL     1       2.485   2.796 -14.550  0.00  0.00    +0.174 C 
ENDBRANCH  43  52
ENDBRANCH  40  41
ENDBRANCH  13  40
TORSDOF 9
ENDMDL
MODEL 4
REMARK VINA RESULT:      -3.5      2.855     11.327
REMARK  Name = 
REMARK  9 active torsions:
REMARK  status: ('A' for Active; 'I' for Inactive)
REMARK    1  A    between atoms: C_2  and  C_3
REMARK    2  A    between atoms: C_7  and  O_8
REMARK    3  A    between atoms: O_8  and  C_9
REMARK    4  A    between atoms: C_12  and  N_13
REMARK    5  A    between atoms: C_32  and  O_33
REMARK    6  A    between atoms: O_33  and  C_34
REMARK    7  A    between atoms: C_38  and  O_39
REMARK    8  A    between atoms: C_41  and  O_42
REMARK    9  A    between atoms: C_44  and  O_45
REMARK                            x       y       z     vdW  Elec       q    Type
REMARK                         _______ _______ _______ _____ _____    ______ ____
ROOT
ATOM      1  C   UNL     1       0.018   5.555  -1.429  0.00  0.00    +0.169 C 
ATOM      2  O   UNL     1       0.180   6.898  -2.160  0.00  0.00    -0.452 OA
ATOM      3  C   UNL     1       0.331   6.944  -3.495  0.00  0.00    +0.317 C 
ATOM      4  O   UNL     1      -0.182   8.061  -3.888  0.00  0.00    -0.250 OA
ATOM      5  C   UNL     1       0.311   5.826  -4.431  0.00  0.00    +0.114 C 
ATOM      6  C   UNL     1       1.835   5.450  -4.893  0.00  0.00    +0.040 C 
ATOM      7  C   UNL     1       2.430   6.910  -5.181  0.00  0.00    +0.009 C 
ATOM      8  C   UNL     1       1.951   7.333  -6.255  0.00  0.00    -0.028 C 
ATOM      9  C   UNL     1       0.721   6.504  -6.793  0.00  0.00    +0.026 C 
ATOM     10  C   UNL     1       1.227   6.840  -8.345  0.00  0.00    +0.011 C 
ATOM     11  C   UNL     1       2.050   5.426  -8.770  0.00  0.00    +0.021 C 
ATOM     12  C   UNL     1       2.421   6.497  -9.926  0.00  0.00    +0.034 C 
ATOM     13  C   UNL     1       0.916   6.651 -10.585  0.00  0.00    +0.118 C 
ATOM     14  C   UNL     1       3.443   5.727  -8.021  0.00  0.00    -0.048 C 
ATOM     15  C   UNL     1       4.446   4.829  -8.695  0.00  0.00    +0.026 C 
ATOM     16  C   UNL     1       3.046   5.471  -6.838  0.00  0.00    -0.034 C 
ATOM     17  C   UNL     1       0.112   6.080  -9.255  0.00  0.00    +0.030 C 
ATOM     18  C   UNL     1       3.767   6.811  -4.530  0.00  0.00    +0.171 C 
ATOM     19  O   UNL     1       4.786   7.057  -5.080  0.00  0.00    -0.292 OA
ATOM     20  C   UNL     1       3.358   7.422  -3.111  0.00  0.00    +0.089 C 
ATOM     21  C   UNL     1       4.373   8.688  -3.190  0.00  0.00    +0.011 C 
ATOM     22  C   UNL     1       4.384   6.515  -2.090  0.00  0.00    +0.125 C 
ATOM     23  C   UNL     1       3.664   5.089  -2.454  0.00  0.00    +0.030 C 
ATOM     24  C   UNL     1       2.474   4.787  -1.680  0.00  0.00    +0.006 C 
ATOM     25  C   UNL     1       1.541   5.074  -6.519  0.00  0.00    +0.030 C 
ATOM     26  C   UNL     1       1.138   4.705  -2.266  0.00  0.00    +0.044 C 
ENDROOT
BRANCH   1  28
ATOM     27  C   UNL     1      -2.187   5.317  -2.077  0.00  0.00    +0.004 C 
ATOM     28  C   UNL     1      -1.220   5.006  -2.373  0.00  0.00    +0.044 C 
ENDBRANCH   1  28
BRANCH  22  29
ATOM     29  O   UNL     1       3.460   6.712  -0.923  0.00  0.00    -0.333 OA
BRANCH  29  30
ATOM     30  C   UNL     1       4.275   6.232   0.267  0.00  0.00    +0.235 C 
ATOM     31  O   UNL     1       3.142   6.494   1.268  0.00  0.00    -0.332 OA
ATOM     32  C   UNL     1       3.514   7.815   1.880  0.00  0.00    +0.132 C 
ATOM     33  C   UNL     1       2.181   7.807   2.829  0.00  0.00    +0.034 C 
ATOM     34  C   UNL     1       2.781   8.538   0.501  0.00  0.00    +0.085 C 
ATOM     35  C   UNL     1       4.311   8.820  -0.017  0.00  0.00    +0.024 C 
ATOM     36  C   UNL     1       5.078   7.688   0.370  0.00  0.00    +0.063 C 
BRANCH  34  37
ATOM     37  N   UNL     1       2.609   9.983   1.058  0.00  0.00    -0.269 NA
ATOM     38  C   UNL     1       1.160  10.127   0.815  0.00  0.00    +0.090 C 
ATOM     39  C   UNL     1       3.022  10.698  -0.172  0.00  0.00    +0.090 C 
ENDBRANCH  34  37
ENDBRANCH  29  30
ENDBRANCH  22  29
BRANCH  13  40
ATOM     40  O   UNL     1       1.151   5.346 -11.365  0.00  0.00    -0.331 OA
BRANCH  40  41
ATOM     41  C   UNL     1       0.305   6.048 -12.445  0.00  0.00    +0.266 C 
ATOM     42  C   UNL     1       1.624   6.800 -13.277  0.00  0.00    +0.201 C 
ATOM     43  C   UNL     1       2.686   5.509 -13.567  0.00  0.00    +0.177 C 
ATOM     44  C   UNL     1       1.749   4.639 -14.668  0.00  0.00    +0.172 C 
ATOM     45  C   UNL     1       1.111   3.902 -13.260  0.00  0.00    +0.147 C 
ATOM     46  C   UNL     1       0.299   2.860 -14.240  0.00  0.00    +0.035 C 
ATOM     47  O   UNL     1       0.036   4.906 -13.371  0.00  0.00    -0.329 OA
BRANCH  42  48
ATOM     48  O   UNL     1       0.899   6.832 -14.590  0.00  0.00    -0.346 OA
ATOM     49  C   UNL     1       0.741   8.240 -14.474  0.00  0.00    +0.174 C 
ENDBRANCH  42  48
BRANCH  44  50
ATOM     50  O   UNL     1       2.802   3.582 -14.790  0.00  0.00    -0.349 OA
ATOM     51  C   UNL     1       3.647   3.965 -13.741  0.00  0.00    +0.174 C 
ENDBRANCH  44  50
BRANCH  43  52
ATOM     52  O   UNL     1       3.277   6.309 -14.698  0.00  0.00    -0.348 OA
ATOM     53  C   UNL     1       4.580   6.488 -14.558  0.00  0.00    +0.174 C 
ENDBRANCH  43  52
ENDBRANCH  40  41
ENDBRANCH  13  40
TORSDOF 9
ENDMDL
