MODEL 1
REMARK VINA RESULT:      -6.5      0.000      0.000
REMARK  Name = 
REMARK  4 active torsions:
REMARK  status: ('A' for Active; 'I' for Inactive)
REMARK    1  A    between atoms: O_2  and  C_3
REMARK    2  A    between atoms: C_3  and  C_5
REMARK    3  A    between atoms: C_5  and  C_6
REMARK    4  A    between atoms: C_5  and  C_12
REMARK                            x       y       z     vdW  Elec       q    Type
REMARK                         _______ _______ _______ _____ _____    ______ ____
ROOT
ATOM      1  C   UNL     1       1.969   6.160  -6.965  0.00  0.00    +0.137 C 
ENDROOT
BRANCH   1   2
ATOM      2  C   UNL     1       0.648   5.461  -6.103  0.00  0.00    +0.087 C 
ATOM      3  N   UNL     1       0.267   6.856  -5.496  0.00  0.00    -0.219 NA
ATOM      4  C   UNL     1      -0.987   6.725  -4.847  0.00  0.00    +0.089 C 
ATOM      5  C   UNL     1      -1.981   5.821  -5.445  0.00  0.00    +0.019 C 
ATOM      6  C   UNL     1      -1.691   5.293  -6.800  0.00  0.00    +0.003 C 
ATOM      7  C   UNL     1      -0.362   5.679  -7.374  0.00  0.00    +0.018 C 
ENDBRANCH   1   2
BRANCH   1   8
ATOM      8  C   UNL     1       2.963   6.094  -5.711  0.00  0.00    -0.011 A 
ATOM      9  C   UNL     1       3.083   4.876  -5.083  0.00  0.00    -0.004 A 
ATOM     10  C   UNL     1       4.118   4.668  -4.178  0.00  0.00    -0.000 A 
ATOM     11  C   UNL     1       5.076   5.661  -4.111  0.00  0.00    -0.000 A 
ATOM     12  C   UNL     1       4.724   6.963  -4.444  0.00  0.00    -0.000 A 
ATOM     13  C   UNL     1       3.708   7.161  -5.377  0.00  0.00    -0.004 A 
ENDBRANCH   1   8
BRANCH   1  14
ATOM     14  C   UNL     1       2.482   4.751  -7.556  0.00  0.00    +0.322 C 
ATOM     15  O   UNL     1       1.843   4.353  -8.582  0.00  0.00    -0.250 OA
BRANCH  14  17
ATOM     16  C   UNL     1       4.361   4.605  -9.020  0.00  0.00    +0.256 C 
ATOM     17  O   UNL     1       3.847   4.893  -7.865  0.00  0.00    -0.444 OA
ENDBRANCH  14  17
ENDBRANCH   1  14
TORSDOF 4
ENDMDL
MODEL 2
REMARK VINA RESULT:      -6.5      2.987      5.966
REMARK  Name = 
REMARK  4 active torsions:
REMARK  status: ('A' for Active; 'I' for Inactive)
REMARK    1  A    between atoms: O_2  and  C_3
REMARK    2  A    between atoms: C_3  and  C_5
REMARK    3  A    between atoms: C_5  and  C_6
REMARK    4  A    between atoms: C_5  and  C_12
REMARK                            x       y       z     vdW  Elec       q    Type
REMARK                         _______ _______ _______ _____ _____    ______ ____
ROOT
ATOM      1  C   UNL     1       0.568   6.367  -3.180  0.00  0.00    +0.137 C 
ENDROOT
BRANCH   1   2
ATOM      2  C   UNL     1       1.771   5.595  -4.144  0.00  0.00    +0.087 C 
ATOM      3  N   UNL     1       2.281   6.981  -4.673  0.00  0.00    -0.219 NA
ATOM      4  C   UNL     1       3.487   6.763  -5.385  0.00  0.00    +0.089 C 
ATOM      5  C   UNL     1       4.398   5.718  -4.894  0.00  0.00    +0.019 C 
ATOM      6  C   UNL     1       4.102   5.128  -3.565  0.00  0.00    +0.003 C 
ATOM      7  C   UNL     1       2.846   5.612  -2.908  0.00  0.00    +0.018 C 
ENDBRANCH   1   2
BRANCH   1   8
ATOM      8  C   UNL     1      -0.472   6.499  -4.390  0.00  0.00    -0.011 A 
ATOM      9  C   UNL     1      -0.503   5.462  -5.293  0.00  0.00    -0.004 A 
ATOM     10  C   UNL     1      -1.554   5.369  -6.198  0.00  0.00    -0.000 A 
ATOM     11  C   UNL     1      -2.606   6.242  -6.001  0.00  0.00    -0.000 A 
ATOM     12  C   UNL     1      -2.366   7.456  -5.368  0.00  0.00    -0.000 A 
ATOM     13  C   UNL     1      -1.332   7.530  -4.438  0.00  0.00    -0.004 A 
ENDBRANCH   1   8
BRANCH   1  14
ATOM     14  C   UNL     1      -0.075   4.983  -2.664  0.00  0.00    +0.322 C 
ATOM     15  O   UNL     1       0.476   4.510  -1.619  0.00  0.00    -0.250 OA
BRANCH  14  17
ATOM     16  C   UNL     1      -1.915   5.643  -1.293  0.00  0.00    +0.256 C 
ATOM     17  O   UNL     1      -1.442   5.215  -2.422  0.00  0.00    -0.444 OA
ENDBRANCH  14  17
ENDBRANCH   1  14
TORSDOF 4
ENDMDL
MODEL 3
REMARK VINA RESULT:      -6.4      2.368      5.257
REMARK  Name = 
REMARK  4 active torsions:
REMARK  status: ('A' for Active; 'I' for Inactive)
REMARK    1  A    between atoms: O_2  and  C_3
REMARK    2  A    between atoms: C_3  and  C_5
REMARK    3  A    between atoms: C_5  and  C_6
REMARK    4  A    between atoms: C_5  and  C_12
REMARK                            x       y       z     vdW  Elec       q    Type
REMARK                         _______ _______ _______ _____ _____    ______ ____
ROOT
ATOM      1  C   UNL     1       1.448   6.795  -5.036  0.00  0.00    +0.137 C 
ENDROOT
BRANCH   1   2
ATOM      2  C   UNL     1       1.943   6.128  -6.547  0.00  0.00    +0.087 C 
ATOM      3  N   UNL     1       1.991   7.555  -7.196  0.00  0.00    -0.219 NA
ATOM      4  C   UNL     1       2.600   7.438  -8.471  0.00  0.00    +0.089 C 
ATOM      5  C   UNL     1       3.685   6.458  -8.629  0.00  0.00    +0.019 C 
ATOM      6  C   UNL     1       4.217   5.830  -7.395  0.00  0.00    +0.003 C 
ATOM      7  C   UNL     1       3.523   6.209  -6.124  0.00  0.00    +0.018 C 
ENDBRANCH   1   2
BRANCH   1   8
ATOM      8  C   UNL     1      -0.109   6.765  -5.409  0.00  0.00    -0.011 A 
ATOM      9  C   UNL     1      -0.539   5.709  -6.177  0.00  0.00    -0.004 A 
ATOM     10  C   UNL     1      -1.901   5.462  -6.308  0.00  0.00    -0.000 A 
ATOM     11  C   UNL     1      -2.735   6.203  -5.493  0.00  0.00    -0.000 A 
ATOM     12  C   UNL     1      -2.315   7.454  -5.057  0.00  0.00    -0.000 A 
ATOM     13  C   UNL     1      -0.949   7.680  -4.897  0.00  0.00    -0.004 A 
ENDBRANCH   1   8
BRANCH   1  14
ATOM     14  C   UNL     1       1.385   5.367  -4.292  0.00  0.00    +0.322 C 
ATOM     15  O   UNL     1       2.458   5.048  -3.686  0.00  0.00    -0.250 OA
BRANCH  14  17
ATOM     16  C   UNL     1       0.415   5.087  -2.129  0.00  0.00    +0.256 C 
ATOM     17  O   UNL     1       0.314   5.410  -3.381  0.00  0.00    -0.444 OA
ENDBRANCH  14  17
ENDBRANCH   1  14
TORSDOF 4
ENDMDL
MODEL 4
REMARK VINA RESULT:      -6.3      2.261      4.780
REMARK  Name = 
REMARK  4 active torsions:
REMARK  status: ('A' for Active; 'I' for Inactive)
REMARK    1  A    between atoms: O_2  and  C_3
REMARK    2  A    between atoms: C_3  and  C_5
REMARK    3  A    between atoms: C_5  and  C_6
REMARK    4  A    between atoms: C_5  and  C_12
REMARK                            x       y       z     vdW  Elec       q    Type
REMARK                         _______ _______ _______ _____ _____    ______ ____
ROOT
ATOM      1  C   UNL     1       1.369   5.749  -5.324  0.00  0.00    +0.137 C 
ENDROOT
BRANCH   1   2
ATOM      2  C   UNL     1       1.468   6.257  -3.679  0.00  0.00    +0.087 C 
ATOM      3  N   UNL     1       0.565   5.059  -3.222  0.00  0.00    -0.219 NA
ATOM      4  C   UNL     1       0.586   5.007  -1.806  0.00  0.00    +0.089 C 
ATOM      5  C   UNL     1       1.839   5.362  -1.122  0.00  0.00    +0.019 C 
ATOM      6  C   UNL     1       3.049   5.524  -1.963  0.00  0.00    +0.003 C 
ATOM      7  C   UNL     1       2.835   5.388  -3.439  0.00  0.00    +0.018 C 
ENDBRANCH   1   2
BRANCH   1   8
ATOM      8  C   UNL     1      -0.107   6.334  -5.529  0.00  0.00    -0.011 A 
ATOM      9  C   UNL     1      -0.985   5.556  -6.246  0.00  0.00    -0.004 A 
ATOM     10  C   UNL     1      -2.342   5.857  -6.231  0.00  0.00    -0.000 A 
ATOM     11  C   UNL     1      -2.740   6.828  -5.332  0.00  0.00    -0.000 A 
ATOM     12  C   UNL     1      -1.829   7.802  -4.944  0.00  0.00    -0.000 A 
ATOM     13  C   UNL     1      -0.474   7.480  -4.931  0.00  0.00    -0.004 A 
ENDBRANCH   1   8
BRANCH   1  14
ATOM     14  C   UNL     1       2.071   7.081  -5.900  0.00  0.00    +0.322 C 
ATOM     15  O   UNL     1       3.342   7.029  -5.928  0.00  0.00    -0.250 OA
BRANCH  14  17
ATOM     16  C   UNL     1       2.316   7.391  -8.255  0.00  0.00    +0.256 C 
ATOM     17  O   UNL     1       1.570   7.295  -7.198  0.00  0.00    -0.444 OA
ENDBRANCH  14  17
ENDBRANCH   1  14
TORSDOF 4
ENDMDL
MODEL 5
REMARK VINA RESULT:      -6.2      3.948      6.130
REMARK  Name = 
REMARK  4 active torsions:
REMARK  status: ('A' for Active; 'I' for Inactive)
REMARK    1  A    between atoms: O_2  and  C_3
REMARK    2  A    between atoms: C_3  and  C_5
REMARK    3  A    between atoms: C_5  and  C_6
REMARK    4  A    between atoms: C_5  and  C_12
REMARK                            x       y       z     vdW  Elec       q    Type
REMARK                         _______ _______ _______ _____ _____    ______ ____
ROOT
ATOM      1  C   UNL     1       3.574   5.645 -10.128  0.00  0.00    +0.137 C 
ENDROOT
BRANCH   1   2
ATOM      2  C   UNL     1       3.125   6.341 -11.640  0.00  0.00    +0.087 C 
ATOM      3  N   UNL     1       3.913   5.233 -12.421  0.00  0.00    -0.219 NA
ATOM      4  C   UNL     1       3.591   5.349 -13.796  0.00  0.00    +0.089 C 
ATOM      5  C   UNL     1       2.220   5.746 -14.151  0.00  0.00    +0.019 C 
ATOM      6  C   UNL     1       1.216   5.772 -13.060  0.00  0.00    +0.003 C 
ATOM      7  C   UNL     1       1.741   5.467 -11.690  0.00  0.00    +0.018 C 
ENDBRANCH   1   2
BRANCH   1   8
ATOM      8  C   UNL     1       5.036   6.298 -10.138  0.00  0.00    -0.011 A 
ATOM      9  C   UNL     1       6.040   5.575  -9.539  0.00  0.00    -0.004 A 
ATOM     10  C   UNL     1       7.366   5.934  -9.747  0.00  0.00    -0.000 A 
ATOM     11  C   UNL     1       7.591   6.903 -10.706  0.00  0.00    -0.000 A 
ATOM     12  C   UNL     1       6.591   7.828 -10.978  0.00  0.00    -0.000 A 
ATOM     13  C   UNL     1       5.263   7.447 -10.798  0.00  0.00    -0.004 A 
ENDBRANCH   1   8
BRANCH   1  14
ATOM     14  C   UNL     1       2.949   6.846  -9.255  0.00  0.00    +0.322 C 
ATOM     15  O   UNL     1       1.679   6.832  -9.185  0.00  0.00    -0.250 OA
BRANCH  14  17
ATOM     16  C   UNL     1       2.872   7.107  -6.883  0.00  0.00    +0.256 C 
ATOM     17  O   UNL     1       3.502   6.764  -7.964  0.00  0.00    -0.444 OA
ENDBRANCH  14  17
ENDBRANCH   1  14
TORSDOF 4
ENDMDL
MODEL 6
REMARK VINA RESULT:      -6.2      1.972      4.363
REMARK  Name = 
REMARK  4 active torsions:
REMARK  status: ('A' for Active; 'I' for Inactive)
REMARK    1  A    between atoms: O_2  and  C_3
REMARK    2  A    between atoms: C_3  and  C_5
REMARK    3  A    between atoms: C_5  and  C_6
REMARK    4  A    between atoms: C_5  and  C_12
REMARK                            x       y       z     vdW  Elec       q    Type
REMARK                         _______ _______ _______ _____ _____    ______ ____
ROOT
ATOM      1  C   UNL     1       2.975   4.892  -7.149  0.00  0.00    +0.137 C 
ENDROOT
BRANCH   1   2
ATOM      2  C   UNL     1       3.845   5.917  -8.228  0.00  0.00    +0.087 C 
ATOM      3  N   UNL     1       5.150   5.071  -8.030  0.00  0.00    -0.219 NA
ATOM      4  C   UNL     1       6.106   5.507  -8.982  0.00  0.00    +0.089 C 
ATOM      5  C   UNL     1       5.620   5.917 -10.308  0.00  0.00    +0.019 C 
ATOM      6  C   UNL     1       4.201   5.628 -10.631  0.00  0.00    +0.003 C 
ATOM      7  C   UNL     1       3.396   5.020  -9.523  0.00  0.00    +0.018 C 
ENDBRANCH   1   2
BRANCH   1   8
ATOM      8  C   UNL     1       3.558   5.598  -5.835  0.00  0.00    -0.011 A 
ATOM      9  C   UNL     1       4.070   4.770  -4.865  0.00  0.00    -0.004 A 
ATOM     10  C   UNL     1       4.836   5.306  -3.836  0.00  0.00    -0.000 A 
ATOM     11  C   UNL     1       5.186   6.637  -3.968  0.00  0.00    -0.000 A 
ATOM     12  C   UNL     1       4.366   7.479  -4.708  0.00  0.00    -0.000 A 
ATOM     13  C   UNL     1       3.628   6.938  -5.758  0.00  0.00    -0.004 A 
ENDBRANCH   1   8
BRANCH   1  14
ATOM     14  C   UNL     1       1.649   5.808  -7.158  0.00  0.00    +0.322 C 
ATOM     15  O   UNL     1       0.858   5.569  -8.126  0.00  0.00    -0.250 OA
BRANCH  14  17
ATOM     16  C   UNL     1      -0.279   5.337  -5.832  0.00  0.00    +0.256 C 
ATOM     17  O   UNL     1       0.986   5.606  -5.934  0.00  0.00    -0.444 OA
ENDBRANCH  14  17
ENDBRANCH   1  14
TORSDOF 4
ENDMDL
MODEL 7
REMARK VINA RESULT:      -6.2      1.796      4.813
REMARK  Name = 
REMARK  4 active torsions:
REMARK  status: ('A' for Active; 'I' for Inactive)
REMARK    1  A    between atoms: O_2  and  C_3
REMARK    2  A    between atoms: C_3  and  C_5
REMARK    3  A    between atoms: C_5  and  C_6
REMARK    4  A    between atoms: C_5  and  C_12
REMARK                            x       y       z     vdW  Elec       q    Type
REMARK                         _______ _______ _______ _____ _____    ______ ____
ROOT
ATOM      1  C   UNL     1       1.781   5.984  -6.699  0.00  0.00    +0.137 C 
ENDROOT
BRANCH   1   2
ATOM      2  C   UNL     1       2.500   6.608  -5.261  0.00  0.00    +0.087 C 
ATOM      3  N   UNL     1       2.473   5.189  -4.594  0.00  0.00    -0.219 NA
ATOM      4  C   UNL     1       3.224   5.252  -3.394  0.00  0.00    +0.089 C 
ATOM      5  C   UNL     1       4.413   6.117  -3.371  0.00  0.00    +0.019 C 
ATOM      6  C   UNL     1       4.871   6.678  -4.665  0.00  0.00    +0.003 C 
ATOM      7  C   UNL     1       4.009   6.362  -5.848  0.00  0.00    +0.018 C 
ENDBRANCH   1   2
BRANCH   1   8
ATOM      8  C   UNL     1       0.292   6.049  -6.112  0.00  0.00    -0.011 A 
ATOM      9  C   UNL     1      -0.005   7.119  -5.300  0.00  0.00    -0.004 A 
ATOM     10  C   UNL     1      -1.330   7.394  -4.982  0.00  0.00    -0.000 A 
ATOM     11  C   UNL     1      -2.284   6.666  -5.666  0.00  0.00    -0.000 A 
ATOM     12  C   UNL     1      -1.954   5.405  -6.147  0.00  0.00    -0.000 A 
ATOM     13  C   UNL     1      -0.630   5.149  -6.494  0.00  0.00    -0.004 A 
ENDBRANCH   1   8
BRANCH   1  14
ATOM     14  C   UNL     1       1.658   7.428  -7.405  0.00  0.00    +0.322 C 
ATOM     15  O   UNL     1       2.772   8.016  -7.584  0.00  0.00    -0.250 OA
BRANCH  14  17
ATOM     16  C   UNL     1       1.511   6.571  -9.628  0.00  0.00    +0.256 C 
ATOM     17  O   UNL     1       1.008   7.242  -8.639  0.00  0.00    -0.444 OA
ENDBRANCH  14  17
ENDBRANCH   1  14
TORSDOF 4
ENDMDL
MODEL 8
REMARK VINA RESULT:      -6.2      2.305      3.738
REMARK  Name = 
REMARK  4 active torsions:
REMARK  status: ('A' for Active; 'I' for Inactive)
REMARK    1  A    between atoms: O_2  and  C_3
REMARK    2  A    between atoms: C_3  and  C_5
REMARK    3  A    between atoms: C_5  and  C_6
REMARK    4  A    between atoms: C_5  and  C_12
REMARK                            x       y       z     vdW  Elec       q    Type
REMARK                         _______ _______ _______ _____ _____    ______ ____
ROOT
ATOM      1  C   UNL     1       1.389   5.236  -5.594  0.00  0.00    +0.137 C 
ENDROOT
BRANCH   1   2
ATOM      2  C   UNL     1       1.563   5.828  -7.204  0.00  0.00    +0.087 C 
ATOM      3  N   UNL     1       2.200   4.472  -7.668  0.00  0.00    -0.219 NA
ATOM      4  C   UNL     1       2.298   4.492  -9.082  0.00  0.00    +0.089 C 
ATOM      5  C   UNL     1       1.231   5.167  -9.836  0.00  0.00    +0.019 C 
ATOM      6  C   UNL     1       0.019   5.573  -9.084  0.00  0.00    +0.003 C 
ATOM      7  C   UNL     1       0.059   5.321  -7.608  0.00  0.00    +0.018 C 
ENDBRANCH   1   2
BRANCH   1   8
ATOM      8  C   UNL     1       2.901   5.575  -5.191  0.00  0.00    -0.011 A 
ATOM      9  C   UNL     1       3.316   6.871  -5.386  0.00  0.00    -0.004 A 
ATOM     10  C   UNL     1       4.504   7.308  -4.811  0.00  0.00    -0.000 A 
ATOM     11  C   UNL     1       5.102   6.440  -3.917  0.00  0.00    -0.000 A 
ATOM     12  C   UNL     1       4.878   5.075  -4.049  0.00  0.00    -0.000 A 
ATOM     13  C   UNL     1       3.671   4.647  -4.596  0.00  0.00    -0.004 A 
ENDBRANCH   1   8
BRANCH   1  14
ATOM     14  C   UNL     1       0.830   6.632  -5.015  0.00  0.00    +0.322 C 
ATOM     15  O   UNL     1      -0.374   6.884  -5.338  0.00  0.00    -0.250 OA
BRANCH  14  17
ATOM     16  C   UNL     1       0.099   6.007  -2.830  0.00  0.00    +0.256 C 
ATOM     17  O   UNL     1       0.953   6.589  -3.614  0.00  0.00    -0.444 OA
ENDBRANCH  14  17
ENDBRANCH   1  14
TORSDOF 4
ENDMDL
MODEL 9
REMARK VINA RESULT:      -6.1      3.266      6.041
REMARK  Name = 
REMARK  4 active torsions:
REMARK  status: ('A' for Active; 'I' for Inactive)
REMARK    1  A    between atoms: O_2  and  C_3
REMARK    2  A    between atoms: C_3  and  C_5
REMARK    3  A    between atoms: C_5  and  C_6
REMARK    4  A    between atoms: C_5  and  C_12
REMARK                            x       y       z     vdW  Elec       q    Type
REMARK                         _______ _______ _______ _____ _____    ______ ____
ROOT
ATOM      1  C   UNL     1       3.919   5.155 -10.037  0.00  0.00    +0.137 C 
ENDROOT
BRANCH   1   2
ATOM      2  C   UNL     1       4.844   6.419 -10.759  0.00  0.00    +0.087 C 
ATOM      3  N   UNL     1       6.107   6.017  -9.921  0.00  0.00    -0.219 NA
ATOM      4  C   UNL     1       7.216   6.744 -10.419  0.00  0.00    +0.089 C 
ATOM      5  C   UNL     1       7.274   7.007 -11.865  0.00  0.00    +0.019 C 
ATOM      6  C   UNL     1       6.296   6.297 -12.724  0.00  0.00    +0.003 C 
ATOM      7  C   UNL     1       5.294   5.450 -12.001  0.00  0.00    +0.018 C 
ENDBRANCH   1   2
BRANCH   1   8
ATOM      8  C   UNL     1       3.665   5.969  -8.682  0.00  0.00    -0.011 A 
ATOM      9  C   UNL     1       2.865   7.084  -8.772  0.00  0.00    -0.004 A 
ATOM     10  C   UNL     1       2.375   7.675  -7.614  0.00  0.00    -0.000 A 
ATOM     11  C   UNL     1       2.583   6.977  -6.439  0.00  0.00    -0.000 A 
ATOM     12  C   UNL     1       3.670   6.116  -6.349  0.00  0.00    -0.000 A 
ATOM     13  C   UNL     1       4.133   5.503  -7.511  0.00  0.00    -0.004 A 
ENDBRANCH   1   8
BRANCH   1  14
ATOM     14  C   UNL     1       2.528   5.640 -10.691  0.00  0.00    +0.322 C 
ATOM     15  O   UNL     1       2.490   5.550 -11.960  0.00  0.00    -0.250 OA
BRANCH  14  17
ATOM     16  C   UNL     1       0.324   4.723 -10.651  0.00  0.00    +0.256 C 
ATOM     17  O   UNL     1       1.500   4.864 -10.124  0.00  0.00    -0.444 OA
ENDBRANCH  14  17
ENDBRANCH   1  14
TORSDOF 4
ENDMDL
