MODEL 1
REMARK VINA RESULT:      -7.7      0.000      0.000
REMARK  Name = 
REMARK  1 active torsions:
REMARK  status: ('A' for Active; 'I' for Inactive)
REMARK    1  A    between atoms: N_11  and  C_12
REMARK                            x       y       z     vdW  Elec       q    Type
REMARK                         _______ _______ _______ _____ _____    ______ ____
ROOT
ATOM      1  O   UNL     1       0.227   5.581  -8.620  0.00  0.00    -0.269 OA
ATOM      2  C   UNL     1       0.394   5.668  -7.835  0.00  0.00    +0.255 C 
ATOM      3  N   UNL     1       1.485   6.444  -7.345  0.00  0.00    -0.216 N 
ATOM      4  C   UNL     1       1.316   6.727  -5.948  0.00  0.00    +0.255 C 
ATOM      5  O   UNL     1       2.161   6.946  -5.055  0.00  0.00    -0.269 OA
ATOM      6  C   UNL     1      -0.064   6.330  -5.633  0.00  0.00    +0.058 A 
ATOM      7  C   UNL     1      -0.865   6.723  -4.564  0.00  0.00    +0.005 A 
ATOM      8  C   UNL     1      -2.212   6.468  -4.586  0.00  0.00    +0.000 A 
ATOM      9  C   UNL     1      -2.733   5.742  -5.623  0.00  0.00    +0.000 A 
ATOM     10  C   UNL     1      -1.948   5.476  -6.734  0.00  0.00    +0.005 A 
ATOM     11  C   UNL     1      -0.579   5.683  -6.738  0.00  0.00    +0.058 A 
ENDROOT
BRANCH   3  12
ATOM     12  C   UNL     1       2.981   6.130  -7.728  0.00  0.00    +0.162 C 
ATOM     13  C   UNL     1       2.737   4.618  -8.263  0.00  0.00    +0.266 C 
ATOM     14  O   UNL     1       2.651   3.755  -7.329  0.00  0.00    -0.271 OA
ATOM     15  N   UNL     1       3.883   4.333  -9.095  0.00  0.00    -0.143 NA
ATOM     16  C   UNL     1       4.698   5.353  -9.651  0.00  0.00    +0.248 C 
ATOM     17  O   UNL     1       5.967   5.347  -9.609  0.00  0.00    -0.273 OA
ATOM     18  C   UNL     1       4.093   6.693  -9.922  0.00  0.00    +0.089 C 
ATOM     19  C   UNL     1       2.762   6.766  -9.238  0.00  0.00    +0.039 C 
ENDBRANCH   3  12
TORSDOF 1
ENDMDL
MODEL 2
REMARK VINA RESULT:      -7.7      2.113      6.443
REMARK  Name = 
REMARK  1 active torsions:
REMARK  status: ('A' for Active; 'I' for Inactive)
REMARK    1  A    between atoms: N_11  and  C_12
REMARK                            x       y       z     vdW  Elec       q    Type
REMARK                         _______ _______ _______ _____ _____    ______ ____
ROOT
ATOM      1  O   UNL     1       4.954   5.672  -7.376  0.00  0.00    -0.269 OA
ATOM      2  C   UNL     1       4.760   5.663  -8.160  0.00  0.00    +0.255 C 
ATOM      3  N   UNL     1       3.591   6.288  -8.685  0.00  0.00    -0.216 N 
ATOM      4  C   UNL     1       3.696   6.440 -10.109  0.00  0.00    +0.255 C 
ATOM      5  O   UNL     1       2.811   6.492 -10.989  0.00  0.00    -0.269 OA
ATOM      6  C   UNL     1       5.098   6.132 -10.432  0.00  0.00    +0.058 A 
ATOM      7  C   UNL     1       5.831   6.481 -11.563  0.00  0.00    +0.005 A 
ATOM      8  C   UNL     1       7.196   6.346 -11.564  0.00  0.00    +0.000 A 
ATOM      9  C   UNL     1       7.807   5.777 -10.478  0.00  0.00    +0.000 A 
ATOM     10  C   UNL     1       7.079   5.560  -9.319  0.00  0.00    +0.005 A 
ATOM     11  C   UNL     1       5.698   5.649  -9.287  0.00  0.00    +0.058 A 
ENDROOT
BRANCH   3  12
ATOM     12  C   UNL     1       2.140   5.887  -8.219  0.00  0.00    +0.162 C 
ATOM     13  C   UNL     1       2.527   4.453  -7.568  0.00  0.00    +0.266 C 
ATOM     14  O   UNL     1       2.657   3.521  -8.428  0.00  0.00    -0.271 OA
ATOM     15  N   UNL     1       1.437   4.150  -6.672  0.00  0.00    -0.143 NA
ATOM     16  C   UNL     1       0.556   5.144  -6.173  0.00  0.00    +0.248 C 
ATOM     17  O   UNL     1      -0.709   5.031  -6.166  0.00  0.00    -0.273 OA
ATOM     18  C   UNL     1       1.054   6.548  -6.040  0.00  0.00    +0.089 C 
ATOM     19  C   UNL     1       2.351   6.669  -6.779  0.00  0.00    +0.039 C 
ENDBRANCH   3  12
TORSDOF 1
ENDMDL
MODEL 3
REMARK VINA RESULT:      -7.7      1.716      5.774
REMARK  Name = 
REMARK  1 active torsions:
REMARK  status: ('A' for Active; 'I' for Inactive)
REMARK    1  A    between atoms: N_11  and  C_12
REMARK                            x       y       z     vdW  Elec       q    Type
REMARK                         _______ _______ _______ _____ _____    ______ ____
ROOT
ATOM      1  O   UNL     1       0.807   6.266  -8.744  0.00  0.00    -0.269 OA
ATOM      2  C   UNL     1       1.416   6.088  -8.244  0.00  0.00    +0.255 C 
ATOM      3  N   UNL     1       1.334   5.085  -7.234  0.00  0.00    -0.216 N 
ATOM      4  C   UNL     1       2.645   4.728  -6.770  0.00  0.00    +0.255 C 
ATOM      5  O   UNL     1       3.023   4.284  -5.665  0.00  0.00    -0.269 OA
ATOM      6  C   UNL     1       3.579   5.349  -7.720  0.00  0.00    +0.058 A 
ATOM      7  C   UNL     1       4.910   5.028  -7.975  0.00  0.00    +0.005 A 
ATOM      8  C   UNL     1       5.536   5.532  -9.086  0.00  0.00    +0.000 A 
ATOM      9  C   UNL     1       4.864   6.423  -9.880  0.00  0.00    +0.000 A 
ATOM     10  C   UNL     1       3.507   6.625  -9.684  0.00  0.00    +0.005 A 
ATOM     11  C   UNL     1       2.847   6.167  -8.557  0.00  0.00    +0.058 A 
ENDROOT
BRANCH   3  12
ATOM     12  C   UNL     1       0.270   5.144  -6.074  0.00  0.00    +0.162 C 
ATOM     13  C   UNL     1       0.395   6.732  -5.768  0.00  0.00    +0.266 C 
ATOM     14  O   UNL     1       1.401   7.035  -5.047  0.00  0.00    -0.271 OA
ATOM     15  N   UNL     1      -0.828   7.071  -5.078  0.00  0.00    -0.143 NA
ATOM     16  C   UNL     1      -1.995   6.268  -5.150  0.00  0.00    +0.248 C 
ATOM     17  O   UNL     1      -2.682   5.924  -4.138  0.00  0.00    -0.273 OA
ATOM     18  C   UNL     1      -2.220   5.428  -6.366  0.00  0.00    +0.089 C 
ATOM     19  C   UNL     1      -0.951   5.385  -7.161  0.00  0.00    +0.039 C 
ENDBRANCH   3  12
TORSDOF 1
ENDMDL
MODEL 4
REMARK VINA RESULT:      -7.5      1.871      6.193
REMARK  Name = 
REMARK  1 active torsions:
REMARK  status: ('A' for Active; 'I' for Inactive)
REMARK    1  A    between atoms: N_11  and  C_12
REMARK                            x       y       z     vdW  Elec       q    Type
REMARK                         _______ _______ _______ _____ _____    ______ ____
ROOT
ATOM      1  O   UNL     1       2.604   6.651 -10.075  0.00  0.00    -0.269 OA
ATOM      2  C   UNL     1       3.251   6.522  -9.610  0.00  0.00    +0.255 C 
ATOM      3  N   UNL     1       3.322   5.483  -8.635  0.00  0.00    -0.216 N 
ATOM      4  C   UNL     1       4.684   5.253  -8.242  0.00  0.00    +0.255 C 
ATOM      5  O   UNL     1       5.158   4.817  -7.172  0.00  0.00    -0.269 OA
ATOM      6  C   UNL     1       5.502   6.003  -9.207  0.00  0.00    +0.058 A 
ATOM      7  C   UNL     1       6.845   5.835  -9.531  0.00  0.00    +0.005 A 
ATOM      8  C   UNL     1       7.362   6.440 -10.648  0.00  0.00    +0.000 A 
ATOM      9  C   UNL     1       6.564   7.280 -11.377  0.00  0.00    +0.000 A 
ATOM     10  C   UNL     1       5.203   7.328 -11.116  0.00  0.00    +0.005 A 
ATOM     11  C   UNL     1       4.649   6.765  -9.980  0.00  0.00    +0.058 A 
ENDROOT
BRANCH   3  12
ATOM     12  C   UNL     1       2.313   5.389  -7.429  0.00  0.00    +0.162 C 
ATOM     13  C   UNL     1       2.207   6.980  -7.132  0.00  0.00    +0.266 C 
ATOM     14  O   UNL     1       3.186   7.439  -6.457  0.00  0.00    -0.271 OA
ATOM     15  N   UNL     1       0.978   7.134  -6.389  0.00  0.00    -0.143 NA
ATOM     16  C   UNL     1      -0.054   6.162  -6.408  0.00  0.00    +0.248 C 
ATOM     17  O   UNL     1      -0.636   5.726  -5.366  0.00  0.00    -0.273 OA
ATOM     18  C   UNL     1      -0.201   5.288  -7.612  0.00  0.00    +0.089 C 
ATOM     19  C   UNL     1       1.024   5.432  -8.462  0.00  0.00    +0.039 C 
ENDBRANCH   3  12
TORSDOF 1
ENDMDL
MODEL 5
REMARK VINA RESULT:      -7.4      1.861      2.332
REMARK  Name = 
REMARK  1 active torsions:
REMARK  status: ('A' for Active; 'I' for Inactive)
REMARK    1  A    between atoms: N_11  and  C_12
REMARK                            x       y       z     vdW  Elec       q    Type
REMARK                         _______ _______ _______ _____ _____    ______ ____
ROOT
ATOM      1  O   UNL     1      -0.727   6.307  -6.322  0.00  0.00    -0.269 OA
ATOM      2  C   UNL     1      -0.456   6.000  -5.626  0.00  0.00    +0.255 C 
ATOM      3  N   UNL     1       0.836   6.285  -5.093  0.00  0.00    -0.216 N 
ATOM      4  C   UNL     1       0.899   5.926  -3.705  0.00  0.00    +0.255 C 
ATOM      5  O   UNL     1       1.868   5.578  -2.998  0.00  0.00    -0.269 OA
ATOM      6  C   UNL     1      -0.491   5.655  -3.307  0.00  0.00    +0.058 A 
ATOM      7  C   UNL     1      -1.049   5.642  -2.032  0.00  0.00    +0.005 A 
ATOM      8  C   UNL     1      -2.412   5.643  -1.880  0.00  0.00    +0.000 A 
ATOM      9  C   UNL     1      -3.204   5.560  -2.994  0.00  0.00    +0.000 A 
ATOM     10  C   UNL     1      -2.635   5.705  -4.250  0.00  0.00    +0.005 A 
ATOM     11  C   UNL     1      -1.266   5.671  -4.449  0.00  0.00    +0.058 A 
ENDROOT
BRANCH   3  12
ATOM     12  C   UNL     1       2.162   5.945  -5.873  0.00  0.00    +0.162 C 
ATOM     13  C   UNL     1       1.577   4.699  -6.730  0.00  0.00    +0.266 C 
ATOM     14  O   UNL     1       1.521   3.608  -6.072  0.00  0.00    -0.271 OA
ATOM     15  N   UNL     1       2.486   4.558  -7.843  0.00  0.00    -0.143 NA
ATOM     16  C   UNL     1       3.343   5.607  -8.268  0.00  0.00    +0.248 C 
ATOM     17  O   UNL     1       4.579   5.454  -8.515  0.00  0.00    -0.273 OA
ATOM     18  C   UNL     1       2.929   7.022  -8.022  0.00  0.00    +0.089 C 
ATOM     19  C   UNL     1       1.778   7.025  -7.063  0.00  0.00    +0.039 C 
ENDBRANCH   3  12
TORSDOF 1
ENDMDL
MODEL 6
REMARK VINA RESULT:      -7.4      2.728      4.588
REMARK  Name = 
REMARK  1 active torsions:
REMARK  status: ('A' for Active; 'I' for Inactive)
REMARK    1  A    between atoms: N_11  and  C_12
REMARK                            x       y       z     vdW  Elec       q    Type
REMARK                         _______ _______ _______ _____ _____    ______ ____
ROOT
ATOM      1  O   UNL     1       4.197   5.967  -6.880  0.00  0.00    -0.269 OA
ATOM      2  C   UNL     1       3.712   6.351  -6.360  0.00  0.00    +0.255 C 
ATOM      3  N   UNL     1       2.325   6.053  -6.216  0.00  0.00    -0.216 N 
ATOM      4  C   UNL     1       1.816   6.602  -4.991  0.00  0.00    +0.255 C 
ATOM      5  O   UNL     1       0.664   6.977  -4.685  0.00  0.00    -0.269 OA
ATOM      6  C   UNL     1       3.001   7.027  -4.231  0.00  0.00    +0.058 A 
ATOM      7  C   UNL     1       3.124   7.263  -2.864  0.00  0.00    +0.005 A 
ATOM      8  C   UNL     1       4.368   7.383  -2.299  0.00  0.00    +0.000 A 
ATOM      9  C   UNL     1       5.471   7.362  -3.111  0.00  0.00    +0.000 A 
ATOM     10  C   UNL     1       5.334   6.997  -4.441  0.00  0.00    +0.005 A 
ATOM     11  C   UNL     1       4.099   6.903  -5.058  0.00  0.00    +0.058 A 
ENDROOT
BRANCH   3  12
ATOM     12  C   UNL     1       1.308   6.181  -7.412  0.00  0.00    +0.162 C 
ATOM     13  C   UNL     1       2.145   7.272  -8.272  0.00  0.00    +0.266 C 
ATOM     14  O   UNL     1       2.011   8.467  -7.849  0.00  0.00    -0.271 OA
ATOM     15  N   UNL     1       1.624   7.161  -9.614  0.00  0.00    -0.143 NA
ATOM     16  C   UNL     1       0.926   6.014 -10.072  0.00  0.00    +0.248 C 
ATOM     17  O   UNL     1      -0.173   6.061 -10.708  0.00  0.00    -0.273 OA
ATOM     18  C   UNL     1       1.224   4.690  -9.446  0.00  0.00    +0.089 C 
ATOM     19  C   UNL     1       2.024   4.917  -8.200  0.00  0.00    +0.039 C 
ENDBRANCH   3  12
TORSDOF 1
ENDMDL
MODEL 7
REMARK VINA RESULT:      -7.3      2.935      5.024
REMARK  Name = 
REMARK  1 active torsions:
REMARK  status: ('A' for Active; 'I' for Inactive)
REMARK    1  A    between atoms: N_11  and  C_12
REMARK                            x       y       z     vdW  Elec       q    Type
REMARK                         _______ _______ _______ _____ _____    ______ ____
ROOT
ATOM      1  O   UNL     1       1.578   4.628  -8.206  0.00  0.00    -0.269 OA
ATOM      2  C   UNL     1       1.829   5.129  -8.787  0.00  0.00    +0.255 C 
ATOM      3  N   UNL     1       3.181   5.559  -8.923  0.00  0.00    -0.216 N 
ATOM      4  C   UNL     1       3.405   6.117 -10.227  0.00  0.00    +0.255 C 
ATOM      5  O   UNL     1       4.223   6.978 -10.613  0.00  0.00    -0.269 OA
ATOM      6  C   UNL     1       2.208   5.775 -11.009  0.00  0.00    +0.058 A 
ATOM      7  C   UNL     1       2.051   5.727 -12.392  0.00  0.00    +0.005 A 
ATOM      8  C   UNL     1       0.947   5.122 -12.936  0.00  0.00    +0.000 A 
ATOM      9  C   UNL     1      -0.033   4.656 -12.102  0.00  0.00    +0.000 A 
ATOM     10  C   UNL     1       0.202   4.596 -10.737  0.00  0.00    +0.005 A 
ATOM     11  C   UNL     1       1.283   5.226 -10.145  0.00  0.00    +0.058 A 
ENDROOT
BRANCH   3  12
ATOM     12  C   UNL     1       3.933   6.346  -7.784  0.00  0.00    +0.162 C 
ATOM     13  C   UNL     1       2.639   7.125  -7.192  0.00  0.00    +0.266 C 
ATOM     14  O   UNL     1       2.306   8.151  -7.871  0.00  0.00    -0.271 OA
ATOM     15  N   UNL     1       3.027   7.520  -5.857  0.00  0.00    -0.143 NA
ATOM     16  C   UNL     1       4.091   6.898  -5.154  0.00  0.00    +0.248 C 
ATOM     17  O   UNL     1       5.004   7.535  -4.542  0.00  0.00    -0.273 OA
ATOM     18  C   UNL     1       4.431   5.477  -5.468  0.00  0.00    +0.089 C 
ATOM     19  C   UNL     1       3.733   5.085  -6.735  0.00  0.00    +0.039 C 
ENDBRANCH   3  12
TORSDOF 1
ENDMDL
MODEL 8
REMARK VINA RESULT:      -7.3      2.433      5.993
REMARK  Name = 
REMARK  1 active torsions:
REMARK  status: ('A' for Active; 'I' for Inactive)
REMARK    1  A    between atoms: N_11  and  C_12
REMARK                            x       y       z     vdW  Elec       q    Type
REMARK                         _______ _______ _______ _____ _____    ______ ____
ROOT
ATOM      1  O   UNL     1       4.499   5.563  -6.111  0.00  0.00    -0.269 OA
ATOM      2  C   UNL     1       4.077   5.779  -6.765  0.00  0.00    +0.255 C 
ATOM      3  N   UNL     1       3.078   6.796  -6.752  0.00  0.00    -0.216 N 
ATOM      4  C   UNL     1       2.776   7.224  -8.089  0.00  0.00    +0.255 C 
ATOM      5  O   UNL     1       1.730   7.706  -8.572  0.00  0.00    -0.269 OA
ATOM      6  C   UNL     1       3.822   6.629  -8.935  0.00  0.00    +0.058 A 
ATOM      7  C   UNL     1       4.236   7.007 -10.209  0.00  0.00    +0.005 A 
ATOM      8  C   UNL     1       5.406   6.511 -10.725  0.00  0.00    +0.000 A 
ATOM      9  C   UNL     1       6.102   5.574 -10.010  0.00  0.00    +0.000 A 
ATOM     10  C   UNL     1       5.745   5.312  -8.696  0.00  0.00    +0.005 A 
ATOM     11  C   UNL     1       4.555   5.761  -8.151  0.00  0.00    +0.058 A 
ENDROOT
BRANCH   3  12
ATOM     12  C   UNL     1       1.800   6.710  -5.836  0.00  0.00    +0.162 C 
ATOM     13  C   UNL     1       1.573   5.109  -5.958  0.00  0.00    +0.266 C 
ATOM     14  O   UNL     1       0.992   4.757  -7.036  0.00  0.00    -0.271 OA
ATOM     15  N   UNL     1       0.752   4.765  -4.820  0.00  0.00    -0.143 NA
ATOM     16  C   UNL     1       0.651   5.593  -3.672  0.00  0.00    +0.248 C 
ATOM     17  O   UNL     1      -0.450   5.908  -3.121  0.00  0.00    -0.273 OA
ATOM     18  C   UNL     1       1.797   6.486  -3.322  0.00  0.00    +0.089 C 
ATOM     19  C   UNL     1       2.739   6.537  -4.486  0.00  0.00    +0.039 C 
ENDBRANCH   3  12
TORSDOF 1
ENDMDL
MODEL 9
REMARK VINA RESULT:      -7.3      1.805      3.051
REMARK  Name = 
REMARK  1 active torsions:
REMARK  status: ('A' for Active; 'I' for Inactive)
REMARK    1  A    between atoms: N_11  and  C_12
REMARK                            x       y       z     vdW  Elec       q    Type
REMARK                         _______ _______ _______ _____ _____    ______ ____
ROOT
ATOM      1  O   UNL     1       1.627   4.768  -4.691  0.00  0.00    -0.269 OA
ATOM      2  C   UNL     1       0.934   5.114  -4.917  0.00  0.00    +0.255 C 
ATOM      3  N   UNL     1       0.318   4.883  -6.183  0.00  0.00    -0.216 N 
ATOM      4  C   UNL     1      -1.053   5.309  -6.163  0.00  0.00    +0.255 C 
ATOM      5  O   UNL     1      -1.793   5.711  -7.085  0.00  0.00    -0.269 OA
ATOM      6  C   UNL     1      -1.360   5.571  -4.748  0.00  0.00    +0.058 A 
ATOM      7  C   UNL     1      -2.601   5.634  -4.121  0.00  0.00    +0.005 A 
ATOM      8  C   UNL     1      -2.679   5.612  -2.752  0.00  0.00    +0.000 A 
ATOM      9  C   UNL     1      -1.521   5.624  -2.021  0.00  0.00    +0.000 A 
ATOM     10  C   UNL     1      -0.307   5.430  -2.660  0.00  0.00    +0.005 A 
ATOM     11  C   UNL     1      -0.180   5.483  -4.038  0.00  0.00    +0.058 A 
ENDROOT
BRANCH   3  12
ATOM     12  C   UNL     1       1.041   5.212  -7.543  0.00  0.00    +0.162 C 
ATOM     13  C   UNL     1       2.019   6.373  -6.974  0.00  0.00    +0.266 C 
ATOM     14  O   UNL     1       1.447   7.505  -6.846  0.00  0.00    -0.271 OA
ATOM     15  N   UNL     1       3.084   6.465  -7.946  0.00  0.00    -0.143 NA
ATOM     16  C   UNL     1       3.380   5.420  -8.858  0.00  0.00    +0.248 C 
ATOM     17  O   UNL     1       3.565   5.596 -10.103  0.00  0.00    -0.273 OA
ATOM     18  C   UNL     1       3.057   4.012  -8.473  0.00  0.00    +0.089 C 
ATOM     19  C   UNL     1       2.170   4.037  -7.266  0.00  0.00    +0.039 C 
ENDBRANCH   3  12
TORSDOF 1
ENDMDL
