MODEL 1
REMARK VINA RESULT:      -5.2      0.000      0.000
REMARK  Name = 
REMARK  2 active torsions:
REMARK  status: ('A' for Active; 'I' for Inactive)
REMARK    1  A    between atoms: C_2  and  C_3
REMARK    2  A    between atoms: C_6  and  C_7
REMARK                            x       y       z     vdW  Elec       q    Type
REMARK                         _______ _______ _______ _____ _____    ______ ____
ROOT
ATOM      1  C   UNL     1       4.994   6.967 -10.471  0.00  0.00    +0.019 C 
ATOM      2  C   UNL     1       4.443   5.962 -11.668  0.00  0.00    +0.002 C 
ATOM      3  C   UNL     1       5.709   5.420 -12.307  0.00  0.00    +0.011 C 
ATOM      4  C   UNL     1       6.875   6.553 -11.953  0.00  0.00    +0.103 C 
ATOM      5  C   UNL     1       7.230   5.809 -10.507  0.00  0.00    +0.011 C 
ATOM      6  C   UNL     1       5.900   5.764  -9.777  0.00  0.00    +0.002 C 
ENDROOT
BRANCH   4   7
ATOM      7  C   UNL     1       8.020   5.737 -12.769  0.00  0.00    +0.364 C 
ATOM      8  O   UNL     1       9.264   5.924 -12.149  0.00  0.00    -0.246 OA
ATOM      9  O   UNL     1       7.696   4.677 -13.295  0.00  0.00    -0.246 OA
ENDBRANCH   4   7
BRANCH   1  11
ATOM     10  N   UNL     1       3.584   5.321  -9.322  0.00  0.00    -0.131 NA
ATOM     11  C   UNL     1       3.699   6.664  -9.494  0.00  0.00    +0.109 C 
ENDBRANCH   1  11
TORSDOF 2
ENDMDL
MODEL 2
REMARK VINA RESULT:      -5.2      3.215      4.525
REMARK  Name = 
REMARK  2 active torsions:
REMARK  status: ('A' for Active; 'I' for Inactive)
REMARK    1  A    between atoms: C_2  and  C_3
REMARK    2  A    between atoms: C_6  and  C_7
REMARK                            x       y       z     vdW  Elec       q    Type
REMARK                         _______ _______ _______ _____ _____    ______ ____
ROOT
ATOM      1  C   UNL     1       6.984   6.676 -11.567  0.00  0.00    +0.019 C 
ATOM      2  C   UNL     1       7.150   5.942 -10.090  0.00  0.00    +0.002 C 
ATOM      3  C   UNL     1       5.723   5.776  -9.597  0.00  0.00    +0.011 C 
ATOM      4  C   UNL     1       4.860   6.940 -10.415  0.00  0.00    +0.103 C 
ATOM      5  C   UNL     1       4.588   5.910 -11.694  0.00  0.00    +0.011 C 
ATOM      6  C   UNL     1       5.978   5.482 -12.128  0.00  0.00    +0.002 C 
ENDROOT
BRANCH   4   7
ATOM      7  C   UNL     1       3.473   6.540  -9.668  0.00  0.00    +0.364 C 
ATOM      8  O   UNL     1       3.340   5.144  -9.636  0.00  0.00    -0.246 OA
ATOM      9  O   UNL     1       3.093   7.262  -8.751  0.00  0.00    -0.246 OA
ENDBRANCH   4   7
BRANCH   1  11
ATOM     10  N   UNL     1       7.956   4.785 -12.792  0.00  0.00    -0.131 NA
ATOM     11  C   UNL     1       8.328   5.943 -12.184  0.00  0.00    +0.109 C 
ENDBRANCH   1  11
TORSDOF 2
ENDMDL
MODEL 3
REMARK VINA RESULT:      -5.0      8.955     10.929
REMARK  Name = 
REMARK  2 active torsions:
REMARK  status: ('A' for Active; 'I' for Inactive)
REMARK    1  A    between atoms: C_2  and  C_3
REMARK    2  A    between atoms: C_6  and  C_7
REMARK                            x       y       z     vdW  Elec       q    Type
REMARK                         _______ _______ _______ _____ _____    ______ ____
ROOT
ATOM      1  C   UNL     1      -0.174   6.957  -5.431  0.00  0.00    +0.019 C 
ATOM      2  C   UNL     1       0.347   6.019  -4.167  0.00  0.00    +0.002 C 
ATOM      3  C   UNL     1      -0.935   5.513  -3.531  0.00  0.00    +0.011 C 
ATOM      4  C   UNL     1      -2.091   6.624  -3.974  0.00  0.00    +0.103 C 
ATOM      5  C   UNL     1      -2.410   5.801  -5.386  0.00  0.00    +0.011 C 
ATOM      6  C   UNL     1      -1.063   5.717  -6.079  0.00  0.00    +0.002 C 
ENDROOT
BRANCH   4   7
ATOM      7  C   UNL     1      -3.256   5.854  -3.143  0.00  0.00    +0.364 C 
ATOM      8  O   UNL     1      -2.758   4.640  -2.649  0.00  0.00    -0.246 OA
ATOM      9  O   UNL     1      -4.059   6.542  -2.521  0.00  0.00    -0.246 OA
ENDBRANCH   4   7
BRANCH   1  11
ATOM     10  N   UNL     1       0.732   5.948  -7.475  0.00  0.00    -0.131 NA
ATOM     11  C   UNL     1       1.145   6.602  -6.357  0.00  0.00    +0.109 C 
ENDBRANCH   1  11
TORSDOF 2
ENDMDL
MODEL 4
REMARK VINA RESULT:      -4.9      7.646      9.341
REMARK  Name = 
REMARK  2 active torsions:
REMARK  status: ('A' for Active; 'I' for Inactive)
REMARK    1  A    between atoms: C_2  and  C_3
REMARK    2  A    between atoms: C_6  and  C_7
REMARK                            x       y       z     vdW  Elec       q    Type
REMARK                         _______ _______ _______ _____ _____    ______ ____
ROOT
ATOM      1  C   UNL     1      -2.045   6.512  -4.064  0.00  0.00    +0.019 C 
ATOM      2  C   UNL     1      -2.285   5.710  -5.495  0.00  0.00    +0.002 C 
ATOM      3  C   UNL     1      -0.908   5.676  -6.133  0.00  0.00    +0.011 C 
ATOM      4  C   UNL     1      -0.093   6.952  -5.444  0.00  0.00    +0.103 C 
ATOM      5  C   UNL     1       0.419   6.004  -4.175  0.00  0.00    +0.011 C 
ATOM      6  C   UNL     1      -0.865   5.451  -3.583  0.00  0.00    +0.002 C 
ENDROOT
BRANCH   4   7
ATOM      7  C   UNL     1       1.243   6.671  -6.325  0.00  0.00    +0.364 C 
ATOM      8  O   UNL     1       1.328   5.304  -6.629  0.00  0.00    -0.246 OA
ATOM      9  O   UNL     1       1.603   7.545  -7.106  0.00  0.00    -0.246 OA
ENDBRANCH   4   7
BRANCH   1  11
ATOM     10  N   UNL     1      -2.665   4.913  -2.308  0.00  0.00    -0.131 NA
ATOM     11  C   UNL     1      -3.232   5.668  -3.286  0.00  0.00    +0.109 C 
ENDBRANCH   1  11
TORSDOF 2
ENDMDL
MODEL 5
REMARK VINA RESULT:      -4.9      7.218      9.089
REMARK  Name = 
REMARK  2 active torsions:
REMARK  status: ('A' for Active; 'I' for Inactive)
REMARK    1  A    between atoms: C_2  and  C_3
REMARK    2  A    between atoms: C_6  and  C_7
REMARK                            x       y       z     vdW  Elec       q    Type
REMARK                         _______ _______ _______ _____ _____    ______ ____
ROOT
ATOM      1  C   UNL     1      -1.373   5.409  -4.342  0.00  0.00    +0.019 C 
ATOM      2  C   UNL     1      -0.565   6.857  -4.346  0.00  0.00    +0.002 C 
ATOM      3  C   UNL     1       0.017   6.950  -5.745  0.00  0.00    +0.011 C 
ATOM      4  C   UNL     1       0.110   5.373  -6.267  0.00  0.00    +0.103 C 
ATOM      5  C   UNL     1      -1.445   5.426  -6.859  0.00  0.00    +0.011 C 
ATOM      6  C   UNL     1      -2.284   5.832  -5.662  0.00  0.00    +0.002 C 
ENDROOT
BRANCH   4   7
ATOM      7  C   UNL     1       0.773   5.805  -7.687  0.00  0.00    +0.364 C 
ATOM      8  O   UNL     1      -0.119   5.516  -8.730  0.00  0.00    -0.246 OA
ATOM      9  O   UNL     1       1.505   6.789  -7.696  0.00  0.00    -0.246 OA
ENDBRANCH   4   7
BRANCH   1  11
ATOM     10  N   UNL     1      -2.754   4.974  -2.361  0.00  0.00    -0.131 NA
ATOM     11  C   UNL     1      -2.517   5.947  -3.280  0.00  0.00    +0.109 C 
ENDBRANCH   1  11
TORSDOF 2
ENDMDL
MODEL 6
REMARK VINA RESULT:      -4.8      1.999      2.687
REMARK  Name = 
REMARK  2 active torsions:
REMARK  status: ('A' for Active; 'I' for Inactive)
REMARK    1  A    between atoms: C_2  and  C_3
REMARK    2  A    between atoms: C_6  and  C_7
REMARK                            x       y       z     vdW  Elec       q    Type
REMARK                         _______ _______ _______ _____ _____    ______ ____
ROOT
ATOM      1  C   UNL     1       7.096   6.575 -10.706  0.00  0.00    +0.019 C 
ATOM      2  C   UNL     1       5.658   5.845 -11.091  0.00  0.00    +0.002 C 
ATOM      3  C   UNL     1       5.640   5.844 -12.609  0.00  0.00    +0.011 C 
ATOM      4  C   UNL     1       6.659   7.086 -13.042  0.00  0.00    +0.103 C 
ATOM      5  C   UNL     1       7.982   6.076 -13.010  0.00  0.00    +0.011 C 
ATOM      6  C   UNL     1       7.970   5.493 -11.609  0.00  0.00    +0.002 C 
ENDROOT
BRANCH   4   7
ATOM      7  C   UNL     1       6.392   6.851 -14.628  0.00  0.00    +0.364 C 
ATOM      8  O   UNL     1       6.243   8.089 -15.269  0.00  0.00    -0.246 OA
ATOM      9  O   UNL     1       6.943   5.892 -15.161  0.00  0.00    -0.246 OA
ENDBRANCH   4   7
BRANCH   1  11
ATOM     10  N   UNL     1       6.050   5.400  -8.823  0.00  0.00    -0.131 NA
ATOM     11  C   UNL     1       7.279   5.691  -9.324  0.00  0.00    +0.109 C 
ENDBRANCH   1  11
TORSDOF 2
ENDMDL
MODEL 7
REMARK VINA RESULT:      -4.8      1.293      2.180
REMARK  Name = 
REMARK  2 active torsions:
REMARK  status: ('A' for Active; 'I' for Inactive)
REMARK    1  A    between atoms: C_2  and  C_3
REMARK    2  A    between atoms: C_6  and  C_7
REMARK                            x       y       z     vdW  Elec       q    Type
REMARK                         _______ _______ _______ _____ _____    ______ ____
ROOT
ATOM      1  C   UNL     1       4.138   5.477  -9.619  0.00  0.00    +0.019 C 
ATOM      2  C   UNL     1       5.507   5.408  -8.685  0.00  0.00    +0.002 C 
ATOM      3  C   UNL     1       6.630   5.729  -9.654  0.00  0.00    +0.011 C 
ATOM      4  C   UNL     1       6.020   5.336 -11.151  0.00  0.00    +0.103 C 
ATOM      5  C   UNL     1       5.362   6.854 -11.336  0.00  0.00    +0.011 C 
ATOM      6  C   UNL     1       4.470   7.022 -10.119  0.00  0.00    +0.002 C 
ENDROOT
BRANCH   4   7
ATOM      7  C   UNL     1       7.405   5.735 -11.902  0.00  0.00    +0.364 C 
ATOM      8  O   UNL     1       7.794   4.693 -12.756  0.00  0.00    -0.246 OA
ATOM      9  O   UNL     1       7.581   6.917 -12.179  0.00  0.00    -0.246 OA
ENDBRANCH   4   7
BRANCH   1  11
ATOM     10  N   UNL     1       2.867   7.300  -8.579  0.00  0.00    -0.131 NA
ATOM     11  C   UNL     1       3.200   5.999  -8.365  0.00  0.00    +0.109 C 
ENDBRANCH   1  11
TORSDOF 2
ENDMDL
MODEL 8
REMARK VINA RESULT:      -4.5      1.706      2.221
REMARK  Name = 
REMARK  2 active torsions:
REMARK  status: ('A' for Active; 'I' for Inactive)
REMARK    1  A    between atoms: C_2  and  C_3
REMARK    2  A    between atoms: C_6  and  C_7
REMARK                            x       y       z     vdW  Elec       q    Type
REMARK                         _______ _______ _______ _____ _____    ______ ____
ROOT
ATOM      1  C   UNL     1       4.017   5.958  -8.578  0.00  0.00    +0.019 C 
ATOM      2  C   UNL     1       3.467   5.196  -9.944  0.00  0.00    +0.002 C 
ATOM      3  C   UNL     1       4.604   5.352 -10.937  0.00  0.00    +0.011 C 
ATOM      4  C   UNL     1       5.446   6.685 -10.405  0.00  0.00    +0.103 C 
ATOM      5  C   UNL     1       6.388   5.750  -9.400  0.00  0.00    +0.011 C 
ATOM      6  C   UNL     1       5.386   5.024  -8.522  0.00  0.00    +0.002 C 
ENDROOT
BRANCH   4   7
ATOM      7  C   UNL     1       6.501   6.602 -11.638  0.00  0.00    +0.364 C 
ATOM      8  O   UNL     1       6.701   5.262 -11.998  0.00  0.00    -0.246 OA
ATOM      9  O   UNL     1       6.486   7.512 -12.461  0.00  0.00    -0.246 OA
ENDBRANCH   4   7
BRANCH   1  11
ATOM     10  N   UNL     1       2.703   3.905  -8.296  0.00  0.00    -0.131 NA
ATOM     11  C   UNL     1       3.189   4.946  -7.570  0.00  0.00    +0.109 C 
ENDBRANCH   1  11
TORSDOF 2
ENDMDL
MODEL 9
REMARK VINA RESULT:      -4.4      8.266      9.340
REMARK  Name = 
REMARK  2 active torsions:
REMARK  status: ('A' for Active; 'I' for Inactive)
REMARK    1  A    between atoms: C_2  and  C_3
REMARK    2  A    between atoms: C_6  and  C_7
REMARK                            x       y       z     vdW  Elec       q    Type
REMARK                         _______ _______ _______ _____ _____    ______ ____
ROOT
ATOM      1  C   UNL     1       1.372   5.140  -4.591  0.00  0.00    +0.019 C 
ATOM      2  C   UNL     1       0.897   4.463  -6.028  0.00  0.00    +0.002 C 
ATOM      3  C   UNL     1      -0.418   5.154  -6.344  0.00  0.00    +0.011 C 
ATOM      4  C   UNL     1      -0.981   5.679  -4.869  0.00  0.00    +0.103 C 
ATOM      5  C   UNL     1      -0.142   7.110  -5.002  0.00  0.00    +0.011 C 
ATOM      6  C   UNL     1       1.298   6.678  -5.209  0.00  0.00    +0.002 C 
ENDROOT
BRANCH   4   7
ATOM      7  C   UNL     1      -2.335   6.296  -5.524  0.00  0.00    +0.364 C 
ATOM      8  O   UNL     1      -2.490   7.629  -5.117  0.00  0.00    -0.246 OA
ATOM      9  O   UNL     1      -2.655   5.904  -6.642  0.00  0.00    -0.246 OA
ENDBRANCH   4   7
BRANCH   1  11
ATOM     10  N   UNL     1       3.529   6.230  -5.019  0.00  0.00    -0.131 NA
ATOM     11  C   UNL     1       2.977   4.990  -4.947  0.00  0.00    +0.109 C 
ENDBRANCH   1  11
TORSDOF 2
ENDMDL
