MODEL 1
REMARK VINA RESULT:      -8.4      0.000      0.000
REMARK  Name = 
REMARK  14 active torsions:
REMARK  status: ('A' for Active; 'I' for Inactive)
REMARK    1  A    between atoms: C_2  and  C_18
REMARK    2  A    between atoms: C_3  and  C_4
REMARK    3  A    between atoms: C_4  and  C_5
REMARK    4  A    between atoms: C_18  and  C_19
REMARK    5  A    between atoms: C_19  and  C_20
REMARK    6  A    between atoms: C_20  and  C_21
REMARK    7  A    between atoms: C_21  and  C_23
REMARK    8  A    between atoms: C_23  and  C_24
REMARK    9  A    between atoms: C_24  and  C_25
REMARK   10  A    between atoms: C_25  and  C_26
REMARK   11  A    between atoms: C_26  and  C_28
REMARK   12  A    between atoms: C_28  and  C_29
REMARK   13  A    between atoms: C_29  and  C_30
REMARK   14  A    between atoms: C_30  and  C_31
REMARK                            x       y       z     vdW  Elec       q    Type
REMARK                         _______ _______ _______ _____ _____    ______ ____
ROOT
ATOM      1  C   UNL     1       4.783   7.562  -4.329  0.00  0.00    +0.026 C 
ATOM      2  C   UNL     1       4.624   6.085  -4.129  0.00  0.00    -0.048 C 
ATOM      3  C   UNL     1       3.886   5.820  -3.070  0.00  0.00    -0.030 C 
ENDROOT
BRANCH   2   4
ATOM      4  C   UNL     1       4.752   5.284  -5.359  0.00  0.00    +0.022 C 
BRANCH   4   5
ATOM      5  C   UNL     1       4.622   6.068  -6.624  0.00  0.00    +0.004 C 
BRANCH   5   6
ATOM      6  C   UNL     1       3.594   5.426  -7.491  0.00  0.00    +0.000 C 
BRANCH   6   7
ATOM      7  C   UNL     1       2.957   6.580  -8.449  0.00  0.00    +0.000 C 
ATOM      8  C   UNL     1       1.543   5.786  -8.630  0.00  0.00    +0.000 C 
BRANCH   7   9
ATOM      9  C   UNL     1       3.587   5.944  -9.814  0.00  0.00    +0.000 C 
BRANCH   9  10
ATOM     10  C   UNL     1       4.787   6.775 -10.169  0.00  0.00    +0.000 C 
BRANCH  10  11
ATOM     11  C   UNL     1       6.024   5.972 -10.315  0.00  0.00    +0.000 C 
BRANCH  11  12
ATOM     12  C   UNL     1       7.310   6.975 -10.282  0.00  0.00    +0.000 C 
ATOM     13  C   UNL     1       6.552   8.060 -11.240  0.00  0.00    +0.000 C 
BRANCH  12  14
ATOM     14  C   UNL     1       8.061   6.222 -11.516  0.00  0.00    +0.000 C 
BRANCH  14  15
ATOM     15  C   UNL     1       7.067   5.532 -12.359  0.00  0.00    +0.000 C 
BRANCH  15  16
ATOM     16  C   UNL     1       7.475   5.420 -13.823  0.00  0.00    +0.000 C 
BRANCH  16  17
ATOM     17  C   UNL     1       6.237   5.949 -14.545  0.00  0.00    +0.000 C 
ATOM     18  C   UNL     1       6.324   7.394 -14.877  0.00  0.00    +0.000 C 
ATOM     19  C   UNL     1       5.058   5.551 -13.718  0.00  0.00    +0.000 C 
ENDBRANCH  16  17
ENDBRANCH  15  16
ENDBRANCH  14  15
ENDBRANCH  12  14
ENDBRANCH  11  12
ENDBRANCH  10  11
ENDBRANCH   9  10
ENDBRANCH   7   9
ENDBRANCH   6   7
ENDBRANCH   5   6
ENDBRANCH   4   5
ENDBRANCH   2   4
BRANCH   3  20
ATOM     20  C   UNL     1       2.608   6.420  -2.757  0.00  0.00    +0.055 C 
BRANCH  20  21
ATOM     21  C   UNL     1       1.389   5.776  -3.247  0.00  0.00    +0.020 C 
ATOM     22  C   UNL     1       0.812   6.238  -4.518  0.00  0.00    +0.192 C 
ATOM     23  O   UNL     1       1.440   7.036  -5.279  0.00  0.00    -0.287 OA
ATOM     24  C   UNL     1      -0.643   6.229  -4.710  0.00  0.00    +0.042 A 
ATOM     25  C   UNL     1      -1.492   5.712  -3.745  0.00  0.00    +0.042 A 
ATOM     26  C   UNL     1      -2.804   5.404  -4.081  0.00  0.00    +0.003 A 
ATOM     27  C   UNL     1      -3.108   5.085  -5.399  0.00  0.00    +0.000 A 
ATOM     28  C   UNL     1      -2.319   5.670  -6.363  0.00  0.00    +0.000 A 
ATOM     29  C   UNL     1      -0.909   5.421  -2.452  0.00  0.00    +0.192 C 
ATOM     30  O   UNL     1      -1.713   5.284  -1.480  0.00  0.00    -0.287 OA
ATOM     31  C   UNL     1      -1.136   6.299  -6.000  0.00  0.00    +0.003 A 
ATOM     32  C   UNL     1       0.529   5.378  -2.303  0.00  0.00    +0.017 C 
ATOM     33  C   UNL     1       1.056   4.893  -0.994  0.00  0.00    +0.034 C 
ENDBRANCH  20  21
ENDBRANCH   3  20
TORSDOF 14
ENDMDL
MODEL 2
REMARK VINA RESULT:      -8.2      2.536      9.377
REMARK  Name = 
REMARK  14 active torsions:
REMARK  status: ('A' for Active; 'I' for Inactive)
REMARK    1  A    between atoms: C_2  and  C_18
REMARK    2  A    between atoms: C_3  and  C_4
REMARK    3  A    between atoms: C_4  and  C_5
REMARK    4  A    between atoms: C_18  and  C_19
REMARK    5  A    between atoms: C_19  and  C_20
REMARK    6  A    between atoms: C_20  and  C_21
REMARK    7  A    between atoms: C_21  and  C_23
REMARK    8  A    between atoms: C_23  and  C_24
REMARK    9  A    between atoms: C_24  and  C_25
REMARK   10  A    between atoms: C_25  and  C_26
REMARK   11  A    between atoms: C_26  and  C_28
REMARK   12  A    between atoms: C_28  and  C_29
REMARK   13  A    between atoms: C_29  and  C_30
REMARK   14  A    between atoms: C_30  and  C_31
REMARK                            x       y       z     vdW  Elec       q    Type
REMARK                         _______ _______ _______ _____ _____    ______ ____
ROOT
ATOM      1  C   UNL     1       0.410   5.629  -6.990  0.00  0.00    +0.026 C 
ATOM      2  C   UNL     1       1.811   5.666  -6.458  0.00  0.00    -0.048 C 
ATOM      3  C   UNL     1       2.444   4.533  -6.691  0.00  0.00    -0.030 C 
ENDROOT
BRANCH   2   4
ATOM      4  C   UNL     1       2.392   7.016  -6.360  0.00  0.00    +0.022 C 
BRANCH   4   5
ATOM      5  C   UNL     1       3.750   7.063  -5.741  0.00  0.00    +0.004 C 
BRANCH   5   6
ATOM      6  C   UNL     1       3.608   7.235  -4.267  0.00  0.00    +0.000 C 
BRANCH   6   7
ATOM      7  C   UNL     1       4.965   6.666  -3.566  0.00  0.00    +0.000 C 
ATOM      8  C   UNL     1       4.634   5.118  -3.958  0.00  0.00    +0.000 C 
BRANCH   7   9
ATOM      9  C   UNL     1       4.272   6.530  -2.093  0.00  0.00    +0.000 C 
BRANCH   9  10
ATOM     10  C   UNL     1       3.045   5.681  -2.267  0.00  0.00    +0.000 C 
BRANCH  10  11
ATOM     11  C   UNL     1       2.114   5.768  -1.117  0.00  0.00    +0.000 C 
BRANCH  11  12
ATOM     12  C   UNL     1       0.766   4.919  -1.466  0.00  0.00    +0.000 C 
ATOM     13  C   UNL     1       0.791   5.420  -3.020  0.00  0.00    +0.000 C 
BRANCH  12  14
ATOM     14  C   UNL     1      -0.235   6.105  -0.969  0.00  0.00    +0.000 C 
BRANCH  14  15
ATOM     15  C   UNL     1      -1.626   5.763  -1.321  0.00  0.00    +0.000 C 
BRANCH  15  16
ATOM     16  C   UNL     1      -2.495   6.975  -1.636  0.00  0.00    +0.000 C 
BRANCH  16  17
ATOM     17  C   UNL     1      -2.959   6.678  -3.060  0.00  0.00    +0.000 C 
ATOM     18  C   UNL     1      -2.962   5.229  -3.387  0.00  0.00    +0.000 C 
ATOM     19  C   UNL     1      -2.137   7.537  -3.965  0.00  0.00    +0.000 C 
ENDBRANCH  16  17
ENDBRANCH  15  16
ENDBRANCH  14  15
ENDBRANCH  12  14
ENDBRANCH  11  12
ENDBRANCH  10  11
ENDBRANCH   9  10
ENDBRANCH   7   9
ENDBRANCH   6   7
ENDBRANCH   5   6
ENDBRANCH   4   5
ENDBRANCH   2   4
BRANCH   3  20
ATOM     20  C   UNL     1       2.500   3.840  -7.958  0.00  0.00    +0.055 C 
BRANCH  20  21
ATOM     21  C   UNL     1       3.361   4.370  -9.015  0.00  0.00    +0.020 C 
ATOM     22  C   UNL     1       4.731   4.775  -8.667  0.00  0.00    +0.192 C 
ATOM     23  O   UNL     1       5.235   4.503  -7.535  0.00  0.00    -0.287 OA
ATOM     24  C   UNL     1       5.361   5.905  -9.360  0.00  0.00    +0.042 A 
ATOM     25  C   UNL     1       4.721   6.555 -10.404  0.00  0.00    +0.042 A 
ATOM     26  C   UNL     1       5.454   7.376 -11.251  0.00  0.00    +0.003 A 
ATOM     27  C   UNL     1       6.811   7.134 -11.421  0.00  0.00    +0.000 A 
ATOM     28  C   UNL     1       7.466   6.569 -10.350  0.00  0.00    +0.000 A 
ATOM     29  C   UNL     1       3.322   6.241 -10.607  0.00  0.00    +0.192 C 
ATOM     30  O   UNL     1       2.649   7.058 -11.307  0.00  0.00    -0.287 OA
ATOM     31  C   UNL     1       6.736   6.030  -9.299  0.00  0.00    +0.003 A 
ATOM     32  C   UNL     1       2.740   5.086  -9.958  0.00  0.00    +0.017 C 
ATOM     33  C   UNL     1       1.351   4.719 -10.357  0.00  0.00    +0.034 C 
ENDBRANCH  20  21
ENDBRANCH   3  20
TORSDOF 14
ENDMDL
MODEL 3
REMARK VINA RESULT:      -8.2      2.998      5.797
REMARK  Name = 
REMARK  14 active torsions:
REMARK  status: ('A' for Active; 'I' for Inactive)
REMARK    1  A    between atoms: C_2  and  C_18
REMARK    2  A    between atoms: C_3  and  C_4
REMARK    3  A    between atoms: C_4  and  C_5
REMARK    4  A    between atoms: C_18  and  C_19
REMARK    5  A    between atoms: C_19  and  C_20
REMARK    6  A    between atoms: C_20  and  C_21
REMARK    7  A    between atoms: C_21  and  C_23
REMARK    8  A    between atoms: C_23  and  C_24
REMARK    9  A    between atoms: C_24  and  C_25
REMARK   10  A    between atoms: C_25  and  C_26
REMARK   11  A    between atoms: C_26  and  C_28
REMARK   12  A    between atoms: C_28  and  C_29
REMARK   13  A    between atoms: C_29  and  C_30
REMARK   14  A    between atoms: C_30  and  C_31
REMARK                            x       y       z     vdW  Elec       q    Type
REMARK                         _______ _______ _______ _____ _____    ______ ____
ROOT
ATOM      1  C   UNL     1      -3.031   5.006  -3.459  0.00  0.00    +0.026 C 
ATOM      2  C   UNL     1      -3.068   6.478  -3.179  0.00  0.00    -0.048 C 
ATOM      3  C   UNL     1      -2.943   6.725  -1.890  0.00  0.00    -0.030 C 
ENDROOT
BRANCH   2   4
ATOM      4  C   UNL     1      -2.634   7.325  -4.303  0.00  0.00    +0.022 C 
BRANCH   4   5
ATOM      5  C   UNL     1      -1.978   6.583  -5.421  0.00  0.00    +0.004 C 
BRANCH   5   6
ATOM      6  C   UNL     1      -0.507   6.813  -5.360  0.00  0.00    +0.000 C 
BRANCH   6   7
ATOM      7  C   UNL     1       0.178   5.988  -6.588  0.00  0.00    +0.000 C 
ATOM      8  C   UNL     1      -1.224   5.270  -7.015  0.00  0.00    +0.000 C 
BRANCH   7   9
ATOM      9  C   UNL     1       0.627   4.739  -5.638  0.00  0.00    +0.000 C 
BRANCH   9  10
ATOM     10  C   UNL     1       2.113   4.586  -5.793  0.00  0.00    +0.000 C 
BRANCH  10  11
ATOM     11  C   UNL     1       2.565   4.719  -7.199  0.00  0.00    +0.000 C 
BRANCH  11  12
ATOM     12  C   UNL     1       4.070   5.347  -7.212  0.00  0.00    +0.000 C 
ATOM     13  C   UNL     1       3.576   6.678  -6.404  0.00  0.00    +0.000 C 
BRANCH  12  14
ATOM     14  C   UNL     1       3.890   6.020  -8.684  0.00  0.00    +0.000 C 
BRANCH  14  15
ATOM     15  C   UNL     1       2.630   5.556  -9.294  0.00  0.00    +0.000 C 
BRANCH  15  16
ATOM     16  C   UNL     1       1.972   6.585 -10.205  0.00  0.00    +0.000 C 
BRANCH  16  17
ATOM     17  C   UNL     1       0.515   6.129 -10.210  0.00  0.00    +0.000 C 
ATOM     18  C   UNL     1       0.356   4.673 -10.458  0.00  0.00    +0.000 C 
ATOM     19  C   UNL     1      -0.210   7.024 -11.161  0.00  0.00    +0.000 C 
ENDBRANCH  16  17
ENDBRANCH  15  16
ENDBRANCH  14  15
ENDBRANCH  12  14
ENDBRANCH  11  12
ENDBRANCH  10  11
ENDBRANCH   9  10
ENDBRANCH   7   9
ENDBRANCH   6   7
ENDBRANCH   5   6
ENDBRANCH   4   5
ENDBRANCH   2   4
BRANCH   3  20
ATOM     20  C   UNL     1      -1.941   6.162  -1.013  0.00  0.00    +0.055 C 
BRANCH  20  21
ATOM     21  C   UNL     1      -0.562   6.637  -1.122  0.00  0.00    +0.020 C 
ATOM     22  C   UNL     1       0.419   5.794  -1.820  0.00  0.00    +0.192 C 
ATOM     23  O   UNL     1       0.062   4.773  -2.482  0.00  0.00    -0.287 OA
ATOM     24  C   UNL     1       1.818   5.777  -1.377  0.00  0.00    +0.042 A 
ATOM     25  C   UNL     1       2.261   6.608  -0.361  0.00  0.00    +0.042 A 
ATOM     26  C   UNL     1       3.624   6.822  -0.195  0.00  0.00    +0.003 A 
ATOM     27  C   UNL     1       4.468   6.692  -1.291  0.00  0.00    +0.000 A 
ATOM     28  C   UNL     1       4.071   5.798  -2.260  0.00  0.00    +0.000 A 
ATOM     29  C   UNL     1       1.245   7.297   0.407  0.00  0.00    +0.192 C 
ATOM     30  O   UNL     1       1.600   7.771   1.529  0.00  0.00    -0.287 OA
ATOM     31  C   UNL     1       2.777   5.295  -2.249  0.00  0.00    +0.003 A 
ATOM     32  C   UNL     1      -0.116   7.349  -0.081  0.00  0.00    +0.017 C 
ATOM     33  C   UNL     1      -1.064   8.228   0.662  0.00  0.00    +0.034 C 
ENDBRANCH  20  21
ENDBRANCH   3  20
TORSDOF 14
ENDMDL
MODEL 4
REMARK VINA RESULT:      -8.1      1.989      5.249
REMARK  Name = 
REMARK  14 active torsions:
REMARK  status: ('A' for Active; 'I' for Inactive)
REMARK    1  A    between atoms: C_2  and  C_18
REMARK    2  A    between atoms: C_3  and  C_4
REMARK    3  A    between atoms: C_4  and  C_5
REMARK    4  A    between atoms: C_18  and  C_19
REMARK    5  A    between atoms: C_19  and  C_20
REMARK    6  A    between atoms: C_20  and  C_21
REMARK    7  A    between atoms: C_21  and  C_23
REMARK    8  A    between atoms: C_23  and  C_24
REMARK    9  A    between atoms: C_24  and  C_25
REMARK   10  A    between atoms: C_25  and  C_26
REMARK   11  A    between atoms: C_26  and  C_28
REMARK   12  A    between atoms: C_28  and  C_29
REMARK   13  A    between atoms: C_29  and  C_30
REMARK   14  A    between atoms: C_30  and  C_31
REMARK                            x       y       z     vdW  Elec       q    Type
REMARK                         _______ _______ _______ _____ _____    ______ ____
ROOT
ATOM      1  C   UNL     1      -2.985   5.030  -3.511  0.00  0.00    +0.026 C 
ATOM      2  C   UNL     1      -3.031   6.503  -3.235  0.00  0.00    -0.048 C 
ATOM      3  C   UNL     1      -2.932   6.753  -1.944  0.00  0.00    -0.030 C 
ENDROOT
BRANCH   2   4
ATOM      4  C   UNL     1      -2.578   7.349  -4.351  0.00  0.00    +0.022 C 
BRANCH   4   5
ATOM      5  C   UNL     1      -1.727   6.645  -5.357  0.00  0.00    +0.004 C 
BRANCH   5   6
ATOM      6  C   UNL     1      -0.318   7.104  -5.212  0.00  0.00    +0.000 C 
BRANCH   6   7
ATOM      7  C   UNL     1       0.535   6.503  -6.464  0.00  0.00    +0.000 C 
ATOM      8  C   UNL     1       0.151   4.958  -6.108  0.00  0.00    +0.000 C 
BRANCH   7   9
ATOM      9  C   UNL     1       1.931   6.439  -5.619  0.00  0.00    +0.000 C 
BRANCH   9  10
ATOM     10  C   UNL     1       2.626   5.170  -6.021  0.00  0.00    +0.000 C 
BRANCH  10  11
ATOM     11  C   UNL     1       4.005   5.396  -6.514  0.00  0.00    +0.000 C 
BRANCH  11  12
ATOM     12  C   UNL     1       3.944   5.762  -8.102  0.00  0.00    +0.000 C 
ATOM     13  C   UNL     1       3.209   4.346  -8.452  0.00  0.00    +0.000 C 
BRANCH  12  14
ATOM     14  C   UNL     1       5.444   5.200  -8.397  0.00  0.00    +0.000 C 
BRANCH  14  15
ATOM     15  C   UNL     1       6.152   6.119  -9.307  0.00  0.00    +0.000 C 
BRANCH  15  16
ATOM     16  C   UNL     1       7.438   5.542  -9.886  0.00  0.00    +0.000 C 
BRANCH  16  17
ATOM     17  C   UNL     1       7.818   6.586 -10.933  0.00  0.00    +0.000 C 
ATOM     18  C   UNL     1       6.662   7.390 -11.409  0.00  0.00    +0.000 C 
ATOM     19  C   UNL     1       8.578   5.866 -11.999  0.00  0.00    +0.000 C 
ENDBRANCH  16  17
ENDBRANCH  15  16
ENDBRANCH  14  15
ENDBRANCH  12  14
ENDBRANCH  11  12
ENDBRANCH  10  11
ENDBRANCH   9  10
ENDBRANCH   7   9
ENDBRANCH   6   7
ENDBRANCH   5   6
ENDBRANCH   4   5
ENDBRANCH   2   4
BRANCH   3  20
ATOM     20  C   UNL     1      -1.947   6.194  -1.046  0.00  0.00    +0.055 C 
BRANCH  20  21
ATOM     21  C   UNL     1      -0.561   6.650  -1.149  0.00  0.00    +0.020 C 
ATOM     22  C   UNL     1       0.408   5.802  -1.858  0.00  0.00    +0.192 C 
ATOM     23  O   UNL     1       0.036   4.794  -2.534  0.00  0.00    -0.287 OA
ATOM     24  C   UNL     1       1.807   5.759  -1.417  0.00  0.00    +0.042 A 
ATOM     25  C   UNL     1       2.262   6.571  -0.390  0.00  0.00    +0.042 A 
ATOM     26  C   UNL     1       3.628   6.761  -0.221  0.00  0.00    +0.003 A 
ATOM     27  C   UNL     1       4.470   6.633  -1.319  0.00  0.00    +0.000 A 
ATOM     28  C   UNL     1       4.060   5.758  -2.300  0.00  0.00    +0.000 A 
ATOM     29  C   UNL     1       1.256   7.264   0.387  0.00  0.00    +0.192 C 
ATOM     30  O   UNL     1       1.618   7.719   1.515  0.00  0.00    -0.287 OA
ATOM     31  C   UNL     1       2.759   5.274  -2.294  0.00  0.00    +0.003 A 
ATOM     32  C   UNL     1      -0.104   7.343  -0.100  0.00  0.00    +0.017 C 
ATOM     33  C   UNL     1      -1.039   8.226   0.655  0.00  0.00    +0.034 C 
ENDBRANCH  20  21
ENDBRANCH   3  20
TORSDOF 14
ENDMDL
MODEL 5
REMARK VINA RESULT:      -8.1      2.556     10.117
REMARK  Name = 
REMARK  14 active torsions:
REMARK  status: ('A' for Active; 'I' for Inactive)
REMARK    1  A    between atoms: C_2  and  C_18
REMARK    2  A    between atoms: C_3  and  C_4
REMARK    3  A    between atoms: C_4  and  C_5
REMARK    4  A    between atoms: C_18  and  C_19
REMARK    5  A    between atoms: C_19  and  C_20
REMARK    6  A    between atoms: C_20  and  C_21
REMARK    7  A    between atoms: C_21  and  C_23
REMARK    8  A    between atoms: C_23  and  C_24
REMARK    9  A    between atoms: C_24  and  C_25
REMARK   10  A    between atoms: C_25  and  C_26
REMARK   11  A    between atoms: C_26  and  C_28
REMARK   12  A    between atoms: C_28  and  C_29
REMARK   13  A    between atoms: C_29  and  C_30
REMARK   14  A    between atoms: C_30  and  C_31
REMARK                            x       y       z     vdW  Elec       q    Type
REMARK                         _______ _______ _______ _____ _____    ______ ____
ROOT
ATOM      1  C   UNL     1      -0.485   6.932 -10.985  0.00  0.00    +0.026 C 
ATOM      2  C   UNL     1       0.274   5.750 -10.460  0.00  0.00    -0.048 C 
ATOM      3  C   UNL     1       1.262   5.417 -11.265  0.00  0.00    -0.030 C 
ENDROOT
BRANCH   2   4
ATOM      4  C   UNL     1       0.211   5.585  -8.998  0.00  0.00    +0.022 C 
BRANCH   4   5
ATOM      5  C   UNL     1       1.067   6.537  -8.229  0.00  0.00    +0.004 C 
BRANCH   5   6
ATOM      6  C   UNL     1       1.289   5.996  -6.859  0.00  0.00    +0.000 C 
BRANCH   6   7
ATOM      7  C   UNL     1       2.659   5.113  -6.886  0.00  0.00    +0.000 C 
ATOM      8  C   UNL     1       1.930   3.787  -6.276  0.00  0.00    +0.000 C 
BRANCH   7   9
ATOM      9  C   UNL     1       3.144   5.627  -5.415  0.00  0.00    +0.000 C 
BRANCH   9  10
ATOM     10  C   UNL     1       1.915   5.714  -4.556  0.00  0.00    +0.000 C 
BRANCH  10  11
ATOM     11  C   UNL     1       2.214   5.644  -3.106  0.00  0.00    +0.000 C 
BRANCH  11  12
ATOM     12  C   UNL     1       0.890   6.103  -2.272  0.00  0.00    +0.000 C 
ATOM     13  C   UNL     1       1.002   4.807  -1.283  0.00  0.00    +0.000 C 
BRANCH  12  14
ATOM     14  C   UNL     1      -0.141   5.381  -3.306  0.00  0.00    +0.000 C 
BRANCH  14  15
ATOM     15  C   UNL     1      -1.522   5.512  -2.807  0.00  0.00    +0.000 C 
BRANCH  15  16
ATOM     16  C   UNL     1      -2.580   5.446  -3.902  0.00  0.00    +0.000 C 
BRANCH  16  17
ATOM     17  C   UNL     1      -1.961   6.307  -5.001  0.00  0.00    +0.000 C 
ATOM     18  C   UNL     1      -2.271   7.753  -4.860  0.00  0.00    +0.000 C 
ATOM     19  C   UNL     1      -2.361   5.690  -6.302  0.00  0.00    +0.000 C 
ENDBRANCH  16  17
ENDBRANCH  15  16
ENDBRANCH  14  15
ENDBRANCH  12  14
ENDBRANCH  11  12
ENDBRANCH  10  11
ENDBRANCH   9  10
ENDBRANCH   7   9
ENDBRANCH   6   7
ENDBRANCH   5   6
ENDBRANCH   4   5
ENDBRANCH   2   4
BRANCH   3  20
ATOM     20  C   UNL     1       2.242   6.322 -11.824  0.00  0.00    +0.055 C 
BRANCH  20  21
ATOM     21  C   UNL     1       3.620   5.859 -11.983  0.00  0.00    +0.020 C 
ATOM     22  C   UNL     1       4.616   6.261 -10.980  0.00  0.00    +0.192 C 
ATOM     23  O   UNL     1       4.275   6.832  -9.899  0.00  0.00    -0.287 OA
ATOM     24  C   UNL     1       6.009   6.495 -11.381  0.00  0.00    +0.042 A 
ATOM     25  C   UNL     1       6.431   6.263 -12.681  0.00  0.00    +0.042 A 
ATOM     26  C   UNL     1       7.789   6.162 -12.952  0.00  0.00    +0.003 A 
ATOM     27  C   UNL     1       8.652   5.747 -11.944  0.00  0.00    +0.000 A 
ATOM     28  C   UNL     1       8.275   6.057 -10.657  0.00  0.00    +0.000 A 
ATOM     29  C   UNL     1       5.399   6.029 -13.669  0.00  0.00    +0.192 C 
ATOM     30  O   UNL     1       5.733   6.160 -14.886  0.00  0.00    -0.287 OA
ATOM     31  C   UNL     1       6.984   6.498 -10.401  0.00  0.00    +0.003 A 
ATOM     32  C   UNL     1       4.046   5.742 -13.245  0.00  0.00    +0.017 C 
ATOM     33  C   UNL     1       3.081   5.330 -14.306  0.00  0.00    +0.034 C 
ENDBRANCH  20  21
ENDBRANCH   3  20
TORSDOF 14
ENDMDL
MODEL 6
REMARK VINA RESULT:      -8.1      1.145      2.585
REMARK  Name = 
REMARK  14 active torsions:
REMARK  status: ('A' for Active; 'I' for Inactive)
REMARK    1  A    between atoms: C_2  and  C_18
REMARK    2  A    between atoms: C_3  and  C_4
REMARK    3  A    between atoms: C_4  and  C_5
REMARK    4  A    between atoms: C_18  and  C_19
REMARK    5  A    between atoms: C_19  and  C_20
REMARK    6  A    between atoms: C_20  and  C_21
REMARK    7  A    between atoms: C_21  and  C_23
REMARK    8  A    between atoms: C_23  and  C_24
REMARK    9  A    between atoms: C_24  and  C_25
REMARK   10  A    between atoms: C_25  and  C_26
REMARK   11  A    between atoms: C_26  and  C_28
REMARK   12  A    between atoms: C_28  and  C_29
REMARK   13  A    between atoms: C_29  and  C_30
REMARK   14  A    between atoms: C_30  and  C_31
REMARK                            x       y       z     vdW  Elec       q    Type
REMARK                         _______ _______ _______ _____ _____    ______ ____
ROOT
ATOM      1  C   UNL     1       4.863   7.635  -4.141  0.00  0.00    +0.026 C 
ATOM      2  C   UNL     1       4.689   6.152  -4.008  0.00  0.00    -0.048 C 
ATOM      3  C   UNL     1       3.914   5.848  -2.986  0.00  0.00    -0.030 C 
ENDROOT
BRANCH   2   4
ATOM      4  C   UNL     1       4.853   5.402  -5.265  0.00  0.00    +0.022 C 
BRANCH   4   5
ATOM      5  C   UNL     1       4.422   6.143  -6.489  0.00  0.00    +0.004 C 
BRANCH   5   6
ATOM      6  C   UNL     1       4.078   5.162  -7.556  0.00  0.00    +0.000 C 
BRANCH   6   7
ATOM      7  C   UNL     1       2.540   4.679  -7.313  0.00  0.00    +0.000 C 
ATOM      8  C   UNL     1       2.529   3.727  -8.639  0.00  0.00    +0.000 C 
BRANCH   7   9
ATOM      9  C   UNL     1       1.903   5.950  -8.117  0.00  0.00    +0.000 C 
BRANCH   9  10
ATOM     10  C   UNL     1       1.681   5.502  -9.533  0.00  0.00    +0.000 C 
BRANCH  10  11
ATOM     11  C   UNL     1       1.085   6.557 -10.387  0.00  0.00    +0.000 C 
BRANCH  11  12
ATOM     12  C   UNL     1       1.726   6.448 -11.883  0.00  0.00    +0.000 C 
ATOM     13  C   UNL     1       0.920   5.060 -12.183  0.00  0.00    +0.000 C 
BRANCH  12  14
ATOM     14  C   UNL     1       3.076   5.700 -11.364  0.00  0.00    +0.000 C 
BRANCH  14  15
ATOM     15  C   UNL     1       4.262   6.492 -11.741  0.00  0.00    +0.000 C 
BRANCH  15  16
ATOM     16  C   UNL     1       4.941   7.179 -10.563  0.00  0.00    +0.000 C 
BRANCH  16  17
ATOM     17  C   UNL     1       6.352   7.415 -11.096  0.00  0.00    +0.000 C 
ATOM     18  C   UNL     1       6.467   7.214 -12.564  0.00  0.00    +0.000 C 
ATOM     19  C   UNL     1       7.270   6.582 -10.261  0.00  0.00    +0.000 C 
ENDBRANCH  16  17
ENDBRANCH  15  16
ENDBRANCH  14  15
ENDBRANCH  12  14
ENDBRANCH  11  12
ENDBRANCH  10  11
ENDBRANCH   9  10
ENDBRANCH   7   9
ENDBRANCH   6   7
ENDBRANCH   5   6
ENDBRANCH   4   5
ENDBRANCH   2   4
BRANCH   3  20
ATOM     20  C   UNL     1       2.630   6.444  -2.690  0.00  0.00    +0.055 C 
BRANCH  20  21
ATOM     21  C   UNL     1       1.421   5.806  -3.211  0.00  0.00    +0.020 C 
ATOM     22  C   UNL     1       0.835   6.322  -4.456  0.00  0.00    +0.192 C 
ATOM     23  O   UNL     1       1.448   7.167  -5.177  0.00  0.00    -0.287 OA
ATOM     24  C   UNL     1      -0.621   6.298  -4.647  0.00  0.00    +0.042 A 
ATOM     25  C   UNL     1      -1.460   5.719  -3.709  0.00  0.00    +0.042 A 
ATOM     26  C   UNL     1      -2.767   5.406  -4.058  0.00  0.00    +0.003 A 
ATOM     27  C   UNL     1      -3.068   5.149  -5.390  0.00  0.00    +0.000 A 
ATOM     28  C   UNL     1      -2.291   5.796  -6.324  0.00  0.00    +0.000 A 
ATOM     29  C   UNL     1      -0.869   5.373  -2.432  0.00  0.00    +0.192 C 
ATOM     30  O   UNL     1      -1.669   5.173  -1.468  0.00  0.00    -0.287 OA
ATOM     31  C   UNL     1      -1.118   6.425  -5.931  0.00  0.00    +0.003 A 
ATOM     32  C   UNL     1       0.570   5.347  -2.287  0.00  0.00    +0.017 C 
ATOM     33  C   UNL     1       1.107   4.805  -1.005  0.00  0.00    +0.034 C 
ENDBRANCH  20  21
ENDBRANCH   3  20
TORSDOF 14
ENDMDL
MODEL 7
REMARK VINA RESULT:      -8.1      2.657      9.781
REMARK  Name = 
REMARK  14 active torsions:
REMARK  status: ('A' for Active; 'I' for Inactive)
REMARK    1  A    between atoms: C_2  and  C_18
REMARK    2  A    between atoms: C_3  and  C_4
REMARK    3  A    between atoms: C_4  and  C_5
REMARK    4  A    between atoms: C_18  and  C_19
REMARK    5  A    between atoms: C_19  and  C_20
REMARK    6  A    between atoms: C_20  and  C_21
REMARK    7  A    between atoms: C_21  and  C_23
REMARK    8  A    between atoms: C_23  and  C_24
REMARK    9  A    between atoms: C_24  and  C_25
REMARK   10  A    between atoms: C_25  and  C_26
REMARK   11  A    between atoms: C_26  and  C_28
REMARK   12  A    between atoms: C_28  and  C_29
REMARK   13  A    between atoms: C_29  and  C_30
REMARK   14  A    between atoms: C_30  and  C_31
REMARK                            x       y       z     vdW  Elec       q    Type
REMARK                         _______ _______ _______ _____ _____    ______ ____
ROOT
ATOM      1  C   UNL     1       4.616   6.653  -4.962  0.00  0.00    +0.026 C 
ATOM      2  C   UNL     1       3.583   6.879  -6.025  0.00  0.00    -0.048 C 
ATOM      3  C   UNL     1       4.039   6.545  -7.216  0.00  0.00    -0.030 C 
ENDROOT
BRANCH   2   4
ATOM      4  C   UNL     1       2.191   6.821  -5.547  0.00  0.00    +0.022 C 
BRANCH   4   5
ATOM      5  C   UNL     1       1.460   5.572  -5.917  0.00  0.00    +0.004 C 
BRANCH   5   6
ATOM      6  C   UNL     1       0.136   5.935  -6.497  0.00  0.00    +0.000 C 
BRANCH   6   7
ATOM      7  C   UNL     1      -0.993   5.705  -5.344  0.00  0.00    +0.000 C 
ATOM      8  C   UNL     1      -2.184   5.445  -6.428  0.00  0.00    +0.000 C 
BRANCH   7   9
ATOM      9  C   UNL     1      -1.339   7.296  -5.218  0.00  0.00    +0.000 C 
BRANCH   9  10
ATOM     10  C   UNL     1      -2.477   7.418  -4.245  0.00  0.00    +0.000 C 
BRANCH  10  11
ATOM     11  C   UNL     1      -2.024   7.625  -2.849  0.00  0.00    +0.000 C 
BRANCH  11  12
ATOM     12  C   UNL     1      -2.939   6.708  -1.857  0.00  0.00    +0.000 C 
ATOM     13  C   UNL     1      -2.188   7.300  -0.533  0.00  0.00    +0.000 C 
BRANCH  12  14
ATOM     14  C   UNL     1      -1.963   5.410  -1.985  0.00  0.00    +0.000 C 
BRANCH  14  15
ATOM     15  C   UNL     1      -0.626   5.737  -1.456  0.00  0.00    +0.000 C 
BRANCH  15  16
ATOM     16  C   UNL     1       0.509   5.002  -2.158  0.00  0.00    +0.000 C 
BRANCH  16  17
ATOM     17  C   UNL     1       1.697   5.928  -1.908  0.00  0.00    +0.000 C 
ATOM     18  C   UNL     1       3.006   5.224  -1.926  0.00  0.00    +0.000 C 
ATOM     19  C   UNL     1       1.394   6.684  -0.655  0.00  0.00    +0.000 C 
ENDBRANCH  16  17
ENDBRANCH  15  16
ENDBRANCH  14  15
ENDBRANCH  12  14
ENDBRANCH  11  12
ENDBRANCH  10  11
ENDBRANCH   9  10
ENDBRANCH   7   9
ENDBRANCH   6   7
ENDBRANCH   5   6
ENDBRANCH   4   5
ENDBRANCH   2   4
BRANCH   3  20
ATOM     20  C   UNL     1       4.714   5.311  -7.549  0.00  0.00    +0.055 C 
BRANCH  20  21
ATOM     21  C   UNL     1       5.048   5.045  -8.948  0.00  0.00    +0.020 C 
ATOM     22  C   UNL     1       6.347   5.502  -9.460  0.00  0.00    +0.192 C 
ATOM     23  O   UNL     1       7.247   5.945  -8.683  0.00  0.00    -0.287 OA
ATOM     24  C   UNL     1       6.472   5.945 -10.854  0.00  0.00    +0.042 A 
ATOM     25  C   UNL     1       5.404   5.863 -11.733  0.00  0.00    +0.042 A 
ATOM     26  C   UNL     1       5.632   5.961 -13.100  0.00  0.00    +0.003 A 
ATOM     27  C   UNL     1       6.872   5.593 -13.607  0.00  0.00    +0.000 A 
ATOM     28  C   UNL     1       7.947   5.759 -12.763  0.00  0.00    +0.000 A 
ATOM     29  C   UNL     1       4.109   5.566 -11.158  0.00  0.00    +0.192 C 
ATOM     30  O   UNL     1       3.093   5.826 -11.873  0.00  0.00    -0.287 OA
ATOM     31  C   UNL     1       7.735   6.007 -11.414  0.00  0.00    +0.003 A 
ATOM     32  C   UNL     1       4.017   5.075  -9.801  0.00  0.00    +0.017 C 
ATOM     33  C   UNL     1       2.675   4.616  -9.340  0.00  0.00    +0.034 C 
ENDBRANCH  20  21
ENDBRANCH   3  20
TORSDOF 14
ENDMDL
MODEL 8
REMARK VINA RESULT:      -8.0      2.346      9.037
REMARK  Name = 
REMARK  14 active torsions:
REMARK  status: ('A' for Active; 'I' for Inactive)
REMARK    1  A    between atoms: C_2  and  C_18
REMARK    2  A    between atoms: C_3  and  C_4
REMARK    3  A    between atoms: C_4  and  C_5
REMARK    4  A    between atoms: C_18  and  C_19
REMARK    5  A    between atoms: C_19  and  C_20
REMARK    6  A    between atoms: C_20  and  C_21
REMARK    7  A    between atoms: C_21  and  C_23
REMARK    8  A    between atoms: C_23  and  C_24
REMARK    9  A    between atoms: C_24  and  C_25
REMARK   10  A    between atoms: C_25  and  C_26
REMARK   11  A    between atoms: C_26  and  C_28
REMARK   12  A    between atoms: C_28  and  C_29
REMARK   13  A    between atoms: C_29  and  C_30
REMARK   14  A    between atoms: C_30  and  C_31
REMARK                            x       y       z     vdW  Elec       q    Type
REMARK                         _______ _______ _______ _____ _____    ______ ____
ROOT
ATOM      1  C   UNL     1       1.134   4.257  -5.606  0.00  0.00    +0.026 C 
ATOM      2  C   UNL     1       1.189   5.473  -6.481  0.00  0.00    -0.048 C 
ATOM      3  C   UNL     1       2.267   5.471  -7.239  0.00  0.00    -0.030 C 
ENDROOT
BRANCH   2   4
ATOM      4  C   UNL     1      -0.124   6.065  -6.787  0.00  0.00    +0.022 C 
BRANCH   4   5
ATOM      5  C   UNL     1      -0.864   6.582  -5.596  0.00  0.00    +0.004 C 
BRANCH   5   6
ATOM      6  C   UNL     1      -2.254   6.046  -5.616  0.00  0.00    +0.000 C 
BRANCH   6   7
ATOM      7  C   UNL     1      -2.923   6.340  -4.159  0.00  0.00    +0.000 C 
ATOM      8  C   UNL     1      -2.032   7.684  -3.914  0.00  0.00    +0.000 C 
BRANCH   7   9
ATOM      9  C   UNL     1      -1.862   5.388  -3.363  0.00  0.00    +0.000 C 
BRANCH   9  10
ATOM     10  C   UNL     1      -1.915   5.792  -1.917  0.00  0.00    +0.000 C 
BRANCH  10  11
ATOM     11  C   UNL     1      -0.583   5.790  -1.266  0.00  0.00    +0.000 C 
BRANCH  11  12
ATOM     12  C   UNL     1       0.486   5.056  -2.256  0.00  0.00    +0.000 C 
ATOM     13  C   UNL     1       1.508   4.762  -1.016  0.00  0.00    +0.000 C 
BRANCH  12  14
ATOM     14  C   UNL     1       1.207   6.453  -2.683  0.00  0.00    +0.000 C 
BRANCH  14  15
ATOM     15  C   UNL     1       2.660   6.242  -2.824  0.00  0.00    +0.000 C 
BRANCH  15  16
ATOM     16  C   UNL     1       3.380   7.378  -3.541  0.00  0.00    +0.000 C 
BRANCH  16  17
ATOM     17  C   UNL     1       4.409   6.628  -4.383  0.00  0.00    +0.000 C 
ATOM     18  C   UNL     1       4.404   5.161  -4.148  0.00  0.00    +0.000 C 
ATOM     19  C   UNL     1       5.721   7.308  -4.160  0.00  0.00    +0.000 C 
ENDBRANCH  16  17
ENDBRANCH  15  16
ENDBRANCH  14  15
ENDBRANCH  12  14
ENDBRANCH  11  12
ENDBRANCH  10  11
ENDBRANCH   9  10
ENDBRANCH   7   9
ENDBRANCH   6   7
ENDBRANCH   5   6
ENDBRANCH   4   5
ENDBRANCH   2   4
BRANCH   3  20
ATOM     20  C   UNL     1       2.737   4.363  -8.040  0.00  0.00    +0.055 C 
BRANCH  20  21
ATOM     21  C   UNL     1       3.616   4.637  -9.177  0.00  0.00    +0.020 C 
ATOM     22  C   UNL     1       5.003   5.043  -8.910  0.00  0.00    +0.192 C 
ATOM     23  O   UNL     1       5.500   4.978  -7.744  0.00  0.00    -0.287 OA
ATOM     24  C   UNL     1       5.678   5.987  -9.809  0.00  0.00    +0.042 A 
ATOM     25  C   UNL     1       5.062   6.446 -10.963  0.00  0.00    +0.042 A 
ATOM     26  C   UNL     1       5.825   7.052 -11.952  0.00  0.00    +0.003 A 
ATOM     27  C   UNL     1       7.171   6.723 -12.066  0.00  0.00    +0.000 A 
ATOM     28  C   UNL     1       7.805   6.352 -10.902  0.00  0.00    +0.000 A 
ATOM     29  C   UNL     1       3.650   6.159 -11.106  0.00  0.00    +0.192 C 
ATOM     30  O   UNL     1       3.010   6.849 -11.956  0.00  0.00    -0.287 OA
ATOM     31  C   UNL     1       7.058   6.062  -9.769  0.00  0.00    +0.003 A 
ATOM     32  C   UNL     1       3.022   5.180 -10.245  0.00  0.00    +0.017 C 
ATOM     33  C   UNL     1       1.617   4.801 -10.570  0.00  0.00    +0.034 C 
ENDBRANCH  20  21
ENDBRANCH   3  20
TORSDOF 14
ENDMDL
MODEL 9
REMARK VINA RESULT:      -8.0      1.582      3.777
REMARK  Name = 
REMARK  14 active torsions:
REMARK  status: ('A' for Active; 'I' for Inactive)
REMARK    1  A    between atoms: C_2  and  C_18
REMARK    2  A    between atoms: C_3  and  C_4
REMARK    3  A    between atoms: C_4  and  C_5
REMARK    4  A    between atoms: C_18  and  C_19
REMARK    5  A    between atoms: C_19  and  C_20
REMARK    6  A    between atoms: C_20  and  C_21
REMARK    7  A    between atoms: C_21  and  C_23
REMARK    8  A    between atoms: C_23  and  C_24
REMARK    9  A    between atoms: C_24  and  C_25
REMARK   10  A    between atoms: C_25  and  C_26
REMARK   11  A    between atoms: C_26  and  C_28
REMARK   12  A    between atoms: C_28  and  C_29
REMARK   13  A    between atoms: C_29  and  C_30
REMARK   14  A    between atoms: C_30  and  C_31
REMARK                            x       y       z     vdW  Elec       q    Type
REMARK                         _______ _______ _______ _____ _____    ______ ____
ROOT
ATOM      1  C   UNL     1      -0.462   5.791  -9.789  0.00  0.00    +0.026 C 
ATOM      2  C   UNL     1       0.901   5.805  -9.164  0.00  0.00    -0.048 C 
ATOM      3  C   UNL     1       0.827   5.948  -7.856  0.00  0.00    -0.030 C 
ENDROOT
BRANCH   2   4
ATOM      4  C   UNL     1       1.933   5.091  -9.933  0.00  0.00    +0.022 C 
BRANCH   4   5
ATOM      5  C   UNL     1       3.337   5.467  -9.586  0.00  0.00    +0.004 C 
BRANCH   5   6
ATOM      6  C   UNL     1       4.035   4.277  -9.022  0.00  0.00    +0.000 C 
BRANCH   6   7
ATOM      7  C   UNL     1       5.372   4.802  -8.251  0.00  0.00    +0.000 C 
ATOM      8  C   UNL     1       4.534   5.817  -7.286  0.00  0.00    +0.000 C 
BRANCH   7   9
ATOM      9  C   UNL     1       5.677   5.967  -9.354  0.00  0.00    +0.000 C 
BRANCH   9  10
ATOM     10  C   UNL     1       7.169   6.026  -9.523  0.00  0.00    +0.000 C 
BRANCH  10  11
ATOM     11  C   UNL     1       7.582   6.628 -10.812  0.00  0.00    +0.000 C 
BRANCH  11  12
ATOM     12  C   UNL     1       7.718   5.445 -11.927  0.00  0.00    +0.000 C 
ATOM     13  C   UNL     1       9.304   5.764 -12.147  0.00  0.00    +0.000 C 
BRANCH  12  14
ATOM     14  C   UNL     1       7.228   6.400 -13.153  0.00  0.00    +0.000 C 
BRANCH  14  15
ATOM     15  C   UNL     1       5.764   6.570 -13.098  0.00  0.00    +0.000 C 
BRANCH  15  16
ATOM     16  C   UNL     1       4.999   5.261 -12.942  0.00  0.00    +0.000 C 
BRANCH  16  17
ATOM     17  C   UNL     1       3.936   5.376 -14.032  0.00  0.00    +0.000 C 
ATOM     18  C   UNL     1       4.206   6.468 -15.004  0.00  0.00    +0.000 C 
ATOM     19  C   UNL     1       2.616   5.450 -13.336  0.00  0.00    +0.000 C 
ENDBRANCH  16  17
ENDBRANCH  15  16
ENDBRANCH  14  15
ENDBRANCH  12  14
ENDBRANCH  11  12
ENDBRANCH  10  11
ENDBRANCH   9  10
ENDBRANCH   7   9
ENDBRANCH   6   7
ENDBRANCH   5   6
ENDBRANCH   4   5
ENDBRANCH   2   4
BRANCH   3  20
ATOM     20  C   UNL     1      -0.028   5.193  -6.968  0.00  0.00    +0.055 C 
BRANCH  20  21
ATOM     21  C   UNL     1      -0.310   5.729  -5.636  0.00  0.00    +0.020 C 
ATOM     22  C   UNL     1       0.653   5.467  -4.556  0.00  0.00    +0.192 C 
ATOM     23  O   UNL     1       1.792   4.960  -4.792  0.00  0.00    -0.287 OA
ATOM     24  C   UNL     1       0.179   5.291  -3.178  0.00  0.00    +0.042 A 
ATOM     25  C   UNL     1      -1.158   5.450  -2.851  0.00  0.00    +0.042 A 
ATOM     26  C   UNL     1      -1.524   5.615  -1.522  0.00  0.00    +0.003 A 
ATOM     27  C   UNL     1      -0.607   6.158  -0.630  0.00  0.00    +0.000 A 
ATOM     28  C   UNL     1       0.721   5.924  -0.906  0.00  0.00    +0.000 A 
ATOM     29  C   UNL     1      -2.091   5.542  -3.954  0.00  0.00    +0.192 C 
ATOM     30  O   UNL     1      -3.315   5.341  -3.686  0.00  0.00    -0.287 OA
ATOM     31  C   UNL     1       1.091   5.424  -2.147  0.00  0.00    +0.003 A 
ATOM     32  C   UNL     1      -1.602   5.775  -5.296  0.00  0.00    +0.017 C 
ATOM     33  C   UNL     1      -2.624   6.044  -6.348  0.00  0.00    +0.034 C 
ENDBRANCH  20  21
ENDBRANCH   3  20
TORSDOF 14
ENDMDL
