MODEL 1
REMARK VINA RESULT:      -8.9      0.000      0.000
REMARK  Name = 
REMARK  2 active torsions:
REMARK  status: ('A' for Active; 'I' for Inactive)
REMARK    1  A    between atoms: C_8  and  C_10
REMARK    2  A    between atoms: C_10  and  C_12
REMARK                            x       y       z     vdW  Elec       q    Type
REMARK                         _______ _______ _______ _____ _____    ______ ____
ROOT
ATOM      1  C   UNL     1       4.574   7.076 -10.251  0.00  0.00    +0.004 C 
ATOM      2  C   UNL     1       4.148   5.659  -9.487  0.00  0.00    +0.019 C 
ATOM      3  C   UNL     1       2.559   5.989  -9.685  0.00  0.00    -0.038 C 
ATOM      4  C   UNL     1       1.804   5.112  -8.749  0.00  0.00    +0.036 C 
ATOM      5  C   UNL     1       0.373   5.173  -9.088  0.00  0.00    -0.020 C 
ATOM      6  C   UNL     1       0.089   4.766 -10.327  0.00  0.00    +0.038 C 
ATOM      7  C   UNL     1       0.969   5.303 -11.374  0.00  0.00    +0.195 C 
ATOM      8  O   UNL     1       0.590   5.232 -12.562  0.00  0.00    -0.287 OA
ATOM      9  C   UNL     1       2.375   3.781  -8.750  0.00  0.00    +0.009 C 
ATOM     10  C   UNL     1       1.999   5.903  -7.357  0.00  0.00    +0.038 C 
ATOM     11  C   UNL     1       3.537   5.278  -7.053  0.00  0.00    +0.003 C 
ATOM     12  C   UNL     1       3.686   6.360  -5.735  0.00  0.00    +0.003 C 
ATOM     13  C   UNL     1       2.853   5.369  -4.734  0.00  0.00    +0.035 C 
ATOM     14  C   UNL     1       1.471   5.448  -4.971  0.00  0.00    +0.036 C 
ATOM     15  C   UNL     1       3.604   4.142  -4.467  0.00  0.00    +0.003 C 
ATOM     16  C   UNL     1       3.287   6.283  -3.597  0.00  0.00    +0.180 C 
ATOM     17  O   UNL     1       2.988   7.611  -3.858  0.00  0.00    -0.218 OA
ATOM     18  C   UNL     1       4.797   6.074  -3.704  0.00  0.00    +0.038 C 
ATOM     19  C   UNL     1       5.095   5.742  -5.165  0.00  0.00    +0.003 C 
ATOM     20  C   UNL     1       1.080   4.749  -6.441  0.00  0.00    +0.153 C 
ATOM     21  O   UNL     1       2.180   3.679  -6.353  0.00  0.00    -0.223 OA
ATOM     22  C   UNL     1       2.204   5.995 -10.970  0.00  0.00    +0.034 C 
ATOM     23  C   UNL     1       4.198   6.402  -8.009  0.00  0.00    +0.004 C 
ENDROOT
BRANCH  16  24
ATOM     24  C   UNL     1       2.771   5.872  -2.285  0.00  0.00    +0.211 C 
ATOM     25  O   UNL     1       1.726   6.387  -1.896  0.00  0.00    -0.291 OA
BRANCH  24  26
ATOM     26  C   UNL     1       3.500   5.034  -1.301  0.00  0.00    +0.248 C 
ATOM     27  O   UNL     1       3.849   5.786  -0.171  0.00  0.00    -0.212 OA
ENDBRANCH  24  26
ENDBRANCH  16  24
TORSDOF 2
ENDMDL
MODEL 2
REMARK VINA RESULT:      -8.5      1.206      1.282
REMARK  Name = 
REMARK  2 active torsions:
REMARK  status: ('A' for Active; 'I' for Inactive)
REMARK    1  A    between atoms: C_8  and  C_10
REMARK    2  A    between atoms: C_10  and  C_12
REMARK                            x       y       z     vdW  Elec       q    Type
REMARK                         _______ _______ _______ _____ _____    ______ ____
ROOT
ATOM      1  C   UNL     1       5.726   5.628 -10.304  0.00  0.00    +0.004 C 
ATOM      2  C   UNL     1       4.462   4.883  -9.516  0.00  0.00    +0.019 C 
ATOM      3  C   UNL     1       3.443   6.090  -9.937  0.00  0.00    -0.038 C 
ATOM      4  C   UNL     1       2.249   5.990  -9.053  0.00  0.00    +0.036 C 
ATOM      5  C   UNL     1       1.193   6.873  -9.578  0.00  0.00    -0.020 C 
ATOM      6  C   UNL     1       0.795   6.570 -10.815  0.00  0.00    +0.038 C 
ATOM      7  C   UNL     1       1.882   6.314 -11.772  0.00  0.00    +0.195 C 
ATOM      8  O   UNL     1       1.617   6.338 -12.992  0.00  0.00    -0.287 OA
ATOM      9  C   UNL     1       1.864   4.603  -8.898  0.00  0.00    +0.009 C 
ATOM     10  C   UNL     1       2.807   6.667  -7.700  0.00  0.00    +0.038 C 
ATOM     11  C   UNL     1       3.596   5.275  -7.162  0.00  0.00    +0.003 C 
ATOM     12  C   UNL     1       4.304   6.197  -5.905  0.00  0.00    +0.003 C 
ATOM     13  C   UNL     1       2.975   6.065  -4.960  0.00  0.00    +0.035 C 
ATOM     14  C   UNL     1       1.962   6.943  -5.379  0.00  0.00    +0.036 C 
ATOM     15  C   UNL     1       2.778   4.682  -4.523  0.00  0.00    +0.003 C 
ATOM     16  C   UNL     1       3.812   6.657  -3.836  0.00  0.00    +0.180 C 
ATOM     17  O   UNL     1       4.423   7.841  -4.215  0.00  0.00    -0.218 OA
ATOM     18  C   UNL     1       4.865   5.554  -3.734  0.00  0.00    +0.038 C 
ATOM     19  C   UNL     1       4.981   4.924  -5.120  0.00  0.00    +0.003 C 
ATOM     20  C   UNL     1       1.314   6.449  -6.841  0.00  0.00    +0.153 C 
ATOM     21  O   UNL     1       1.498   4.952  -6.545  0.00  0.00    -0.223 OA
ATOM     22  C   UNL     1       3.250   6.147 -11.255  0.00  0.00    +0.034 C 
ATOM     23  C   UNL     1       4.873   5.622  -8.092  0.00  0.00    +0.004 C 
ENDROOT
BRANCH  16  24
ATOM     24  C   UNL     1       3.071   6.822  -2.579  0.00  0.00    +0.211 C 
ATOM     25  O   UNL     1       3.102   7.925  -2.039  0.00  0.00    -0.291 OA
BRANCH  24  26
ATOM     26  C   UNL     1       2.449   5.723  -1.799  0.00  0.00    +0.248 C 
ATOM     27  O   UNL     1       3.062   5.595  -0.546  0.00  0.00    -0.212 OA
ENDBRANCH  24  26
ENDBRANCH  16  24
TORSDOF 2
ENDMDL
MODEL 3
REMARK VINA RESULT:      -8.4      2.160      7.472
REMARK  Name = 
REMARK  2 active torsions:
REMARK  status: ('A' for Active; 'I' for Inactive)
REMARK    1  A    between atoms: C_8  and  C_10
REMARK    2  A    between atoms: C_10  and  C_12
REMARK                            x       y       z     vdW  Elec       q    Type
REMARK                         _______ _______ _______ _____ _____    ______ ____
ROOT
ATOM      1  C   UNL     1      -0.139   6.530  -0.838  0.00  0.00    +0.004 C 
ATOM      2  C   UNL     1       1.072   5.565  -1.451  0.00  0.00    +0.019 C 
ATOM      3  C   UNL     1       2.180   6.743  -1.209  0.00  0.00    -0.038 C 
ATOM      4  C   UNL     1       3.375   6.401  -2.028  0.00  0.00    +0.036 C 
ATOM      5  C   UNL     1       4.492   7.274  -1.629  0.00  0.00    -0.020 C 
ATOM      6  C   UNL     1       4.844   7.157  -0.347  0.00  0.00    +0.038 C 
ATOM      7  C   UNL     1       3.725   7.154   0.606  0.00  0.00    +0.195 C 
ATOM      8  O   UNL     1       3.971   7.365   1.812  0.00  0.00    -0.287 OA
ATOM      9  C   UNL     1       3.648   4.981  -1.935  0.00  0.00    +0.009 C 
ATOM     10  C   UNL     1       2.896   6.877  -3.492  0.00  0.00    +0.038 C 
ATOM     11  C   UNL     1       2.004   5.480  -3.810  0.00  0.00    +0.003 C 
ATOM     12  C   UNL     1       1.394   6.226  -5.225  0.00  0.00    +0.003 C 
ATOM     13  C   UNL     1       2.723   5.831  -6.094  0.00  0.00    +0.035 C 
ATOM     14  C   UNL     1       3.798   6.686  -5.800  0.00  0.00    +0.036 C 
ATOM     15  C   UNL     1       2.813   4.383  -6.285  0.00  0.00    +0.003 C 
ATOM     16  C   UNL     1       1.955   6.286  -7.327  0.00  0.00    +0.180 C 
ATOM     17  O   UNL     1       1.437   7.562  -7.172  0.00  0.00    -0.218 OA
ATOM     18  C   UNL     1       0.817   5.268  -7.272  0.00  0.00    +0.038 C 
ATOM     19  C   UNL     1       0.628   4.895  -5.803  0.00  0.00    +0.003 C 
ATOM     20  C   UNL     1       4.380   6.400  -4.258  0.00  0.00    +0.153 C 
ATOM     21  O   UNL     1       4.079   4.893  -4.301  0.00  0.00    -0.223 OA
ATOM     22  C   UNL     1       2.356   7.009   0.085  0.00  0.00    +0.034 C 
ATOM     23  C   UNL     1       0.746   6.080  -2.991  0.00  0.00    +0.004 C 
ENDROOT
BRANCH  16  24
ATOM     24  C   UNL     1       2.727   6.175  -8.572  0.00  0.00    +0.211 C 
ATOM     25  O   UNL     1       3.284   7.188  -8.989  0.00  0.00    -0.291 OA
BRANCH  24  26
ATOM     26  C   UNL     1       2.736   4.998  -9.474  0.00  0.00    +0.248 C 
ATOM     27  O   UNL     1       4.046   4.548  -9.690  0.00  0.00    -0.212 OA
ENDBRANCH  24  26
ENDBRANCH  16  24
TORSDOF 2
ENDMDL
MODEL 4
REMARK VINA RESULT:      -8.3      1.595      6.826
REMARK  Name = 
REMARK  2 active torsions:
REMARK  status: ('A' for Active; 'I' for Inactive)
REMARK    1  A    between atoms: C_8  and  C_10
REMARK    2  A    between atoms: C_10  and  C_12
REMARK                            x       y       z     vdW  Elec       q    Type
REMARK                         _______ _______ _______ _____ _____    ______ ____
ROOT
ATOM      1  C   UNL     1       5.236   4.747  -3.751  0.00  0.00    +0.004 C 
ATOM      2  C   UNL     1       4.213   5.970  -4.230  0.00  0.00    +0.019 C 
ATOM      3  C   UNL     1       2.922   5.181  -3.609  0.00  0.00    -0.038 C 
ATOM      4  C   UNL     1       1.702   5.790  -4.205  0.00  0.00    +0.036 C 
ATOM      5  C   UNL     1       0.520   5.305  -3.472  0.00  0.00    -0.020 C 
ATOM      6  C   UNL     1       0.522   5.613  -2.173  0.00  0.00    +0.038 C 
ATOM      7  C   UNL     1       1.793   5.365  -1.478  0.00  0.00    +0.195 C 
ATOM      8  O   UNL     1       1.788   5.323  -0.230  0.00  0.00    -0.287 OA
ATOM      9  C   UNL     1       1.842   7.232  -4.252  0.00  0.00    +0.009 C 
ATOM     10  C   UNL     1       1.683   5.090  -5.658  0.00  0.00    +0.038 C 
ATOM     11  C   UNL     1       2.810   6.145  -6.338  0.00  0.00    +0.003 C 
ATOM     12  C   UNL     1       2.854   5.154  -7.733  0.00  0.00    +0.003 C 
ATOM     13  C   UNL     1       1.511   5.848  -8.358  0.00  0.00    +0.035 C 
ATOM     14  C   UNL     1       0.349   5.361  -7.737  0.00  0.00    +0.036 C 
ATOM     15  C   UNL     1       1.763   7.243  -8.722  0.00  0.00    +0.003 C 
ATOM     16  C   UNL     1       1.822   5.103  -9.648  0.00  0.00    +0.180 C 
ATOM     17  O   UNL     1       2.008   3.747  -9.429  0.00  0.00    -0.218 OA
ATOM     18  C   UNL     1       3.168   5.754  -9.965  0.00  0.00    +0.038 C 
ATOM     19  C   UNL     1       3.787   6.163  -8.631  0.00  0.00    +0.003 C 
ATOM     20  C   UNL     1       0.241   5.915  -6.162  0.00  0.00    +0.153 C 
ATOM     21  O   UNL     1       0.908   7.265  -6.471  0.00  0.00    -0.223 OA
ATOM     22  C   UNL     1       2.990   5.073  -2.282  0.00  0.00    +0.034 C 
ATOM     23  C   UNL     1       4.022   5.272  -5.719  0.00  0.00    +0.004 C 
ENDROOT
BRANCH  16  24
ATOM     24  C   UNL     1       0.838   5.339 -10.712  0.00  0.00    +0.211 C 
ATOM     25  O   UNL     1      -0.066   4.517 -10.845  0.00  0.00    -0.291 OA
BRANCH  24  26
ATOM     26  C   UNL     1       0.946   6.376 -11.767  0.00  0.00    +0.248 C 
ATOM     27  O   UNL     1      -0.112   7.290 -11.674  0.00  0.00    -0.212 OA
ENDBRANCH  24  26
ENDBRANCH  16  24
TORSDOF 2
ENDMDL
MODEL 5
REMARK VINA RESULT:      -8.2      1.472      7.208
REMARK  Name = 
REMARK  2 active torsions:
REMARK  status: ('A' for Active; 'I' for Inactive)
REMARK    1  A    between atoms: C_8  and  C_10
REMARK    2  A    between atoms: C_10  and  C_12
REMARK                            x       y       z     vdW  Elec       q    Type
REMARK                         _______ _______ _______ _____ _____    ______ ____
ROOT
ATOM      1  C   UNL     1      -0.032   6.519  -3.636  0.00  0.00    +0.004 C 
ATOM      2  C   UNL     1       1.068   5.519  -4.386  0.00  0.00    +0.019 C 
ATOM      3  C   UNL     1       2.213   6.686  -4.338  0.00  0.00    -0.038 C 
ATOM      4  C   UNL     1       3.276   6.304  -5.307  0.00  0.00    +0.036 C 
ATOM      5  C   UNL     1       4.448   7.171  -5.095  0.00  0.00    -0.020 C 
ATOM      6  C   UNL     1       4.977   7.082  -3.873  0.00  0.00    +0.038 C 
ATOM      7  C   UNL     1       4.004   7.122  -2.771  0.00  0.00    +0.195 C 
ATOM      8  O   UNL     1       4.422   7.362  -1.619  0.00  0.00    -0.287 OA
ATOM      9  C   UNL     1       3.543   4.883  -5.213  0.00  0.00    +0.009 C 
ATOM     10  C   UNL     1       2.600   6.748  -6.701  0.00  0.00    +0.038 C 
ATOM     11  C   UNL     1       1.656   5.357  -6.850  0.00  0.00    +0.003 C 
ATOM     12  C   UNL     1       0.860   6.074  -8.185  0.00  0.00    +0.003 C 
ATOM     13  C   UNL     1       2.048   5.635  -9.222  0.00  0.00    +0.035 C 
ATOM     14  C   UNL     1       3.163   6.481  -9.108  0.00  0.00    +0.036 C 
ATOM     15  C   UNL     1       2.093   4.182  -9.382  0.00  0.00    +0.003 C 
ATOM     16  C   UNL     1       1.118   6.069 -10.346  0.00  0.00    +0.180 C 
ATOM     17  O   UNL     1       0.642   7.356 -10.156  0.00  0.00    -0.218 OA
ATOM     18  C   UNL     1      -0.012   5.070 -10.102  0.00  0.00    +0.038 C 
ATOM     19  C   UNL     1       0.004   4.739  -8.611  0.00  0.00    +0.003 C 
ATOM     20  C   UNL     1       3.954   6.228  -7.655  0.00  0.00    +0.153 C 
ATOM     21  O   UNL     1       3.633   4.725  -7.613  0.00  0.00    -0.223 OA
ATOM     22  C   UNL     1       2.574   6.984  -3.090  0.00  0.00    +0.034 C 
ATOM     23  C   UNL     1       0.534   5.997  -5.879  0.00  0.00    +0.004 C 
ENDROOT
BRANCH  16  24
ATOM     24  C   UNL     1       1.704   5.913 -11.684  0.00  0.00    +0.211 C 
ATOM     25  O   UNL     1       2.680   6.606 -11.963  0.00  0.00    -0.291 OA
BRANCH  24  26
ATOM     26  C   UNL     1       1.107   5.134 -12.797  0.00  0.00    +0.248 C 
ATOM     27  O   UNL     1       1.858   5.291 -13.970  0.00  0.00    -0.212 OA
ENDBRANCH  24  26
ENDBRANCH  16  24
TORSDOF 2
ENDMDL
MODEL 6
REMARK VINA RESULT:      -8.1      2.223      6.868
REMARK  Name = 
REMARK  2 active torsions:
REMARK  status: ('A' for Active; 'I' for Inactive)
REMARK    1  A    between atoms: C_8  and  C_10
REMARK    2  A    between atoms: C_10  and  C_12
REMARK                            x       y       z     vdW  Elec       q    Type
REMARK                         _______ _______ _______ _____ _____    ______ ____
ROOT
ATOM      1  C   UNL     1       2.775   5.057  -1.757  0.00  0.00    +0.004 C 
ATOM      2  C   UNL     1       2.064   6.203  -2.733  0.00  0.00    +0.019 C 
ATOM      3  C   UNL     1       0.646   5.390  -2.715  0.00  0.00    -0.038 C 
ATOM      4  C   UNL     1      -0.176   5.907  -3.842  0.00  0.00    +0.036 C 
ATOM      5  C   UNL     1      -1.554   5.408  -3.695  0.00  0.00    -0.020 C 
ATOM      6  C   UNL     1      -2.152   5.786  -2.564  0.00  0.00    +0.038 C 
ATOM      7  C   UNL     1      -1.336   5.637  -1.350  0.00  0.00    +0.195 C 
ATOM      8  O   UNL     1      -1.911   5.663  -0.242  0.00  0.00    -0.287 OA
ATOM      9  C   UNL     1      -0.055   7.349  -3.922  0.00  0.00    +0.009 C 
ATOM     10  C   UNL     1       0.482   5.128  -5.091  0.00  0.00    +0.038 C 
ATOM     11  C   UNL     1       1.779   6.196  -5.255  0.00  0.00    +0.003 C 
ATOM     12  C   UNL     1       2.473   5.133  -6.404  0.00  0.00    +0.003 C 
ATOM     13  C   UNL     1       1.553   5.728  -7.619  0.00  0.00    +0.035 C 
ATOM     14  C   UNL     1       0.244   5.222  -7.563  0.00  0.00    +0.036 C 
ATOM     15  C   UNL     1       1.920   7.111  -7.925  0.00  0.00    +0.003 C 
ATOM     16  C   UNL     1       2.432   4.928  -8.570  0.00  0.00    +0.180 C 
ATOM     17  O   UNL     1       2.520   3.597  -8.196  0.00  0.00    -0.218 OA
ATOM     18  C   UNL     1       3.763   5.623  -8.284  0.00  0.00    +0.038 C 
ATOM     19  C   UNL     1       3.696   6.134  -6.847  0.00  0.00    +0.003 C 
ATOM     20  C   UNL     1      -0.583   5.855  -6.253  0.00  0.00    +0.153 C 
ATOM     21  O   UNL     1       0.130   7.216  -6.318  0.00  0.00    -0.223 OA
ATOM     22  C   UNL     1       0.101   5.357  -1.499  0.00  0.00    +0.034 C 
ATOM     23  C   UNL     1       2.587   5.416  -4.093  0.00  0.00    +0.004 C 
ENDROOT
BRANCH  16  24
ATOM     24  C   UNL     1       2.040   5.059  -9.979  0.00  0.00    +0.211 C 
ATOM     25  O   UNL     1       1.060   4.422 -10.360  0.00  0.00    -0.291 OA
BRANCH  24  26
ATOM     26  C   UNL     1       2.834   5.738 -11.032  0.00  0.00    +0.248 C 
ATOM     27  O   UNL     1       2.002   6.481 -11.880  0.00  0.00    -0.212 OA
ENDBRANCH  24  26
ENDBRANCH  16  24
TORSDOF 2
ENDMDL
MODEL 7
REMARK VINA RESULT:      -8.0      2.131      6.992
REMARK  Name = 
REMARK  2 active torsions:
REMARK  status: ('A' for Active; 'I' for Inactive)
REMARK    1  A    between atoms: C_8  and  C_10
REMARK    2  A    between atoms: C_10  and  C_12
REMARK                            x       y       z     vdW  Elec       q    Type
REMARK                         _______ _______ _______ _____ _____    ______ ____
ROOT
ATOM      1  C   UNL     1      -2.634   5.861  -6.281  0.00  0.00    +0.004 C 
ATOM      2  C   UNL     1      -1.230   4.967  -6.293  0.00  0.00    +0.019 C 
ATOM      3  C   UNL     1      -0.443   6.126  -5.448  0.00  0.00    -0.038 C 
ATOM      4  C   UNL     1       1.015   5.870  -5.598  0.00  0.00    +0.036 C 
ATOM      5  C   UNL     1       1.747   6.711  -4.636  0.00  0.00    -0.020 C 
ATOM      6  C   UNL     1       1.434   6.478  -3.360  0.00  0.00    +0.038 C 
ATOM      7  C   UNL     1      -0.006   6.378  -3.082  0.00  0.00    +0.195 C 
ATOM      8  O   UNL     1      -0.391   6.479  -1.899  0.00  0.00    -0.287 OA
ATOM      9  C   UNL     1       1.282   4.450  -5.492  0.00  0.00    +0.009 C 
ATOM     10  C   UNL     1       1.288   6.476  -7.067  0.00  0.00    +0.038 C 
ATOM     11  C   UNL     1       0.739   5.108  -7.888  0.00  0.00    +0.003 C 
ATOM     12  C   UNL     1       0.860   5.977  -9.358  0.00  0.00    +0.003 C 
ATOM     13  C   UNL     1       2.463   5.675  -9.490  0.00  0.00    +0.035 C 
ATOM     14  C   UNL     1       3.211   6.507  -8.642  0.00  0.00    +0.036 C 
ATOM     15  C   UNL     1       2.710   4.252  -9.723  0.00  0.00    +0.003 C 
ATOM     16  C   UNL     1       2.372   6.236 -10.902  0.00  0.00    +0.180 C 
ATOM     17  O   UNL     1       1.778   7.488 -10.923  0.00  0.00    -0.218 OA
ATOM     18  C   UNL     1       1.407   5.208 -11.492  0.00  0.00    +0.038 C 
ATOM     19  C   UNL     1       0.544   4.699 -10.339  0.00  0.00    +0.003 C 
ATOM     20  C   UNL     1       2.979   6.084  -7.039  0.00  0.00    +0.153 C 
ATOM     21  O   UNL     1       2.817   4.585  -7.341  0.00  0.00    -0.223 OA
ATOM     22  C   UNL     1      -0.936   6.272  -4.218  0.00  0.00    +0.034 C 
ATOM     23  C   UNL     1      -0.788   5.619  -7.749  0.00  0.00    +0.004 C 
ENDROOT
BRANCH  16  24
ATOM     24  C   UNL     1       3.658   6.247 -11.611  0.00  0.00    +0.211 C 
ATOM     25  O   UNL     1       4.539   6.989 -11.183  0.00  0.00    -0.291 OA
BRANCH  24  26
ATOM     26  C   UNL     1       3.925   5.589 -12.914  0.00  0.00    +0.248 C 
ATOM     27  O   UNL     1       5.055   4.764 -12.830  0.00  0.00    -0.212 OA
ENDBRANCH  24  26
ENDBRANCH  16  24
TORSDOF 2
ENDMDL
MODEL 8
REMARK VINA RESULT:      -8.0      1.760      2.219
REMARK  Name = 
REMARK  2 active torsions:
REMARK  status: ('A' for Active; 'I' for Inactive)
REMARK    1  A    between atoms: C_8  and  C_10
REMARK    2  A    between atoms: C_10  and  C_12
REMARK                            x       y       z     vdW  Elec       q    Type
REMARK                         _______ _______ _______ _____ _____    ______ ____
ROOT
ATOM      1  C   UNL     1       7.175   6.046  -9.208  0.00  0.00    +0.004 C 
ATOM      2  C   UNL     1       5.871   5.030  -9.011  0.00  0.00    +0.019 C 
ATOM      3  C   UNL     1       4.903   6.056  -9.837  0.00  0.00    -0.038 C 
ATOM      4  C   UNL     1       3.495   5.679  -9.533  0.00  0.00    +0.036 C 
ATOM      5  C   UNL     1       2.601   6.388 -10.464  0.00  0.00    -0.020 C 
ATOM      6  C   UNL     1       2.817   6.104 -11.750  0.00  0.00    +0.038 C 
ATOM      7  C   UNL     1       4.229   6.118 -12.160  0.00  0.00    +0.195 C 
ATOM      8  O   UNL     1       4.492   6.178 -13.379  0.00  0.00    -0.287 OA
ATOM      9  C   UNL     1       3.359   4.236  -9.535  0.00  0.00    +0.009 C 
ATOM     10  C   UNL     1       3.301   6.350  -8.080  0.00  0.00    +0.038 C 
ATOM     11  C   UNL     1       4.052   5.092  -7.242  0.00  0.00    +0.003 C 
ATOM     12  C   UNL     1       3.982   6.037  -5.817  0.00  0.00    +0.003 C 
ATOM     13  C   UNL     1       2.435   5.599  -5.514  0.00  0.00    +0.035 C 
ATOM     14  C   UNL     1       1.536   6.305  -6.330  0.00  0.00    +0.036 C 
ATOM     15  C   UNL     1       2.349   4.177  -5.181  0.00  0.00    +0.003 C 
ATOM     16  C   UNL     1       2.600   6.255  -4.150  0.00  0.00    +0.180 C 
ATOM     17  O   UNL     1       3.069   7.554  -4.255  0.00  0.00    -0.218 OA
ATOM     18  C   UNL     1       3.709   5.358  -3.602  0.00  0.00    +0.038 C 
ATOM     19  C   UNL     1       4.509   4.858  -4.804  0.00  0.00    +0.003 C 
ATOM     20  C   UNL     1       1.660   5.804  -7.922  0.00  0.00    +0.153 C 
ATOM     21  O   UNL     1       1.993   4.348  -7.556  0.00  0.00    -0.223 OA
ATOM     22  C   UNL     1       5.265   6.168 -11.115  0.00  0.00    +0.034 C 
ATOM     23  C   UNL     1       5.503   5.730  -7.556  0.00  0.00    +0.004 C 
ENDROOT
BRANCH  16  24
ATOM     24  C   UNL     1       1.389   6.194  -3.321  0.00  0.00    +0.211 C 
ATOM     25  O   UNL     1       0.412   6.842  -3.690  0.00  0.00    -0.291 OA
BRANCH  24  26
ATOM     26  C   UNL     1       1.301   5.574  -1.976  0.00  0.00    +0.248 C 
ATOM     27  O   UNL     1       0.199   4.712  -1.899  0.00  0.00    -0.212 OA
ENDBRANCH  24  26
ENDBRANCH  16  24
TORSDOF 2
ENDMDL
MODEL 9
REMARK VINA RESULT:      -7.8      3.366      7.256
REMARK  Name = 
REMARK  2 active torsions:
REMARK  status: ('A' for Active; 'I' for Inactive)
REMARK    1  A    between atoms: C_8  and  C_10
REMARK    2  A    between atoms: C_10  and  C_12
REMARK                            x       y       z     vdW  Elec       q    Type
REMARK                         _______ _______ _______ _____ _____    ______ ____
ROOT
ATOM      1  C   UNL     1       4.104   4.740  -5.916  0.00  0.00    +0.004 C 
ATOM      2  C   UNL     1       3.911   6.019  -6.965  0.00  0.00    +0.019 C 
ATOM      3  C   UNL     1       2.745   5.216  -7.783  0.00  0.00    -0.038 C 
ATOM      4  C   UNL     1       2.579   5.895  -9.097  0.00  0.00    +0.036 C 
ATOM      5  C   UNL     1       1.359   5.385  -9.746  0.00  0.00    -0.020 C 
ATOM      6  C   UNL     1       0.242   5.596  -9.048  0.00  0.00    +0.038 C 
ATOM      7  C   UNL     1       0.332   5.269  -7.617  0.00  0.00    +0.195 C 
ATOM      8  O   UNL     1      -0.727   5.136  -6.971  0.00  0.00    -0.287 OA
ATOM      9  C   UNL     1       2.620   7.332  -8.919  0.00  0.00    +0.009 C 
ATOM     10  C   UNL     1       3.837   5.304  -9.914  0.00  0.00    +0.038 C 
ATOM     11  C   UNL     1       4.955   6.380  -9.250  0.00  0.00    +0.003 C 
ATOM     12  C   UNL     1       6.212   5.493 -10.000  0.00  0.00    +0.003 C 
ATOM     13  C   UNL     1       6.002   6.262 -11.429  0.00  0.00    +0.035 C 
ATOM     14  C   UNL     1       4.888   5.757 -12.121  0.00  0.00    +0.036 C 
ATOM     15  C   UNL     1       6.373   7.673 -11.324  0.00  0.00    +0.003 C 
ATOM     16  C   UNL     1       7.298   5.606 -11.883  0.00  0.00    +0.180 C 
ATOM     17  O   UNL     1       7.278   4.234 -11.689  0.00  0.00    -0.218 OA
ATOM     18  C   UNL     1       8.242   6.247 -10.867  0.00  0.00    +0.038 C 
ATOM     19  C   UNL     1       7.414   6.543  -9.618  0.00  0.00    +0.003 C 
ATOM     20  C   UNL     1       3.466   6.196 -11.356  0.00  0.00    +0.153 C 
ATOM     21  O   UNL     1       4.011   7.550 -10.872  0.00  0.00    -0.223 OA
ATOM     22  C   UNL     1       1.660   5.009  -7.038  0.00  0.00    +0.034 C 
ATOM     23  C   UNL     1       5.110   5.436  -7.947  0.00  0.00    +0.004 C 
ENDROOT
BRANCH  16  24
ATOM     24  C   UNL     1       7.672   5.941 -13.263  0.00  0.00    +0.211 C 
ATOM     25  O   UNL     1       8.811   6.358 -13.460  0.00  0.00    -0.291 OA
BRANCH  24  26
ATOM     26  C   UNL     1       6.737   6.008 -14.413  0.00  0.00    +0.248 C 
ATOM     27  O   UNL     1       6.578   7.331 -14.847  0.00  0.00    -0.212 OA
ENDBRANCH  24  26
ENDBRANCH  16  24
TORSDOF 2
ENDMDL
