MODEL 1
REMARK VINA RESULT:      -7.6      0.000      0.000
REMARK  Name = 
REMARK  6 active torsions:
REMARK  status: ('A' for Active; 'I' for Inactive)
REMARK    1  A    between atoms: C_5  and  C_6
REMARK    2  A    between atoms: C_6  and  O_7
REMARK    3  A    between atoms: O_7  and  C_8
REMARK    4  A    between atoms: C_8  and  C_9
REMARK    5  A    between atoms: C_8  and  C_15
REMARK    6  A    between atoms: C_9  and  N_10
REMARK                            x       y       z     vdW  Elec       q    Type
REMARK                         _______ _______ _______ _____ _____    ______ ____
ROOT
ATOM      1  C   UNL     1       2.228   5.580  -7.756  0.00  0.00    +0.161 C 
ENDROOT
BRANCH   1   2
ATOM      2  C   UNL     1       2.025   6.311  -6.304  0.00  0.00    +0.017 A 
ATOM      3  C   UNL     1       2.024   5.300  -5.350  0.00  0.00    +0.057 A 
ATOM      4 CL   UNL     1       3.491   4.331  -5.259  0.00  0.00    -0.082 Cl
ATOM      5  C   UNL     1       1.170   5.320  -4.265  0.00  0.00    +0.023 A 
ATOM      6  C   UNL     1       0.009   6.060  -4.332  0.00  0.00    +0.058 A 
ATOM      7 CL   UNL     1      -1.487   5.480  -3.627  0.00  0.00    -0.082 Cl
ATOM      8  C   UNL     1      -0.030   7.079  -5.273  0.00  0.00    +0.011 A 
ATOM      9  C   UNL     1       0.914   7.147  -6.290  0.00  0.00    -0.000 A 
ENDBRANCH   1   2
BRANCH   1  10
ATOM     10  O   UNL     1       3.643   6.153  -7.906  0.00  0.00    -0.345 OA
BRANCH  10  11
ATOM     11  C   UNL     1       4.191   5.155  -8.697  0.00  0.00    +0.170 C 
BRANCH  11  17
ATOM     12 CL   UNL     1       8.998   6.058 -12.066  0.00  0.00    -0.082 Cl
ATOM     13  C   UNL     1       7.643   5.676 -11.048  0.00  0.00    +0.058 A 
ATOM     14  C   UNL     1       6.379   5.696 -11.616  0.00  0.00    +0.023 A 
ATOM     15  C   UNL     1       5.274   5.660 -10.813  0.00  0.00    +0.057 A 
ATOM     16 CL   UNL     1       3.720   5.415 -11.581  0.00  0.00    -0.082 Cl
ATOM     17  C   UNL     1       5.405   5.576  -9.432  0.00  0.00    +0.018 A 
ATOM     18  C   UNL     1       6.667   5.459  -8.915  0.00  0.00    -0.000 A 
ATOM     19  C   UNL     1       7.805   5.386  -9.702  0.00  0.00    +0.011 A 
ENDBRANCH  11  17
ENDBRANCH  10  11
ENDBRANCH   1  10
BRANCH   1  20
ATOM     20  C   UNL     1       1.561   6.877  -8.563  0.00  0.00    +0.142 C 
BRANCH  20  21
ATOM     21  N   UNL     1       0.987   6.218  -9.734  0.00  0.00    -0.305 N 
ATOM     22  C   UNL     1       0.368   6.829 -10.758  0.00  0.00    +0.179 A 
ATOM     23  N   UNL     1      -0.111   5.873 -11.590  0.00  0.00    -0.222 NA
ATOM     24  C   UNL     1       0.010   4.676 -10.996  0.00  0.00    +0.119 A 
ATOM     25  C   UNL     1       0.584   4.935  -9.764  0.00  0.00    +0.098 A 
ENDBRANCH  20  21
ENDBRANCH   1  20
TORSDOF 6
ENDMDL
MODEL 2
REMARK VINA RESULT:      -7.5      3.831      6.567
REMARK  Name = 
REMARK  6 active torsions:
REMARK  status: ('A' for Active; 'I' for Inactive)
REMARK    1  A    between atoms: C_5  and  C_6
REMARK    2  A    between atoms: C_6  and  O_7
REMARK    3  A    between atoms: O_7  and  C_8
REMARK    4  A    between atoms: C_8  and  C_9
REMARK    5  A    between atoms: C_8  and  C_15
REMARK    6  A    between atoms: C_9  and  N_10
REMARK                            x       y       z     vdW  Elec       q    Type
REMARK                         _______ _______ _______ _____ _____    ______ ____
ROOT
ATOM      1  C   UNL     1       2.146   5.462  -5.725  0.00  0.00    +0.161 C 
ENDROOT
BRANCH   1   2
ATOM      2  C   UNL     1       2.727   5.369  -7.254  0.00  0.00    +0.017 A 
ATOM      3  C   UNL     1       2.038   6.321  -7.996  0.00  0.00    +0.057 A 
ATOM      4 CL   UNL     1       2.216   7.989  -7.459  0.00  0.00    -0.082 Cl
ATOM      5  C   UNL     1       1.625   6.080  -9.293  0.00  0.00    +0.023 A 
ATOM      6  C   UNL     1       1.465   4.779  -9.718  0.00  0.00    +0.058 A 
ATOM      7 CL   UNL     1       0.148   4.322 -10.782  0.00  0.00    -0.082 Cl
ATOM      8  C   UNL     1       2.136   3.798  -9.002  0.00  0.00    +0.011 A 
ATOM      9  C   UNL     1       2.680   4.073  -7.754  0.00  0.00    -0.000 A 
ENDBRANCH   1   2
BRANCH   1  10
ATOM     10  O   UNL     1       3.140   4.406  -5.226  0.00  0.00    -0.345 OA
BRANCH  10  11
ATOM     11  C   UNL     1       4.146   5.253  -4.789  0.00  0.00    +0.170 C 
BRANCH  11  17
ATOM     12 CL   UNL     1       4.378   7.108   0.849  0.00  0.00    -0.082 Cl
ATOM     13  C   UNL     1       4.400   6.473  -0.769  0.00  0.00    +0.058 A 
ATOM     14  C   UNL     1       4.699   7.346  -1.803  0.00  0.00    +0.023 A 
ATOM     15  C   UNL     1       4.478   6.965  -3.096  0.00  0.00    +0.057 A 
ATOM     16 CL   UNL     1       5.119   7.988  -4.365  0.00  0.00    -0.082 Cl
ATOM     17  C   UNL     1       3.981   5.699  -3.387  0.00  0.00    +0.018 A 
ATOM     18  C   UNL     1       3.792   4.832  -2.345  0.00  0.00    -0.000 A 
ATOM     19  C   UNL     1       4.104   5.145  -1.032  0.00  0.00    +0.011 A 
ENDBRANCH  11  17
ENDBRANCH  10  11
ENDBRANCH   1  10
BRANCH   1  20
ATOM     20  C   UNL     1       0.990   4.303  -6.036  0.00  0.00    +0.142 C 
BRANCH  20  21
ATOM     21  N   UNL     1      -0.239   5.072  -5.859  0.00  0.00    -0.305 N 
ATOM     22  C   UNL     1      -1.242   5.171  -6.747  0.00  0.00    +0.179 A 
ATOM     23  N   UNL     1      -2.149   6.052  -6.261  0.00  0.00    -0.222 NA
ATOM     24  C   UNL     1      -1.630   6.666  -5.187  0.00  0.00    +0.119 A 
ATOM     25  C   UNL     1      -0.365   6.127  -5.033  0.00  0.00    +0.098 A 
ENDBRANCH  20  21
ENDBRANCH   1  20
TORSDOF 6
ENDMDL
MODEL 3
REMARK VINA RESULT:      -7.5      2.823      4.007
REMARK  Name = 
REMARK  6 active torsions:
REMARK  status: ('A' for Active; 'I' for Inactive)
REMARK    1  A    between atoms: C_5  and  C_6
REMARK    2  A    between atoms: C_6  and  O_7
REMARK    3  A    between atoms: O_7  and  C_8
REMARK    4  A    between atoms: C_8  and  C_9
REMARK    5  A    between atoms: C_8  and  C_15
REMARK    6  A    between atoms: C_9  and  N_10
REMARK                            x       y       z     vdW  Elec       q    Type
REMARK                         _______ _______ _______ _____ _____    ______ ____
ROOT
ATOM      1  C   UNL     1       2.241   5.258  -6.655  0.00  0.00    +0.161 C 
ENDROOT
BRANCH   1   2
ATOM      2  C   UNL     1       0.755   4.808  -6.136  0.00  0.00    +0.017 A 
ATOM      3  C   UNL     1      -0.157   5.623  -6.796  0.00  0.00    +0.057 A 
ATOM      4 CL   UNL     1      -0.151   5.514  -8.554  0.00  0.00    -0.082 Cl
ATOM      5  C   UNL     1      -1.276   6.130  -6.164  0.00  0.00    +0.023 A 
ATOM      6  C   UNL     1      -1.285   6.237  -4.791  0.00  0.00    +0.058 A 
ATOM      7 CL   UNL     1      -2.026   7.607  -3.986  0.00  0.00    -0.082 Cl
ATOM      8  C   UNL     1      -0.388   5.440  -4.094  0.00  0.00    +0.011 A 
ATOM      9  C   UNL     1       0.662   4.809  -4.748  0.00  0.00    -0.000 A 
ENDBRANCH   1   2
BRANCH   1  10
ATOM     10  O   UNL     1       2.465   3.910  -7.353  0.00  0.00    -0.345 OA
BRANCH  10  11
ATOM     11  C   UNL     1       2.572   4.363  -8.658  0.00  0.00    +0.170 C 
BRANCH  11  17
ATOM     12 CL   UNL     1       7.458   7.239 -10.428  0.00  0.00    -0.082 Cl
ATOM     13  C   UNL     1       6.091   6.284  -9.939  0.00  0.00    +0.058 A 
ATOM     14  C   UNL     1       4.875   6.525 -10.560  0.00  0.00    +0.023 A 
ATOM     15  C   UNL     1       3.730   5.993 -10.039  0.00  0.00    +0.057 A 
ATOM     16 CL   UNL     1       2.273   6.099 -11.003  0.00  0.00    -0.082 Cl
ATOM     17  C   UNL     1       3.775   5.189  -8.905  0.00  0.00    +0.018 A 
ATOM     18  C   UNL     1       5.004   4.894  -8.379  0.00  0.00    -0.000 A 
ATOM     19  C   UNL     1       6.193   5.328  -8.940  0.00  0.00    +0.011 A 
ENDBRANCH  11  17
ENDBRANCH  10  11
ENDBRANCH   1  10
BRANCH   1  20
ATOM     20  C   UNL     1       2.957   4.710  -5.254  0.00  0.00    +0.142 C 
BRANCH  20  21
ATOM     21  N   UNL     1       3.724   5.886  -4.848  0.00  0.00    -0.305 N 
ATOM     22  C   UNL     1       3.681   7.095  -5.432  0.00  0.00    +0.179 A 
ATOM     23  N   UNL     1       4.607   7.882  -4.834  0.00  0.00    -0.222 NA
ATOM     24  C   UNL     1       5.373   7.126  -4.033  0.00  0.00    +0.119 A 
ATOM     25  C   UNL     1       4.881   5.840  -4.163  0.00  0.00    +0.098 A 
ENDBRANCH  20  21
ENDBRANCH   1  20
TORSDOF 6
ENDMDL
MODEL 4
REMARK VINA RESULT:      -7.5      1.831      2.300
REMARK  Name = 
REMARK  6 active torsions:
REMARK  status: ('A' for Active; 'I' for Inactive)
REMARK    1  A    between atoms: C_5  and  C_6
REMARK    2  A    between atoms: C_6  and  O_7
REMARK    3  A    between atoms: O_7  and  C_8
REMARK    4  A    between atoms: C_8  and  C_9
REMARK    5  A    between atoms: C_8  and  C_15
REMARK    6  A    between atoms: C_9  and  N_10
REMARK                            x       y       z     vdW  Elec       q    Type
REMARK                         _______ _______ _______ _____ _____    ______ ____
ROOT
ATOM      1  C   UNL     1       3.110   6.112  -9.243  0.00  0.00    +0.161 C 
ENDROOT
BRANCH   1   2
ATOM      2  C   UNL     1       3.689   6.686  -7.823  0.00  0.00    +0.017 A 
ATOM      3  C   UNL     1       4.324   5.621  -7.196  0.00  0.00    +0.057 A 
ATOM      4 CL   UNL     1       5.675   4.909  -8.073  0.00  0.00    -0.082 Cl
ATOM      5  C   UNL     1       4.231   5.414  -5.833  0.00  0.00    +0.023 A 
ATOM      6  C   UNL     1       3.168   5.951  -5.139  0.00  0.00    +0.058 A 
ATOM      7 CL   UNL     1       2.393   5.074  -3.834  0.00  0.00    -0.082 Cl
ATOM      8  C   UNL     1       2.507   7.017  -5.733  0.00  0.00    +0.011 A 
ATOM      9  C   UNL     1       2.703   7.320  -7.074  0.00  0.00    -0.000 A 
ENDBRANCH   1   2
BRANCH   1  10
ATOM     10  O   UNL     1       3.768   7.251 -10.033  0.00  0.00    -0.345 OA
BRANCH  10  11
ATOM     11  C   UNL     1       4.089   6.551 -11.185  0.00  0.00    +0.170 C 
BRANCH  11  17
ATOM     12 CL   UNL     1       9.876   5.851 -12.323  0.00  0.00    -0.082 Cl
ATOM     13  C   UNL     1       8.205   6.000 -11.871  0.00  0.00    +0.058 A 
ATOM     14  C   UNL     1       7.256   5.412 -12.693  0.00  0.00    +0.023 A 
ATOM     15  C   UNL     1       5.934   5.717 -12.528  0.00  0.00    +0.057 A 
ATOM     16 CL   UNL     1       4.764   4.751 -13.401  0.00  0.00    -0.082 Cl
ATOM     17  C   UNL     1       5.529   6.591 -11.526  0.00  0.00    +0.018 A 
ATOM     18  C   UNL     1       6.485   7.075 -10.674  0.00  0.00    -0.000 A 
ATOM     19  C   UNL     1       7.818   6.707 -10.743  0.00  0.00    +0.011 A 
ENDBRANCH  11  17
ENDBRANCH  10  11
ENDBRANCH   1  10
BRANCH   1  20
ATOM     20  C   UNL     1       1.694   6.975  -9.078  0.00  0.00    +0.142 C 
BRANCH  20  21
ATOM     21  N   UNL     1       0.809   6.244  -9.983  0.00  0.00    -0.305 N 
ATOM     22  C   UNL     1       0.668   4.909 -10.039  0.00  0.00    +0.179 A 
ATOM     23  N   UNL     1      -0.162   4.618 -11.069  0.00  0.00    -0.222 NA
ATOM     24  C   UNL     1      -0.372   5.730 -11.790  0.00  0.00    +0.119 A 
ATOM     25  C   UNL     1       0.364   6.719 -11.160  0.00  0.00    +0.098 A 
ENDBRANCH  20  21
ENDBRANCH   1  20
TORSDOF 6
ENDMDL
MODEL 5
REMARK VINA RESULT:      -7.4      3.328      5.189
REMARK  Name = 
REMARK  6 active torsions:
REMARK  status: ('A' for Active; 'I' for Inactive)
REMARK    1  A    between atoms: C_5  and  C_6
REMARK    2  A    between atoms: C_6  and  O_7
REMARK    3  A    between atoms: O_7  and  C_8
REMARK    4  A    between atoms: C_8  and  C_9
REMARK    5  A    between atoms: C_8  and  C_15
REMARK    6  A    between atoms: C_9  and  N_10
REMARK                            x       y       z     vdW  Elec       q    Type
REMARK                         _______ _______ _______ _____ _____    ______ ____
ROOT
ATOM      1  C   UNL     1       0.702   6.024  -4.623  0.00  0.00    +0.161 C 
ENDROOT
BRANCH   1   2
ATOM      2  C   UNL     1      -0.533   5.575  -3.645  0.00  0.00    +0.017 A 
ATOM      3  C   UNL     1      -1.489   6.580  -3.729  0.00  0.00    +0.057 A 
ATOM      4 CL   UNL     1      -2.157   6.872  -5.332  0.00  0.00    -0.082 Cl
ATOM      5  C   UNL     1      -2.198   7.009  -2.624  0.00  0.00    +0.023 A 
ATOM      6  C   UNL     1      -1.677   6.802  -1.365  0.00  0.00    +0.058 A 
ATOM      7 CL   UNL     1      -1.843   8.004  -0.099  0.00  0.00    -0.082 Cl
ATOM      8  C   UNL     1      -0.718   5.807  -1.240  0.00  0.00    +0.011 A 
ATOM      9  C   UNL     1      -0.099   5.268  -2.360  0.00  0.00    -0.000 A 
ENDBRANCH   1   2
BRANCH   1  10
ATOM     10  O   UNL     1       0.627   4.709  -5.411  0.00  0.00    -0.345 OA
BRANCH  10  11
ATOM     11  C   UNL     1       0.680   5.230  -6.694  0.00  0.00    +0.170 C 
BRANCH  11  17
ATOM     12 CL   UNL     1       5.701   5.371  -9.864  0.00  0.00    -0.082 Cl
ATOM     13  C   UNL     1       4.173   5.273  -9.042  0.00  0.00    +0.058 A 
ATOM     14  C   UNL     1       3.627   6.447  -8.547  0.00  0.00    +0.023 A 
ATOM     15  C   UNL     1       2.574   6.392  -7.678  0.00  0.00    +0.057 A 
ATOM     16 CL   UNL     1       1.754   7.891  -7.300  0.00  0.00    -0.082 Cl
ATOM     17  C   UNL     1       2.027   5.169  -7.307  0.00  0.00    +0.018 A 
ATOM     18  C   UNL     1       2.530   4.039  -7.892  0.00  0.00    -0.000 A 
ATOM     19  C   UNL     1       3.525   4.062  -8.854  0.00  0.00    +0.011 A 
ENDBRANCH  11  17
ENDBRANCH  10  11
ENDBRANCH   1  10
BRANCH   1  20
ATOM     20  C   UNL     1       1.833   5.392  -3.575  0.00  0.00    +0.142 C 
BRANCH  20  21
ATOM     21  N   UNL     1       3.057   6.022  -4.065  0.00  0.00    -0.305 N 
ATOM     22  C   UNL     1       4.219   5.397  -4.317  0.00  0.00    +0.179 A 
ATOM     23  N   UNL     1       5.136   6.335  -4.654  0.00  0.00    -0.222 NA
ATOM     24  C   UNL     1       4.627   7.552  -4.411  0.00  0.00    +0.119 A 
ATOM     25  C   UNL     1       3.358   7.324  -3.909  0.00  0.00    +0.098 A 
ENDBRANCH  20  21
ENDBRANCH   1  20
TORSDOF 6
ENDMDL
MODEL 6
REMARK VINA RESULT:      -7.3      3.007      4.689
REMARK  Name = 
REMARK  6 active torsions:
REMARK  status: ('A' for Active; 'I' for Inactive)
REMARK    1  A    between atoms: C_5  and  C_6
REMARK    2  A    between atoms: C_6  and  O_7
REMARK    3  A    between atoms: O_7  and  C_8
REMARK    4  A    between atoms: C_8  and  C_9
REMARK    5  A    between atoms: C_8  and  C_15
REMARK    6  A    between atoms: C_9  and  N_10
REMARK                            x       y       z     vdW  Elec       q    Type
REMARK                         _______ _______ _______ _____ _____    ______ ____
ROOT
ATOM      1  C   UNL     1       1.851   5.553  -6.135  0.00  0.00    +0.161 C 
ENDROOT
BRANCH   1   2
ATOM      2  C   UNL     1       0.532   5.009  -5.332  0.00  0.00    +0.017 A 
ATOM      3  C   UNL     1      -0.562   5.677  -5.871  0.00  0.00    +0.057 A 
ATOM      4 CL   UNL     1      -0.843   5.424  -7.590  0.00  0.00    -0.082 Cl
ATOM      5  C   UNL     1      -1.605   6.126  -5.084  0.00  0.00    +0.023 A 
ATOM      6  C   UNL     1      -1.391   6.345  -3.740  0.00  0.00    +0.058 A 
ATOM      7 CL   UNL     1      -2.127   7.700  -2.907  0.00  0.00    -0.082 Cl
ATOM      8  C   UNL     1      -0.308   5.696  -3.164  0.00  0.00    +0.011 A 
ATOM      9  C   UNL     1       0.678   5.116  -3.953  0.00  0.00    -0.000 A 
ENDBRANCH   1   2
BRANCH   1  10
ATOM     10  O   UNL     1       1.869   4.320  -7.049  0.00  0.00    -0.345 OA
BRANCH  10  11
ATOM     11  C   UNL     1       3.069   4.559  -7.700  0.00  0.00    +0.170 C 
BRANCH  11  17
ATOM     12 CL   UNL     1       2.721   6.050 -13.439  0.00  0.00    -0.082 Cl
ATOM     13  C   UNL     1       2.743   5.716 -11.733  0.00  0.00    +0.058 A 
ATOM     14  C   UNL     1       3.973   5.674 -11.097  0.00  0.00    +0.023 A 
ATOM     15  C   UNL     1       4.065   5.166  -9.832  0.00  0.00    +0.057 A 
ATOM     16 CL   UNL     1       5.577   5.384  -8.978  0.00  0.00    -0.082 Cl
ATOM     17  C   UNL     1       2.930   4.717  -9.166  0.00  0.00    +0.018 A 
ATOM     18  C   UNL     1       1.721   4.866  -9.789  0.00  0.00    -0.000 A 
ATOM     19  C   UNL     1       1.576   5.471 -11.026  0.00  0.00    +0.011 A 
ENDBRANCH  11  17
ENDBRANCH  10  11
ENDBRANCH   1  10
BRANCH   1  20
ATOM     20  C   UNL     1       2.882   4.826  -5.046  0.00  0.00    +0.142 C 
BRANCH  20  21
ATOM     21  N   UNL     1       3.713   5.958  -4.643  0.00  0.00    -0.305 N 
ATOM     22  C   UNL     1       3.702   7.182  -5.197  0.00  0.00    +0.179 A 
ATOM     23  N   UNL     1       4.682   7.915  -4.616  0.00  0.00    -0.222 NA
ATOM     24  C   UNL     1       5.443   7.107  -3.862  0.00  0.00    +0.119 A 
ATOM     25  C   UNL     1       4.891   5.846  -4.003  0.00  0.00    +0.098 A 
ENDBRANCH  20  21
ENDBRANCH   1  20
TORSDOF 6
ENDMDL
MODEL 7
REMARK VINA RESULT:      -7.2      3.619      7.237
REMARK  Name = 
REMARK  6 active torsions:
REMARK  status: ('A' for Active; 'I' for Inactive)
REMARK    1  A    between atoms: C_5  and  C_6
REMARK    2  A    between atoms: C_6  and  O_7
REMARK    3  A    between atoms: O_7  and  C_8
REMARK    4  A    between atoms: C_8  and  C_9
REMARK    5  A    between atoms: C_8  and  C_15
REMARK    6  A    between atoms: C_9  and  N_10
REMARK                            x       y       z     vdW  Elec       q    Type
REMARK                         _______ _______ _______ _____ _____    ______ ____
ROOT
ATOM      1  C   UNL     1       3.652   5.592 -10.987  0.00  0.00    +0.161 C 
ENDROOT
BRANCH   1   2
ATOM      2  C   UNL     1       4.685   6.560 -11.811  0.00  0.00    +0.017 A 
ATOM      3  C   UNL     1       5.290   5.762 -12.775  0.00  0.00    +0.057 A 
ATOM      4 CL   UNL     1       4.205   5.021 -13.948  0.00  0.00    -0.082 Cl
ATOM      5  C   UNL     1       6.629   5.886 -13.092  0.00  0.00    +0.023 A 
ATOM      6  C   UNL     1       7.490   6.448 -12.175  0.00  0.00    +0.058 A 
ATOM      7 CL   UNL     1       9.117   5.833 -11.954  0.00  0.00    -0.082 Cl
ATOM      8  C   UNL     1       6.925   7.251 -11.194  0.00  0.00    +0.011 A 
ATOM      9  C   UNL     1       5.555   7.237 -10.964  0.00  0.00    -0.000 A 
ENDBRANCH   1   2
BRANCH   1  10
ATOM     10  O   UNL     1       2.490   6.573 -11.185  0.00  0.00    -0.345 OA
BRANCH  10  11
ATOM     11  C   UNL     1       1.608   5.727 -11.838  0.00  0.00    +0.170 C 
BRANCH  11  17
ATOM     12 CL   UNL     1      -0.519   8.062 -16.868  0.00  0.00    -0.082 Cl
ATOM     13  C   UNL     1       0.215   7.448 -15.417  0.00  0.00    +0.058 A 
ATOM     14  C   UNL     1       0.322   6.073 -15.276  0.00  0.00    +0.023 A 
ATOM     15  C   UNL     1       0.647   5.539 -14.062  0.00  0.00    +0.057 A 
ATOM     16 CL   UNL     1       1.033   3.833 -14.003  0.00  0.00    -0.082 Cl
ATOM     17  C   UNL     1       0.899   6.363 -12.971  0.00  0.00    +0.018 A 
ATOM     18  C   UNL     1       0.879   7.717 -13.173  0.00  0.00    -0.000 A 
ATOM     19  C   UNL     1       0.657   8.294 -14.412  0.00  0.00    +0.011 A 
ENDBRANCH  11  17
ENDBRANCH  10  11
ENDBRANCH   1  10
BRANCH   1  20
ATOM     20  C   UNL     1       4.066   6.293  -9.534  0.00  0.00    +0.142 C 
BRANCH  20  21
ATOM     21  N   UNL     1       3.365   5.426  -8.590  0.00  0.00    -0.305 N 
ATOM     22  C   UNL     1       3.177   4.103  -8.725  0.00  0.00    +0.179 A 
ATOM     23  N   UNL     1       2.398   3.683  -7.699  0.00  0.00    -0.222 NA
ATOM     24  C   UNL     1       1.919   4.753  -7.046  0.00  0.00    +0.119 A 
ATOM     25  C   UNL     1       2.436   5.850  -7.713  0.00  0.00    +0.098 A 
ENDBRANCH  20  21
ENDBRANCH   1  20
TORSDOF 6
ENDMDL
MODEL 8
REMARK VINA RESULT:      -7.1      3.783      5.907
REMARK  Name = 
REMARK  6 active torsions:
REMARK  status: ('A' for Active; 'I' for Inactive)
REMARK    1  A    between atoms: C_5  and  C_6
REMARK    2  A    between atoms: C_6  and  O_7
REMARK    3  A    between atoms: O_7  and  C_8
REMARK    4  A    between atoms: C_8  and  C_9
REMARK    5  A    between atoms: C_8  and  C_15
REMARK    6  A    between atoms: C_9  and  N_10
REMARK                            x       y       z     vdW  Elec       q    Type
REMARK                         _______ _______ _______ _____ _____    ______ ____
ROOT
ATOM      1  C   UNL     1       1.134   6.369  -4.154  0.00  0.00    +0.161 C 
ENDROOT
BRANCH   1   2
ATOM      2  C   UNL     1      -0.172   5.727  -3.403  0.00  0.00    +0.017 A 
ATOM      3  C   UNL     1      -1.195   6.660  -3.525  0.00  0.00    +0.057 A 
ATOM      4 CL   UNL     1      -1.672   7.065  -5.171  0.00  0.00    -0.082 Cl
ATOM      5  C   UNL     1      -2.079   6.916  -2.494  0.00  0.00    +0.023 A 
ATOM      6  C   UNL     1      -1.709   6.620  -1.200  0.00  0.00    +0.058 A 
ATOM      7 CL   UNL     1      -2.147   7.666   0.137  0.00  0.00    -0.082 Cl
ATOM      8  C   UNL     1      -0.690   5.693  -1.035  0.00  0.00    +0.011 A 
ATOM      9  C   UNL     1       0.116   5.323  -2.104  0.00  0.00    -0.000 A 
ENDBRANCH   1   2
BRANCH   1  10
ATOM     10  O   UNL     1       1.139   5.258  -5.212  0.00  0.00    -0.345 OA
BRANCH  10  11
ATOM     11  C   UNL     1       1.671   5.977  -6.270  0.00  0.00    +0.170 C 
BRANCH  11  17
ATOM     12 CL   UNL     1       0.511   4.615 -11.934  0.00  0.00    -0.082 Cl
ATOM     13  C   UNL     1       0.796   5.133 -10.299  0.00  0.00    +0.058 A 
ATOM     14  C   UNL     1       2.098   5.094  -9.825  0.00  0.00    +0.023 A 
ATOM     15  C   UNL     1       2.337   5.239  -8.488  0.00  0.00    +0.057 A 
ATOM     16 CL   UNL     1       3.998   5.454  -7.978  0.00  0.00    -0.082 Cl
ATOM     17  C   UNL     1       1.288   5.453  -7.601  0.00  0.00    +0.018 A 
ATOM     18  C   UNL     1       0.028   5.582  -8.119  0.00  0.00    -0.000 A 
ATOM     19  C   UNL     1      -0.241   5.546  -9.477  0.00  0.00    +0.011 A 
ENDBRANCH  11  17
ENDBRANCH  10  11
ENDBRANCH   1  10
BRANCH   1  20
ATOM     20  C   UNL     1       2.182   5.515  -3.179  0.00  0.00    +0.142 C 
BRANCH  20  21
ATOM     21  N   UNL     1       3.395   6.323  -3.289  0.00  0.00    -0.305 N 
ATOM     22  C   UNL     1       3.466   7.659  -3.168  0.00  0.00    +0.179 A 
ATOM     23  N   UNL     1       4.738   8.038  -3.437  0.00  0.00    -0.222 NA
ATOM     24  C   UNL     1       5.412   6.988  -3.932  0.00  0.00    +0.119 A 
ATOM     25  C   UNL     1       4.501   5.947  -3.957  0.00  0.00    +0.098 A 
ENDBRANCH  20  21
ENDBRANCH   1  20
TORSDOF 6
ENDMDL
MODEL 9
REMARK VINA RESULT:      -7.1      2.831      4.269
REMARK  Name = 
REMARK  6 active torsions:
REMARK  status: ('A' for Active; 'I' for Inactive)
REMARK    1  A    between atoms: C_5  and  C_6
REMARK    2  A    between atoms: C_6  and  O_7
REMARK    3  A    between atoms: O_7  and  C_8
REMARK    4  A    between atoms: C_8  and  C_9
REMARK    5  A    between atoms: C_8  and  C_15
REMARK    6  A    between atoms: C_9  and  N_10
REMARK                            x       y       z     vdW  Elec       q    Type
REMARK                         _______ _______ _______ _____ _____    ______ ____
ROOT
ATOM      1  C   UNL     1       3.056   5.734  -7.449  0.00  0.00    +0.161 C 
ENDROOT
BRANCH   1   2
ATOM      2  C   UNL     1       1.670   4.867  -7.542  0.00  0.00    +0.017 A 
ATOM      3  C   UNL     1       0.766   5.643  -8.258  0.00  0.00    +0.057 A 
ATOM      4 CL   UNL     1       1.245   6.059  -9.900  0.00  0.00    -0.082 Cl
ATOM      5  C   UNL     1      -0.572   5.709  -7.917  0.00  0.00    +0.023 A 
ATOM      6  C   UNL     1      -0.956   5.403  -6.629  0.00  0.00    +0.058 A 
ATOM      7 CL   UNL     1      -2.224   6.301  -5.817  0.00  0.00    -0.082 Cl
ATOM      8  C   UNL     1      -0.080   4.631  -5.881  0.00  0.00    +0.011 A 
ATOM      9  C   UNL     1       1.234   4.441  -6.292  0.00  0.00    -0.000 A 
ENDBRANCH   1   2
BRANCH   1  10
ATOM     10  O   UNL     1       3.778   4.784  -8.413  0.00  0.00    -0.345 OA
BRANCH  10  11
ATOM     11  C   UNL     1       4.807   5.625  -8.806  0.00  0.00    +0.170 C 
BRANCH  11  17
ATOM     12 CL   UNL     1       6.730   5.692 -14.425  0.00  0.00    -0.082 Cl
ATOM     13  C   UNL     1       6.090   5.776 -12.811  0.00  0.00    +0.058 A 
ATOM     14  C   UNL     1       6.986   5.929 -11.765  0.00  0.00    +0.023 A 
ATOM     15  C   UNL     1       6.565   5.741 -10.479  0.00  0.00    +0.057 A 
ATOM     16 CL   UNL     1       7.656   6.209  -9.192  0.00  0.00    -0.082 Cl
ATOM     17  C   UNL     1       5.239   5.424 -10.207  0.00  0.00    +0.018 A 
ATOM     18  C   UNL     1       4.364   5.378 -11.259  0.00  0.00    -0.000 A 
ATOM     19  C   UNL     1       4.730   5.665 -12.563  0.00  0.00    +0.011 A 
ENDBRANCH  11  17
ENDBRANCH  10  11
ENDBRANCH   1  10
BRANCH   1  20
ATOM     20  C   UNL     1       3.574   4.868  -6.123  0.00  0.00    +0.142 C 
BRANCH  20  21
ATOM     21  N   UNL     1       4.012   5.942  -5.235  0.00  0.00    -0.305 N 
ATOM     22  C   UNL     1       3.938   7.258  -5.494  0.00  0.00    +0.179 A 
ATOM     23  N   UNL     1       4.537   7.921  -4.475  0.00  0.00    -0.222 NA
ATOM     24  C   UNL     1       5.171   7.036  -3.690  0.00  0.00    +0.119 A 
ATOM     25  C   UNL     1       4.938   5.800  -4.269  0.00  0.00    +0.098 A 
ENDBRANCH  20  21
ENDBRANCH   1  20
TORSDOF 6
ENDMDL
