MODEL 1
REMARK VINA RESULT:      -7.8      0.000      0.000
REMARK  Name = 
REMARK  5 active torsions:
REMARK  status: ('A' for Active; 'I' for Inactive)
REMARK    1  A    between atoms: C_6  and  O_7
REMARK    2  A    between atoms: O_7  and  C_8
REMARK    3  A    between atoms: C_8  and  C_10
REMARK    4  A    between atoms: C_10  and  C_11
REMARK    5  A    between atoms: C_10  and  C_13
REMARK                            x       y       z     vdW  Elec       q    Type
REMARK                         _______ _______ _______ _____ _____    ______ ____
ROOT
ATOM      1  O   UNL     1       2.759   5.408  -7.478  0.00  0.00    -0.452 OA
ENDROOT
BRANCH   1   9
ATOM      2  C   UNL     1       2.273   6.607  -3.723  0.00  0.00    +0.170 C 
ATOM      3  N   UNL     1       2.210   6.373  -3.946  0.00  0.00    +0.302 N 
ATOM      4  C   UNL     1       2.159   6.546  -5.572  0.00  0.00    +0.093 C 
ATOM      5  C   UNL     1       3.084   5.205  -5.316  0.00  0.00    +0.197 C 
ATOM      6  C   UNL     1       4.198   6.307  -4.490  0.00  0.00    +0.197 C 
ATOM      7  O   UNL     1       4.748   5.290  -5.770  0.00  0.00    -0.342 OA
ATOM      8  C   UNL     1       3.546   7.181  -5.962  0.00  0.00    +0.101 C 
ATOM      9  C   UNL     1       3.350   5.710  -6.333  0.00  0.00    +0.180 C 
ATOM     10  C   UNL     1       2.970   4.636  -5.224  0.00  0.00    +0.101 C 
ATOM     11  C   UNL     1       3.282   5.152  -3.720  0.00  0.00    +0.093 C 
ATOM     12  C   UNL     1       1.041   5.451  -3.937  0.00  0.00    +0.170 C 
ENDBRANCH   1   9
BRANCH   1  13
ATOM     13  C   UNL     1       3.613   4.842  -8.439  0.00  0.00    +0.323 C 
ATOM     14  O   UNL     1       3.117   3.821  -8.936  0.00  0.00    -0.250 OA
BRANCH  13  15
ATOM     15  C   UNL     1       3.588   6.231  -9.265  0.00  0.00    +0.154 C 
BRANCH  15  16
ATOM     16  C   UNL     1       5.111   6.117  -9.721  0.00  0.00    -0.009 A 
ATOM     17  C   UNL     1       5.213   6.959 -10.799  0.00  0.00    -0.004 A 
ATOM     18  C   UNL     1       6.409   7.624 -10.991  0.00  0.00    -0.000 A 
ATOM     19  C   UNL     1       7.536   6.981 -10.515  0.00  0.00    -0.000 A 
ATOM     20  C   UNL     1       7.364   5.867  -9.687  0.00  0.00    -0.000 A 
ATOM     21  C   UNL     1       6.125   5.610  -9.093  0.00  0.00    -0.004 A 
ENDBRANCH  15  16
BRANCH  15  22
ATOM     22  C   UNL     1       3.034   5.537 -10.648  0.00  0.00    +0.198 C 
ATOM     23  O   UNL     1       1.841   6.183 -10.759  0.00  0.00    -0.219 OA
ENDBRANCH  15  22
ENDBRANCH  13  15
ENDBRANCH   1  13
TORSDOF 5
ENDMDL
MODEL 2
REMARK VINA RESULT:      -7.7      2.511      6.488
REMARK  Name = 
REMARK  5 active torsions:
REMARK  status: ('A' for Active; 'I' for Inactive)
REMARK    1  A    between atoms: C_6  and  O_7
REMARK    2  A    between atoms: O_7  and  C_8
REMARK    3  A    between atoms: C_8  and  C_10
REMARK    4  A    between atoms: C_10  and  C_11
REMARK    5  A    between atoms: C_10  and  C_13
REMARK                            x       y       z     vdW  Elec       q    Type
REMARK                         _______ _______ _______ _____ _____    ______ ____
ROOT
ATOM      1  O   UNL     1       2.633   5.198  -7.228  0.00  0.00    -0.452 OA
ENDROOT
BRANCH   1   9
ATOM      2  C   UNL     1       4.385   6.773 -10.425  0.00  0.00    +0.170 C 
ATOM      3  N   UNL     1       4.408   6.553 -10.182  0.00  0.00    +0.302 N 
ATOM      4  C   UNL     1       3.660   6.606  -8.727  0.00  0.00    +0.093 C 
ATOM      5  C   UNL     1       3.403   5.074  -9.281  0.00  0.00    +0.197 C 
ATOM      6  C   UNL     1       2.512   5.854 -10.598  0.00  0.00    +0.197 C 
ATOM      7  O   UNL     1       1.775   4.624  -9.641  0.00  0.00    -0.342 OA
ATOM      8  C   UNL     1       2.129   6.766  -9.057  0.00  0.00    +0.101 C 
ATOM      9  C   UNL     1       2.567   5.396  -8.535  0.00  0.00    +0.180 C 
ATOM     10  C   UNL     1       3.711   4.574  -9.270  0.00  0.00    +0.101 C 
ATOM     11  C   UNL     1       3.977   5.088 -10.784  0.00  0.00    +0.093 C 
ATOM     12  C   UNL     1       5.669   6.024  -9.592  0.00  0.00    +0.170 C 
ENDBRANCH   1   9
BRANCH   1  13
ATOM     13  C   UNL     1       1.439   4.733  -6.651  0.00  0.00    +0.323 C 
ATOM     14  O   UNL     1       1.596   3.623  -6.124  0.00  0.00    -0.250 OA
BRANCH  13  15
ATOM     15  C   UNL     1       1.381   6.059  -5.728  0.00  0.00    +0.154 C 
BRANCH  15  16
ATOM     16  C   UNL     1      -0.211   6.061  -5.637  0.00  0.00    -0.009 A 
ATOM     17  C   UNL     1      -0.496   6.921  -4.607  0.00  0.00    -0.004 A 
ATOM     18  C   UNL     1      -1.652   7.673  -4.692  0.00  0.00    -0.000 A 
ATOM     19  C   UNL     1      -2.683   7.108  -5.418  0.00  0.00    -0.000 A 
ATOM     20  C   UNL     1      -2.407   5.975  -6.190  0.00  0.00    -0.000 A 
ATOM     21  C   UNL     1      -1.087   5.622  -6.484  0.00  0.00    -0.004 A 
ENDBRANCH  15  16
BRANCH  15  22
ATOM     22  C   UNL     1       1.546   5.231  -4.319  0.00  0.00    +0.198 C 
ATOM     23  O   UNL     1       2.715   5.771  -3.878  0.00  0.00    -0.219 OA
ENDBRANCH  15  22
ENDBRANCH  13  15
ENDBRANCH   1  13
TORSDOF 5
ENDMDL
MODEL 3
REMARK VINA RESULT:      -7.3      2.713      3.718
REMARK  Name = 
REMARK  5 active torsions:
REMARK  status: ('A' for Active; 'I' for Inactive)
REMARK    1  A    between atoms: C_6  and  O_7
REMARK    2  A    between atoms: O_7  and  C_8
REMARK    3  A    between atoms: C_8  and  C_10
REMARK    4  A    between atoms: C_10  and  C_11
REMARK    5  A    between atoms: C_10  and  C_13
REMARK                            x       y       z     vdW  Elec       q    Type
REMARK                         _______ _______ _______ _____ _____    ______ ____
ROOT
ATOM      1  O   UNL     1       1.757   5.778  -5.186  0.00  0.00    -0.452 OA
ENDROOT
BRANCH   1   9
ATOM      2  C   UNL     1       4.982   7.446  -3.578  0.00  0.00    +0.170 C 
ATOM      3  N   UNL     1       4.666   7.365  -3.535  0.00  0.00    +0.302 N 
ATOM      4  C   UNL     1       3.536   7.150  -4.699  0.00  0.00    +0.093 C 
ATOM      5  C   UNL     1       3.379   5.843  -3.707  0.00  0.00    +0.197 C 
ATOM      6  C   UNL     1       5.032   5.448  -4.203  0.00  0.00    +0.197 C 
ATOM      7  O   UNL     1       3.762   4.294  -4.369  0.00  0.00    -0.342 OA
ATOM      8  C   UNL     1       4.150   6.081  -5.677  0.00  0.00    +0.101 C 
ATOM      9  C   UNL     1       3.005   5.599  -4.784  0.00  0.00    +0.180 C 
ATOM     10  C   UNL     1       3.094   5.738  -3.203  0.00  0.00    +0.101 C 
ATOM     11  C   UNL     1       4.610   5.966  -2.679  0.00  0.00    +0.093 C 
ATOM     12  C   UNL     1       3.703   8.048  -2.628  0.00  0.00    +0.170 C 
ENDBRANCH   1   9
BRANCH   1  13
ATOM     13  C   UNL     1       1.394   5.013  -6.308  0.00  0.00    +0.323 C 
ATOM     14  O   UNL     1       0.978   3.895  -5.975  0.00  0.00    -0.250 OA
BRANCH  13  15
ATOM     15  C   UNL     1       0.346   6.165  -6.741  0.00  0.00    +0.154 C 
BRANCH  15  16
ATOM     16  C   UNL     1       0.759   6.119  -8.280  0.00  0.00    -0.009 A 
ATOM     17  C   UNL     1       1.809   6.996  -8.380  0.00  0.00    -0.004 A 
ATOM     18  C   UNL     1       2.805   6.712  -9.296  0.00  0.00    -0.000 A 
ATOM     19  C   UNL     1       2.412   5.984 -10.403  0.00  0.00    -0.000 A 
ATOM     20  C   UNL     1       1.141   5.398 -10.394  0.00  0.00    -0.000 A 
ATOM     21  C   UNL     1       0.429   5.268  -9.198  0.00  0.00    -0.004 A 
ENDBRANCH  15  16
BRANCH  15  22
ATOM     22  C   UNL     1      -0.901   5.115  -6.958  0.00  0.00    +0.198 C 
ATOM     23  O   UNL     1      -1.915   5.865  -6.445  0.00  0.00    -0.219 OA
ENDBRANCH  15  22
ENDBRANCH  13  15
ENDBRANCH   1  13
TORSDOF 5
ENDMDL
MODEL 4
REMARK VINA RESULT:      -7.3      2.836      5.802
REMARK  Name = 
REMARK  5 active torsions:
REMARK  status: ('A' for Active; 'I' for Inactive)
REMARK    1  A    between atoms: C_6  and  O_7
REMARK    2  A    between atoms: O_7  and  C_8
REMARK    3  A    between atoms: C_8  and  C_10
REMARK    4  A    between atoms: C_10  and  C_11
REMARK    5  A    between atoms: C_10  and  C_13
REMARK                            x       y       z     vdW  Elec       q    Type
REMARK                         _______ _______ _______ _____ _____    ______ ____
ROOT
ATOM      1  O   UNL     1       1.138   5.854  -6.161  0.00  0.00    -0.452 OA
ENDROOT
BRANCH   1   9
ATOM      2  C   UNL     1       2.876   5.404  -9.703  0.00  0.00    +0.170 C 
ATOM      3  N   UNL     1       2.596   5.387  -9.533  0.00  0.00    +0.302 N 
ATOM      4  C   UNL     1       2.430   5.140  -7.923  0.00  0.00    +0.093 C 
ATOM      5  C   UNL     1       1.450   6.423  -8.259  0.00  0.00    +0.197 C 
ATOM      6  C   UNL     1       2.941   7.255  -8.728  0.00  0.00    +0.197 C 
ATOM      7  O   UNL     1       1.872   7.946  -7.565  0.00  0.00    -0.342 OA
ATOM      8  C   UNL     1       3.313   6.251  -7.243  0.00  0.00    +0.101 C 
ATOM      9  C   UNL     1       1.798   6.441  -7.147  0.00  0.00    +0.180 C 
ATOM     10  C   UNL     1       0.899   6.481  -8.457  0.00  0.00    +0.101 C 
ATOM     11  C   UNL     1       1.761   6.775  -9.798  0.00  0.00    +0.093 C 
ATOM     12  C   UNL     1       1.422   4.529  -9.856  0.00  0.00    +0.170 C 
ENDBRANCH   1   9
BRANCH   1  13
ATOM     13  C   UNL     1       0.933   6.669  -5.035  0.00  0.00    +0.323 C 
ATOM     14  O   UNL     1      -0.229   7.095  -4.993  0.00  0.00    -0.250 OA
BRANCH  13  15
ATOM     15  C   UNL     1       1.373   5.441  -4.080  0.00  0.00    +0.154 C 
BRANCH  15  16
ATOM     16  C   UNL     1       2.747   6.124  -3.646  0.00  0.00    -0.009 A 
ATOM     17  C   UNL     1       3.664   5.105  -3.680  0.00  0.00    -0.004 A 
ATOM     18  C   UNL     1       4.962   5.413  -4.044  0.00  0.00    -0.000 A 
ATOM     19  C   UNL     1       5.376   6.699  -3.756  0.00  0.00    -0.000 A 
ATOM     20  C   UNL     1       4.413   7.633  -3.359  0.00  0.00    -0.000 A 
ATOM     21  C   UNL     1       3.054   7.380  -3.563  0.00  0.00    -0.004 A 
ENDBRANCH  15  16
BRANCH  15  22
ATOM     22  C   UNL     1       0.573   6.019  -2.766  0.00  0.00    +0.198 C 
ATOM     23  O   UNL     1       0.212   4.841  -2.188  0.00  0.00    -0.219 OA
ENDBRANCH  15  22
ENDBRANCH  13  15
ENDBRANCH   1  13
TORSDOF 5
ENDMDL
MODEL 5
REMARK VINA RESULT:      -7.2      5.493      6.839
REMARK  Name = 
REMARK  5 active torsions:
REMARK  status: ('A' for Active; 'I' for Inactive)
REMARK    1  A    between atoms: C_6  and  O_7
REMARK    2  A    between atoms: O_7  and  C_8
REMARK    3  A    between atoms: C_8  and  C_10
REMARK    4  A    between atoms: C_10  and  C_11
REMARK    5  A    between atoms: C_10  and  C_13
REMARK                            x       y       z     vdW  Elec       q    Type
REMARK                         _______ _______ _______ _____ _____    ______ ____
ROOT
ATOM      1  O   UNL     1       0.748   6.398  -1.910  0.00  0.00    -0.452 OA
ENDROOT
BRANCH   1   9
ATOM      2  C   UNL     1       4.605   7.342  -1.884  0.00  0.00    +0.170 C 
ATOM      3  N   UNL     1       4.306   7.413  -1.768  0.00  0.00    +0.302 N 
ATOM      4  C   UNL     1       2.868   7.083  -2.477  0.00  0.00    +0.093 C 
ATOM      5  C   UNL     1       2.696   6.584  -0.914  0.00  0.00    +0.197 C 
ATOM      6  C   UNL     1       3.986   5.431  -1.292  0.00  0.00    +0.197 C 
ATOM      7  O   UNL     1       2.483   4.893  -0.641  0.00  0.00    -0.342 OA
ATOM      8  C   UNL     1       2.892   5.535  -2.757  0.00  0.00    +0.101 C 
ATOM      9  C   UNL     1       1.977   6.001  -1.623  0.00  0.00    +0.180 C 
ATOM     10  C   UNL     1       2.554   6.849  -0.409  0.00  0.00    +0.101 C 
ATOM     11  C   UNL     1       4.166   6.738  -0.278  0.00  0.00    +0.093 C 
ATOM     12  C   UNL     1       3.845   8.746  -1.291  0.00  0.00    +0.170 C 
ENDBRANCH   1   9
BRANCH   1  13
ATOM     13  C   UNL     1      -0.102   5.373  -2.358  0.00  0.00    +0.323 C 
ATOM     14  O   UNL     1      -0.581   4.738  -1.408  0.00  0.00    -0.250 OA
BRANCH  13  15
ATOM     15  C   UNL     1      -1.006   6.472  -3.126  0.00  0.00    +0.154 C 
BRANCH  15  16
ATOM     16  C   UNL     1      -0.910   5.731  -4.534  0.00  0.00    -0.009 A 
ATOM     17  C   UNL     1      -2.192   5.747  -5.021  0.00  0.00    -0.004 A 
ATOM     18  C   UNL     1      -2.365   5.849  -6.388  0.00  0.00    -0.000 A 
ATOM     19  C   UNL     1      -1.345   5.328  -7.162  0.00  0.00    -0.000 A 
ATOM     20  C   UNL     1      -0.148   4.975  -6.530  0.00  0.00    -0.000 A 
ATOM     21  C   UNL     1       0.135   5.433  -5.240  0.00  0.00    -0.004 A 
ENDBRANCH  15  16
BRANCH  15  22
ATOM     22  C   UNL     1      -2.429   5.745  -2.744  0.00  0.00    +0.198 C 
ATOM     23  O   UNL     1      -2.992   6.735  -1.998  0.00  0.00    -0.219 OA
ENDBRANCH  15  22
ENDBRANCH  13  15
ENDBRANCH   1  13
TORSDOF 5
ENDMDL
MODEL 6
REMARK VINA RESULT:      -7.2      2.454      4.355
REMARK  Name = 
REMARK  5 active torsions:
REMARK  status: ('A' for Active; 'I' for Inactive)
REMARK    1  A    between atoms: C_6  and  O_7
REMARK    2  A    between atoms: O_7  and  C_8
REMARK    3  A    between atoms: C_8  and  C_10
REMARK    4  A    between atoms: C_10  and  C_11
REMARK    5  A    between atoms: C_10  and  C_13
REMARK                            x       y       z     vdW  Elec       q    Type
REMARK                         _______ _______ _______ _____ _____    ______ ____
ROOT
ATOM      1  O   UNL     1       0.835   6.433  -6.625  0.00  0.00    -0.452 OA
ENDROOT
BRANCH   1   9
ATOM      2  C   UNL     1      -1.828   7.273  -3.802  0.00  0.00    +0.170 C 
ATOM      3  N   UNL     1      -1.780   7.196  -4.118  0.00  0.00    +0.302 N 
ATOM      4  C   UNL     1      -0.431   7.462  -5.005  0.00  0.00    +0.093 C 
ATOM      5  C   UNL     1      -0.838   5.893  -5.310  0.00  0.00    +0.197 C 
ATOM      6  C   UNL     1      -0.546   5.632  -3.583  0.00  0.00    +0.197 C 
ATOM      7  O   UNL     1       0.255   4.671  -4.770  0.00  0.00    -0.342 OA
ATOM      8  C   UNL     1       0.736   6.790  -4.192  0.00  0.00    +0.101 C 
ATOM      9  C   UNL     1       0.303   6.069  -5.470  0.00  0.00    +0.180 C 
ATOM     10  C   UNL     1      -1.209   5.627  -5.681  0.00  0.00    +0.101 C 
ATOM     11  C   UNL     1      -2.048   5.587  -4.296  0.00  0.00    +0.093 C 
ATOM     12  C   UNL     1      -2.680   7.549  -5.251  0.00  0.00    +0.170 C 
ENDBRANCH   1   9
BRANCH   1  13
ATOM     13  C   UNL     1       1.809   5.550  -7.119  0.00  0.00    +0.323 C 
ATOM     14  O   UNL     1       1.430   5.000  -8.163  0.00  0.00    -0.250 OA
BRANCH  13  15
ATOM     15  C   UNL     1       2.866   6.771  -7.193  0.00  0.00    +0.154 C 
BRANCH  15  16
ATOM     16  C   UNL     1       3.783   6.195  -6.023  0.00  0.00    -0.009 A 
ATOM     17  C   UNL     1       4.240   7.308  -5.364  0.00  0.00    -0.004 A 
ATOM     18  C   UNL     1       4.442   7.215  -3.999  0.00  0.00    -0.000 A 
ATOM     19  C   UNL     1       4.762   5.958  -3.525  0.00  0.00    -0.000 A 
ATOM     20  C   UNL     1       4.620   4.866  -4.389  0.00  0.00    -0.000 A 
ATOM     21  C   UNL     1       3.876   4.987  -5.566  0.00  0.00    -0.004 A 
ENDBRANCH  15  16
BRANCH  15  22
ATOM     22  C   UNL     1       3.777   6.071  -8.367  0.00  0.00    +0.198 C 
ATOM     23  O   UNL     1       3.699   7.041  -9.319  0.00  0.00    -0.219 OA
ENDBRANCH  15  22
ENDBRANCH  13  15
ENDBRANCH   1  13
TORSDOF 5
ENDMDL
MODEL 7
REMARK VINA RESULT:      -7.2      3.596      5.466
REMARK  Name = 
REMARK  5 active torsions:
REMARK  status: ('A' for Active; 'I' for Inactive)
REMARK    1  A    between atoms: C_6  and  O_7
REMARK    2  A    between atoms: O_7  and  C_8
REMARK    3  A    between atoms: C_8  and  C_10
REMARK    4  A    between atoms: C_10  and  C_11
REMARK    5  A    between atoms: C_10  and  C_13
REMARK                            x       y       z     vdW  Elec       q    Type
REMARK                         _______ _______ _______ _____ _____    ______ ____
ROOT
ATOM      1  O   UNL     1      -0.193   6.956  -4.794  0.00  0.00    -0.452 OA
ENDROOT
BRANCH   1   9
ATOM      2  C   UNL     1      -1.933   6.123  -1.323  0.00  0.00    +0.170 C 
ATOM      3  N   UNL     1      -1.851   6.358  -1.538  0.00  0.00    +0.302 N 
ATOM      4  C   UNL     1      -0.633   6.317  -2.630  0.00  0.00    +0.093 C 
ATOM      5  C   UNL     1      -1.948   6.835  -3.480  0.00  0.00    +0.197 C 
ATOM      6  C   UNL     1      -2.643   5.254  -3.090  0.00  0.00    +0.197 C 
ATOM      7  O   UNL     1      -2.547   5.798  -4.723  0.00  0.00    -0.342 OA
ATOM      8  C   UNL     1      -0.867   5.001  -3.459  0.00  0.00    +0.101 C 
ATOM      9  C   UNL     1      -1.174   6.315  -4.180  0.00  0.00    +0.180 C 
ATOM     10  C   UNL     1      -2.205   7.357  -3.565  0.00  0.00    +0.101 C 
ATOM     11  C   UNL     1      -3.175   6.694  -2.449  0.00  0.00    +0.093 C 
ATOM     12  C   UNL     1      -1.612   7.793  -1.220  0.00  0.00    +0.170 C 
ENDBRANCH   1   9
BRANCH   1  13
ATOM     13  C   UNL     1       0.482   6.192  -5.761  0.00  0.00    +0.323 C 
ATOM     14  O   UNL     1      -0.240   5.970  -6.744  0.00  0.00    -0.250 OA
BRANCH  13  15
ATOM     15  C   UNL     1       1.627   7.331  -5.846  0.00  0.00    +0.154 C 
BRANCH  15  16
ATOM     16  C   UNL     1       2.796   6.347  -5.392  0.00  0.00    -0.009 A 
ATOM     17  C   UNL     1       3.881   7.164  -5.203  0.00  0.00    -0.004 A 
ATOM     18  C   UNL     1       4.780   6.828  -4.209  0.00  0.00    -0.000 A 
ATOM     19  C   UNL     1       4.880   5.480  -3.921  0.00  0.00    -0.000 A 
ATOM     20  C   UNL     1       3.922   4.615  -4.461  0.00  0.00    -0.000 A 
ATOM     21  C   UNL     1       2.730   5.117  -4.989  0.00  0.00    -0.004 A 
ENDBRANCH  15  16
BRANCH  15  22
ATOM     22  C   UNL     1       1.923   7.082  -7.444  0.00  0.00    +0.198 C 
ATOM     23  O   UNL     1       2.082   8.374  -7.844  0.00  0.00    -0.219 OA
ENDBRANCH  15  22
ENDBRANCH  13  15
ENDBRANCH   1  13
TORSDOF 5
ENDMDL
MODEL 8
REMARK VINA RESULT:      -7.2      2.917      6.002
REMARK  Name = 
REMARK  5 active torsions:
REMARK  status: ('A' for Active; 'I' for Inactive)
REMARK    1  A    between atoms: C_6  and  O_7
REMARK    2  A    between atoms: O_7  and  C_8
REMARK    3  A    between atoms: C_8  and  C_10
REMARK    4  A    between atoms: C_10  and  C_11
REMARK    5  A    between atoms: C_10  and  C_13
REMARK                            x       y       z     vdW  Elec       q    Type
REMARK                         _______ _______ _______ _____ _____    ______ ____
ROOT
ATOM      1  O   UNL     1       3.873   6.713  -9.085  0.00  0.00    -0.452 OA
ENDROOT
BRANCH   1   9
ATOM      2  C   UNL     1       6.506   7.189 -12.019  0.00  0.00    +0.170 C 
ATOM      3  N   UNL     1       6.459   7.170 -11.694  0.00  0.00    +0.302 N 
ATOM      4  C   UNL     1       5.085   7.505 -10.870  0.00  0.00    +0.093 C 
ATOM      5  C   UNL     1       5.593   6.052 -10.278  0.00  0.00    +0.197 C 
ATOM      6  C   UNL     1       5.339   5.454 -11.925  0.00  0.00    +0.197 C 
ATOM      7  O   UNL     1       4.591   4.678 -10.579  0.00  0.00    -0.342 OA
ATOM      8  C   UNL     1       3.975   6.614 -11.543  0.00  0.00    +0.101 C 
ATOM      9  C   UNL     1       4.441   6.176 -10.153  0.00  0.00    +0.180 C 
ATOM     10  C   UNL     1       5.977   5.885  -9.865  0.00  0.00    +0.101 C 
ATOM     11  C   UNL     1       6.833   5.644 -11.219  0.00  0.00    +0.093 C 
ATOM     12  C   UNL     1       7.320   7.789 -10.648  0.00  0.00    +0.170 C 
ENDBRANCH   1   9
BRANCH   1  13
ATOM     13  C   UNL     1       3.098   5.817  -8.329  0.00  0.00    +0.323 C 
ATOM     14  O   UNL     1       3.640   5.558  -7.245  0.00  0.00    -0.250 OA
BRANCH  13  15
ATOM     15  C   UNL     1       1.862   6.858  -8.380  0.00  0.00    +0.154 C 
BRANCH  15  16
ATOM     16  C   UNL     1       1.026   5.987  -9.421  0.00  0.00    -0.009 A 
ATOM     17  C   UNL     1       0.462   6.907 -10.267  0.00  0.00    -0.004 A 
ATOM     18  C   UNL     1       0.289   6.549 -11.591  0.00  0.00    -0.000 A 
ATOM     19  C   UNL     1       0.110   5.200 -11.829  0.00  0.00    -0.000 A 
ATOM     20  C   UNL     1       0.356   4.304 -10.783  0.00  0.00    -0.000 A 
ATOM     21  C   UNL     1       1.068   4.713  -9.652  0.00  0.00    -0.004 A 
ENDBRANCH  15  16
BRANCH  15  22
ATOM     22  C   UNL     1       1.097   6.199  -7.084  0.00  0.00    +0.198 C 
ATOM     23  O   UNL     1       0.997   7.305  -6.297  0.00  0.00    -0.219 OA
ENDBRANCH  15  22
ENDBRANCH  13  15
ENDBRANCH   1  13
TORSDOF 5
ENDMDL
MODEL 9
REMARK VINA RESULT:      -7.2      2.551      6.469
REMARK  Name = 
REMARK  5 active torsions:
REMARK  status: ('A' for Active; 'I' for Inactive)
REMARK    1  A    between atoms: C_6  and  O_7
REMARK    2  A    between atoms: O_7  and  C_8
REMARK    3  A    between atoms: C_8  and  C_10
REMARK    4  A    between atoms: C_10  and  C_11
REMARK    5  A    between atoms: C_10  and  C_13
REMARK                            x       y       z     vdW  Elec       q    Type
REMARK                         _______ _______ _______ _____ _____    ______ ____
ROOT
ATOM      1  O   UNL     1       3.737   6.500  -8.529  0.00  0.00    -0.452 OA
ENDROOT
BRANCH   1   9
ATOM      2  C   UNL     1       5.748   7.095 -11.901  0.00  0.00    +0.170 C 
ATOM      3  N   UNL     1       5.765   7.071 -11.574  0.00  0.00    +0.302 N 
ATOM      4  C   UNL     1       4.562   7.350 -10.500  0.00  0.00    +0.093 C 
ATOM      5  C   UNL     1       5.221   5.911 -10.037  0.00  0.00    +0.197 C 
ATOM      6  C   UNL     1       4.678   5.319 -11.615  0.00  0.00    +0.197 C 
ATOM      7  O   UNL     1       4.225   4.505 -10.163  0.00  0.00    -0.342 OA
ATOM      8  C   UNL     1       3.374   6.427 -10.963  0.00  0.00    +0.101 C 
ATOM      9  C   UNL     1       4.110   5.993  -9.693  0.00  0.00    +0.180 C 
ATOM     10  C   UNL     1       5.681   5.754  -9.706  0.00  0.00    +0.101 C 
ATOM     11  C   UNL     1       6.272   5.555 -11.202  0.00  0.00    +0.093 C 
ATOM     12  C   UNL     1       6.788   7.710 -10.701  0.00  0.00    +0.170 C 
ENDBRANCH   1   9
BRANCH   1  13
ATOM     13  C   UNL     1       2.888   5.669  -7.780  0.00  0.00    +0.323 C 
ATOM     14  O   UNL     1       3.535   4.846  -7.116  0.00  0.00    -0.250 OA
BRANCH  13  15
ATOM     15  C   UNL     1       2.265   6.973  -7.057  0.00  0.00    +0.154 C 
BRANCH  15  16
ATOM     16  C   UNL     1       0.874   6.265  -6.729  0.00  0.00    -0.009 A 
ATOM     17  C   UNL     1       0.499   6.786  -5.518  0.00  0.00    -0.004 A 
ATOM     18  C   UNL     1      -0.851   6.959  -5.277  0.00  0.00    -0.000 A 
ATOM     19  C   UNL     1      -1.694   6.087  -5.938  0.00  0.00    -0.000 A 
ATOM     20  C   UNL     1      -1.158   5.288  -6.954  0.00  0.00    -0.000 A 
ATOM     21  C   UNL     1       0.090   5.588  -7.506  0.00  0.00    -0.004 A 
ENDBRANCH  15  16
BRANCH  15  22
ATOM     22  C   UNL     1       2.896   6.605  -5.584  0.00  0.00    +0.198 C 
ATOM     23  O   UNL     1       3.794   7.621  -5.466  0.00  0.00    -0.219 OA
ENDBRANCH  15  22
ENDBRANCH  13  15
ENDBRANCH   1  13
TORSDOF 5
ENDMDL
