MODEL 1
REMARK VINA RESULT:      -2.8      0.000      0.000
REMARK  Name = 
REMARK  0 active torsions:
REMARK  status: ('A' for Active; 'I' for Inactive)
REMARK                            x       y       z     vdW  Elec       q    Type
REMARK                         _______ _______ _______ _____ _____    ______ ____
ROOT
ATOM      1  C   UNL     1       9.204   5.856 -12.198  0.00  0.00    +0.035 C 
ATOM      2  C   UNL     1       7.763   5.402 -12.042  0.00  0.00    +0.152 C 
ATOM      3  O   UNL     1       7.435   4.683 -13.182  0.00  0.00    -0.223 OA
ATOM      4  C   UNL     1       6.877   6.609 -11.858  0.00  0.00    +0.035 C 
ENDROOT
TORSDOF 0
ENDMDL
MODEL 2
REMARK VINA RESULT:      -2.8      0.526      1.821
REMARK  Name = 
REMARK  0 active torsions:
REMARK  status: ('A' for Active; 'I' for Inactive)
REMARK                            x       y       z     vdW  Elec       q    Type
REMARK                         _______ _______ _______ _____ _____    ______ ____
ROOT
ATOM      1  C   UNL     1       6.997   6.660 -12.012  0.00  0.00    +0.035 C 
ATOM      2  C   UNL     1       8.001   5.926 -12.883  0.00  0.00    +0.152 C 
ATOM      3  O   UNL     1       7.491   4.657 -13.113  0.00  0.00    -0.223 OA
ATOM      4  C   UNL     1       9.334   5.883 -12.179  0.00  0.00    +0.035 C 
ENDROOT
TORSDOF 0
ENDMDL
MODEL 3
REMARK VINA RESULT:      -2.8     13.473     14.212
REMARK  Name = 
REMARK  0 active torsions:
REMARK  status: ('A' for Active; 'I' for Inactive)
REMARK                            x       y       z     vdW  Elec       q    Type
REMARK                         _______ _______ _______ _____ _____    ______ ____
ROOT
ATOM      1  C   UNL     1      -3.725   6.595  -2.641  0.00  0.00    +0.035 C 
ATOM      2  C   UNL     1      -3.188   5.351  -3.327  0.00  0.00    +0.152 C 
ATOM      3  O   UNL     1      -2.391   4.688  -2.406  0.00  0.00    -0.223 OA
ATOM      4  C   UNL     1      -2.418   5.754  -4.559  0.00  0.00    +0.035 C 
ENDROOT
TORSDOF 0
ENDMDL
MODEL 4
REMARK VINA RESULT:      -2.4     13.224     13.834
REMARK  Name = 
REMARK  0 active torsions:
REMARK  status: ('A' for Active; 'I' for Inactive)
REMARK                            x       y       z     vdW  Elec       q    Type
REMARK                         _______ _______ _______ _____ _____    ______ ____
ROOT
ATOM      1  C   UNL     1      -0.971   5.696  -3.508  0.00  0.00    +0.035 C 
ATOM      2  C   UNL     1      -2.050   5.610  -2.443  0.00  0.00    +0.152 C 
ATOM      3  O   UNL     1      -2.907   4.584  -2.812  0.00  0.00    -0.223 OA
ATOM      4  C   UNL     1      -2.762   6.936  -2.347  0.00  0.00    +0.035 C 
ENDROOT
TORSDOF 0
ENDMDL
MODEL 5
REMARK VINA RESULT:      -2.4     12.011     12.385
REMARK  Name = 
REMARK  0 active torsions:
REMARK  status: ('A' for Active; 'I' for Inactive)
REMARK                            x       y       z     vdW  Elec       q    Type
REMARK                         _______ _______ _______ _____ _____    ______ ____
ROOT
ATOM      1  C   UNL     1      -2.113   7.659  -4.702  0.00  0.00    +0.035 C 
ATOM      2  C   UNL     1      -2.291   6.158  -4.848  0.00  0.00    +0.152 C 
ATOM      3  O   UNL     1      -1.207   5.556  -4.227  0.00  0.00    -0.223 OA
ATOM      4  C   UNL     1      -2.374   5.805  -6.312  0.00  0.00    +0.035 C 
ENDROOT
TORSDOF 0
ENDMDL
MODEL 6
REMARK VINA RESULT:      -2.2     10.173     10.559
REMARK  Name = 
REMARK  0 active torsions:
REMARK  status: ('A' for Active; 'I' for Inactive)
REMARK                            x       y       z     vdW  Elec       q    Type
REMARK                         _______ _______ _______ _____ _____    ______ ____
ROOT
ATOM      1  C   UNL     1      -0.085   5.277  -5.631  0.00  0.00    +0.035 C 
ATOM      2  C   UNL     1      -1.122   5.096  -6.726  0.00  0.00    +0.152 C 
ATOM      3  O   UNL     1      -0.558   5.563  -7.904  0.00  0.00    -0.223 OA
ATOM      4  C   UNL     1      -2.374   5.852  -6.357  0.00  0.00    +0.035 C 
ENDROOT
TORSDOF 0
ENDMDL
MODEL 7
REMARK VINA RESULT:      -2.2      8.035      8.423
REMARK  Name = 
REMARK  0 active torsions:
REMARK  status: ('A' for Active; 'I' for Inactive)
REMARK                            x       y       z     vdW  Elec       q    Type
REMARK                         _______ _______ _______ _____ _____    ______ ____
ROOT
ATOM      1  C   UNL     1       5.203   7.704  -4.074  0.00  0.00    +0.035 C 
ATOM      2  C   UNL     1       4.672   6.785  -5.161  0.00  0.00    +0.152 C 
ATOM      3  O   UNL     1       3.534   7.383  -5.681  0.00  0.00    -0.223 OA
ATOM      4  C   UNL     1       4.380   5.429  -4.568  0.00  0.00    +0.035 C 
ENDROOT
TORSDOF 0
ENDMDL
MODEL 8
REMARK VINA RESULT:      -2.2     12.247     12.508
REMARK  Name = 
REMARK  0 active torsions:
REMARK  status: ('A' for Active; 'I' for Inactive)
REMARK                            x       y       z     vdW  Elec       q    Type
REMARK                         _______ _______ _______ _____ _____    ______ ____
ROOT
ATOM      1  C   UNL     1      -2.675   5.845  -3.969  0.00  0.00    +0.035 C 
ATOM      2  C   UNL     1      -2.345   6.782  -5.117  0.00  0.00    +0.152 C 
ATOM      3  O   UNL     1      -1.374   6.160  -5.887  0.00  0.00    -0.223 OA
ATOM      4  C   UNL     1      -1.870   8.102  -4.563  0.00  0.00    +0.035 C 
ENDROOT
TORSDOF 0
ENDMDL
MODEL 9
REMARK VINA RESULT:      -2.2     13.205     13.642
REMARK  Name = 
REMARK  0 active torsions:
REMARK  status: ('A' for Active; 'I' for Inactive)
REMARK                            x       y       z     vdW  Elec       q    Type
REMARK                         _______ _______ _______ _____ _____    ______ ____
ROOT
ATOM      1  C   UNL     1      -3.036   5.435  -3.462  0.00  0.00    +0.035 C 
ATOM      2  C   UNL     1      -2.137   6.634  -3.708  0.00  0.00    +0.152 C 
ATOM      3  O   UNL     1      -2.319   7.505  -2.645  0.00  0.00    -0.223 OA
ATOM      4  C   UNL     1      -2.500   7.266  -5.028  0.00  0.00    +0.035 C 
ENDROOT
TORSDOF 0
ENDMDL
