MODEL 1
REMARK VINA RESULT:     -10.2      0.000      0.000
REMARK  Name = 
REMARK  1 active torsions:
REMARK  status: ('A' for Active; 'I' for Inactive)
REMARK    1  A    between atoms: C_20  and  C_21
REMARK                            x       y       z     vdW  Elec       q    Type
REMARK                         _______ _______ _______ _____ _____    ______ ____
ROOT
ATOM      1  C   UNL     1       3.018   4.382  -7.796  0.00  0.00    +0.004 C 
ATOM      2  C   UNL     1       2.988   5.825  -8.157  0.00  0.00    +0.019 C 
ATOM      3  C   UNL     1       3.568   5.940  -9.487  0.00  0.00    -0.026 C 
ATOM      4  C   UNL     1       2.867   5.041 -10.185  0.00  0.00    -0.030 C 
ATOM      5  C   UNL     1       1.529   4.799  -9.550  0.00  0.00    +0.026 C 
ATOM      6  C   UNL     1       1.492   6.168  -8.684  0.00  0.00    +0.008 C 
ATOM      7  C   UNL     1       0.854   5.507  -7.271  0.00  0.00    +0.005 C 
ATOM      8  C   UNL     1      -0.639   5.484  -7.854  0.00  0.00    +0.025 C 
ATOM      9  C   UNL     1      -1.391   5.224  -6.581  0.00  0.00    -0.035 C 
ATOM     10  C   UNL     1      -0.817   5.465  -5.394  0.00  0.00    -0.047 C 
ATOM     11  C   UNL     1       0.103   6.594  -5.207  0.00  0.00    +0.015 C 
ATOM     12  C   UNL     1       1.134   6.344  -4.209  0.00  0.00    +0.004 C 
ATOM     13  C   UNL     1      -0.654   7.863  -4.825  0.00  0.00    +0.006 C 
ATOM     14  C   UNL     1      -1.738   7.641  -3.829  0.00  0.00    +0.034 C 
ATOM     15  C   UNL     1      -2.749   6.584  -4.596  0.00  0.00    +0.156 C 
ATOM     16  O   UNL     1      -3.580   6.390  -3.339  0.00  0.00    -0.223 OA
ATOM     17  C   UNL     1      -1.763   5.308  -4.227  0.00  0.00    +0.055 C 
ATOM     18  C   UNL     1       0.684   7.063  -6.641  0.00  0.00    +0.004 C 
ATOM     19  C   UNL     1       2.225   7.159  -6.150  0.00  0.00    +0.001 C 
ATOM     20  C   UNL     1       3.184   6.819  -7.156  0.00  0.00    +0.004 C 
ENDROOT
BRANCH   3  21
ATOM     21  C   UNL     1       4.921   6.433  -9.737  0.00  0.00    +0.015 A 
ATOM     22  C   UNL     1       5.995   5.635  -9.441  0.00  0.00    +0.099 A 
ATOM     23  N   UNL     1       7.239   5.827  -9.928  0.00  0.00    -0.242 NA
ATOM     24  C   UNL     1       7.441   6.985 -10.596  0.00  0.00    +0.099 A 
ATOM     25  C   UNL     1       6.375   7.696 -11.132  0.00  0.00    +0.021 A 
ATOM     26  C   UNL     1       5.085   7.282 -10.824  0.00  0.00    +0.003 A 
ENDBRANCH   3  21
TORSDOF 1
ENDMDL
MODEL 2
REMARK VINA RESULT:     -10.0      3.066      4.644
REMARK  Name = 
REMARK  1 active torsions:
REMARK  status: ('A' for Active; 'I' for Inactive)
REMARK    1  A    between atoms: C_20  and  C_21
REMARK                            x       y       z     vdW  Elec       q    Type
REMARK                         _______ _______ _______ _____ _____    ______ ____
ROOT
ATOM      1  C   UNL     1       1.784   4.290  -7.158  0.00  0.00    +0.004 C 
ATOM      2  C   UNL     1       1.766   5.766  -7.346  0.00  0.00    +0.019 C 
ATOM      3  C   UNL     1       0.752   6.051  -8.351  0.00  0.00    -0.026 C 
ATOM      4  C   UNL     1      -0.316   5.404  -7.874  0.00  0.00    -0.030 C 
ATOM      5  C   UNL     1      -0.213   5.229  -6.387  0.00  0.00    +0.026 C 
ATOM      6  C   UNL     1       0.879   6.402  -6.145  0.00  0.00    +0.008 C 
ATOM      7  C   UNL     1       1.828   5.578  -5.022  0.00  0.00    +0.005 C 
ATOM      8  C   UNL     1       0.809   5.869  -3.819  0.00  0.00    +0.025 C 
ATOM      9  C   UNL     1       1.682   5.476  -2.662  0.00  0.00    -0.035 C 
ATOM     10  C   UNL     1       3.013   5.409  -2.812  0.00  0.00    -0.047 C 
ATOM     11  C   UNL     1       3.731   6.346  -3.683  0.00  0.00    +0.015 C 
ATOM     12  C   UNL     1       4.923   5.774  -4.294  0.00  0.00    +0.004 C 
ATOM     13  C   UNL     1       4.126   7.610  -2.925  0.00  0.00    +0.006 C 
ATOM     14  C   UNL     1       4.646   7.353  -1.554  0.00  0.00    +0.034 C 
ATOM     15  C   UNL     1       3.381   6.607  -0.800  0.00  0.00    +0.156 C 
ATOM     16  O   UNL     1       4.228   6.294   0.421  0.00  0.00    -0.223 OA
ATOM     17  C   UNL     1       3.749   5.163  -1.517  0.00  0.00    +0.055 C 
ATOM     18  C   UNL     1       2.702   6.995  -4.748  0.00  0.00    +0.004 C 
ATOM     19  C   UNL     1       3.667   6.786  -6.031  0.00  0.00    +0.001 C 
ATOM     20  C   UNL     1       2.972   6.515  -7.252  0.00  0.00    +0.004 C 
ENDROOT
BRANCH   3  21
ATOM     21  C   UNL     1       1.064   6.394  -9.737  0.00  0.00    +0.015 A 
ATOM     22  C   UNL     1       2.091   5.749 -10.377  0.00  0.00    +0.099 A 
ATOM     23  N   UNL     1       2.254   5.727 -11.716  0.00  0.00    -0.242 NA
ATOM     24  C   UNL     1       1.446   6.546 -12.425  0.00  0.00    +0.099 A 
ATOM     25  C   UNL     1       0.257   7.019 -11.884  0.00  0.00    +0.021 A 
ATOM     26  C   UNL     1      -0.003   6.771 -10.542  0.00  0.00    +0.003 A 
ENDBRANCH   3  21
TORSDOF 1
ENDMDL
MODEL 3
REMARK VINA RESULT:      -9.9      1.893      2.652
REMARK  Name = 
REMARK  1 active torsions:
REMARK  status: ('A' for Active; 'I' for Inactive)
REMARK    1  A    between atoms: C_20  and  C_21
REMARK                            x       y       z     vdW  Elec       q    Type
REMARK                         _______ _______ _______ _____ _____    ______ ____
ROOT
ATOM      1  C   UNL     1       3.470   4.314  -9.434  0.00  0.00    +0.004 C 
ATOM      2  C   UNL     1       4.358   5.468  -9.126  0.00  0.00    +0.019 C 
ATOM      3  C   UNL     1       4.792   6.018 -10.401  0.00  0.00    -0.026 C 
ATOM      4  C   UNL     1       3.635   6.193 -11.048  0.00  0.00    -0.030 C 
ATOM      5  C   UNL     1       2.499   6.342 -10.078  0.00  0.00    +0.026 C 
ATOM      6  C   UNL     1       3.410   6.743  -8.799  0.00  0.00    +0.008 C 
ATOM      7  C   UNL     1       2.583   5.821  -7.654  0.00  0.00    +0.005 C 
ATOM      8  C   UNL     1       1.397   6.892  -7.523  0.00  0.00    +0.025 C 
ATOM      9  C   UNL     1       0.735   6.367  -6.282  0.00  0.00    -0.035 C 
ATOM     10  C   UNL     1       1.400   5.549  -5.454  0.00  0.00    -0.047 C 
ATOM     11  C   UNL     1       2.840   5.707  -5.220  0.00  0.00    +0.015 C 
ATOM     12  C   UNL     1       3.524   4.453  -4.935  0.00  0.00    +0.004 C 
ATOM     13  C   UNL     1       3.109   6.684  -4.079  0.00  0.00    +0.006 C 
ATOM     14  C   UNL     1       2.201   6.511  -2.911  0.00  0.00    +0.034 C 
ATOM     15  C   UNL     1       0.703   6.778  -3.550  0.00  0.00    +0.156 C 
ATOM     16  O   UNL     1       0.022   6.345  -2.263  0.00  0.00    -0.223 OA
ATOM     17  C   UNL     1       0.651   5.249  -4.178  0.00  0.00    +0.055 C 
ATOM     18  C   UNL     1       3.499   6.546  -6.436  0.00  0.00    +0.004 C 
ATOM     19  C   UNL     1       4.762   5.552  -6.633  0.00  0.00    +0.001 C 
ATOM     20  C   UNL     1       5.210   5.432  -7.986  0.00  0.00    +0.004 C 
ENDROOT
BRANCH   3  21
ATOM     21  C   UNL     1       6.124   5.802 -10.962  0.00  0.00    +0.015 A 
ATOM     22  C   UNL     1       6.259   5.091 -12.127  0.00  0.00    +0.099 A 
ATOM     23  N   UNL     1       7.361   5.114 -12.905  0.00  0.00    -0.242 NA
ATOM     24  C   UNL     1       8.441   5.740 -12.385  0.00  0.00    +0.099 A 
ATOM     25  C   UNL     1       8.304   6.666 -11.358  0.00  0.00    +0.021 A 
ATOM     26  C   UNL     1       7.057   6.812 -10.763  0.00  0.00    +0.003 A 
ENDBRANCH   3  21
TORSDOF 1
ENDMDL
MODEL 4
REMARK VINA RESULT:      -9.7      4.105      6.746
REMARK  Name = 
REMARK  1 active torsions:
REMARK  status: ('A' for Active; 'I' for Inactive)
REMARK    1  A    between atoms: C_20  and  C_21
REMARK                            x       y       z     vdW  Elec       q    Type
REMARK                         _______ _______ _______ _____ _____    ______ ____
ROOT
ATOM      1  C   UNL     1       3.252   4.002  -8.649  0.00  0.00    +0.004 C 
ATOM      2  C   UNL     1       3.072   5.438  -8.303  0.00  0.00    +0.019 C 
ATOM      3  C   UNL     1       4.033   5.743  -7.254  0.00  0.00    -0.026 C 
ATOM      4  C   UNL     1       5.181   5.299  -7.777  0.00  0.00    -0.030 C 
ATOM      5  C   UNL     1       5.109   5.277  -9.276  0.00  0.00    +0.026 C 
ATOM      6  C   UNL     1       3.871   6.314  -9.410  0.00  0.00    +0.008 C 
ATOM      7  C   UNL     1       3.046   5.499 -10.634  0.00  0.00    +0.005 C 
ATOM      8  C   UNL     1       4.023   6.053 -11.778  0.00  0.00    +0.025 C 
ATOM      9  C   UNL     1       3.215   5.677 -12.987  0.00  0.00    -0.035 C 
ATOM     10  C   UNL     1       1.905   5.417 -12.872  0.00  0.00    -0.047 C 
ATOM     11  C   UNL     1       1.063   6.149 -11.919  0.00  0.00    +0.015 C 
ATOM     12  C   UNL     1      -0.045   5.361 -11.396  0.00  0.00    +0.004 C 
ATOM     13  C   UNL     1       0.506   7.426 -12.543  0.00  0.00    +0.006 C 
ATOM     14  C   UNL     1       0.031   7.254 -13.944  0.00  0.00    +0.034 C 
ATOM     15  C   UNL     1       1.389   6.770 -14.749  0.00  0.00    +0.156 C 
ATOM     16  O   UNL     1       0.596   6.483 -16.013  0.00  0.00    -0.223 OA
ATOM     17  C   UNL     1       1.214   5.220 -14.200  0.00  0.00    +0.055 C 
ATOM     18  C   UNL     1       1.991   6.809 -10.770  0.00  0.00    +0.004 C 
ATOM     19  C   UNL     1       1.057   6.334  -9.536  0.00  0.00    +0.001 C 
ATOM     20  C   UNL     1       1.776   6.026  -8.338  0.00  0.00    +0.004 C 
ENDROOT
BRANCH   3  21
ATOM     21  C   UNL     1       3.671   5.887  -5.844  0.00  0.00    +0.015 A 
ATOM     22  C   UNL     1       3.882   4.842  -4.983  0.00  0.00    +0.099 A 
ATOM     23  N   UNL     1       3.911   4.962  -3.639  0.00  0.00    -0.242 NA
ATOM     24  C   UNL     1       3.528   6.159  -3.143  0.00  0.00    +0.099 A 
ATOM     25  C   UNL     1       3.544   7.300  -3.936  0.00  0.00    +0.021 A 
ATOM     26  C   UNL     1       3.801   7.156  -5.294  0.00  0.00    +0.003 A 
ENDBRANCH   3  21
TORSDOF 1
ENDMDL
MODEL 5
REMARK VINA RESULT:      -9.6      3.771      7.880
REMARK  Name = 
REMARK  1 active torsions:
REMARK  status: ('A' for Active; 'I' for Inactive)
REMARK    1  A    between atoms: C_20  and  C_21
REMARK                            x       y       z     vdW  Elec       q    Type
REMARK                         _______ _______ _______ _____ _____    ______ ____
ROOT
ATOM      1  C   UNL     1       2.027   4.252  -7.821  0.00  0.00    +0.004 C 
ATOM      2  C   UNL     1       1.942   5.720  -7.596  0.00  0.00    +0.019 C 
ATOM      3  C   UNL     1       1.345   5.912  -6.282  0.00  0.00    -0.026 C 
ATOM      4  C   UNL     1       2.110   5.140  -5.503  0.00  0.00    -0.030 C 
ATOM      5  C   UNL     1       3.467   4.946  -6.114  0.00  0.00    +0.026 C 
ATOM      6  C   UNL     1       3.402   6.227  -7.103  0.00  0.00    +0.008 C 
ATOM      7  C   UNL     1       4.100   5.490  -8.450  0.00  0.00    +0.005 C 
ATOM      8  C   UNL     1       5.586   5.639  -7.867  0.00  0.00    +0.025 C 
ATOM      9  C   UNL     1       6.366   5.322  -9.111  0.00  0.00    -0.035 C 
ATOM     10  C   UNL     1       5.782   5.406 -10.315  0.00  0.00    -0.047 C 
ATOM     11  C   UNL     1       4.778   6.436 -10.606  0.00  0.00    +0.015 C 
ATOM     12  C   UNL     1       3.777   6.014 -11.575  0.00  0.00    +0.004 C 
ATOM     13  C   UNL     1       5.435   7.720 -11.105  0.00  0.00    +0.006 C 
ATOM     14  C   UNL     1       6.541   7.493 -12.076  0.00  0.00    +0.034 C 
ATOM     15  C   UNL     1       7.626   6.595 -11.215  0.00  0.00    +0.156 C 
ATOM     16  O   UNL     1       8.479   6.352 -12.448  0.00  0.00    -0.223 OA
ATOM     17  C   UNL     1       6.746   5.217 -11.462  0.00  0.00    +0.055 C 
ATOM     18  C   UNL     1       4.151   6.989  -9.222  0.00  0.00    +0.004 C 
ATOM     19  C   UNL     1       2.612   6.917  -9.718  0.00  0.00    +0.001 C 
ATOM     20  C   UNL     1       1.675   6.597  -8.685  0.00  0.00    +0.004 C 
ENDROOT
BRANCH   3  21
ATOM     21  C   UNL     1      -0.044   6.317  -6.079  0.00  0.00    +0.015 A 
ATOM     22  C   UNL     1      -1.054   5.442  -6.382  0.00  0.00    +0.099 A 
ATOM     23  N   UNL     1      -2.321   5.561  -5.932  0.00  0.00    -0.242 NA
ATOM     24  C   UNL     1      -2.618   6.717  -5.298  0.00  0.00    +0.099 A 
ATOM     25  C   UNL     1      -1.617   7.511  -4.753  0.00  0.00    +0.021 A 
ATOM     26  C   UNL     1      -0.294   7.179  -5.018  0.00  0.00    +0.003 A 
ENDBRANCH   3  21
TORSDOF 1
ENDMDL
MODEL 6
REMARK VINA RESULT:      -9.6      2.355      3.345
REMARK  Name = 
REMARK  1 active torsions:
REMARK  status: ('A' for Active; 'I' for Inactive)
REMARK    1  A    between atoms: C_20  and  C_21
REMARK                            x       y       z     vdW  Elec       q    Type
REMARK                         _______ _______ _______ _____ _____    ______ ____
ROOT
ATOM      1  C   UNL     1       2.707   4.667  -8.258  0.00  0.00    +0.004 C 
ATOM      2  C   UNL     1       3.631   5.832  -8.206  0.00  0.00    +0.019 C 
ATOM      3  C   UNL     1       3.578   6.471  -9.513  0.00  0.00    -0.026 C 
ATOM      4  C   UNL     1       2.265   6.642  -9.697  0.00  0.00    -0.030 C 
ATOM      5  C   UNL     1       1.545   6.693  -8.381  0.00  0.00    +0.026 C 
ATOM      6  C   UNL     1       2.844   7.052  -7.481  0.00  0.00    +0.008 C 
ATOM      7  C   UNL     1       2.489   6.036  -6.183  0.00  0.00    +0.005 C 
ATOM      8  C   UNL     1       1.412   7.054  -5.571  0.00  0.00    +0.025 C 
ATOM      9  C   UNL     1       1.238   6.434  -4.214  0.00  0.00    -0.035 C 
ATOM     10  C   UNL     1       2.165   5.595  -3.731  0.00  0.00    -0.047 C 
ATOM     11  C   UNL     1       3.592   5.791  -4.010  0.00  0.00    +0.015 C 
ATOM     12  C   UNL     1       4.349   4.548  -4.069  0.00  0.00    +0.004 C 
ATOM     13  C   UNL     1       4.235   6.709  -2.973  0.00  0.00    +0.006 C 
ATOM     14  C   UNL     1       3.802   6.435  -1.575  0.00  0.00    +0.034 C 
ATOM     15  C   UNL     1       2.171   6.686  -1.626  0.00  0.00    +0.156 C 
ATOM     16  O   UNL     1       1.995   6.155  -0.213  0.00  0.00    -0.223 OA
ATOM     17  C   UNL     1       1.920   5.195  -2.295  0.00  0.00    +0.055 C 
ATOM     18  C   UNL     1       3.766   6.721  -5.321  0.00  0.00    +0.004 C 
ATOM     19  C   UNL     1       4.891   5.786  -6.016  0.00  0.00    +0.001 C 
ATOM     20  C   UNL     1       4.832   5.761  -7.445  0.00  0.00    +0.004 C 
ENDROOT
BRANCH   3  21
ATOM     21  C   UNL     1       4.629   6.336 -10.521  0.00  0.00    +0.015 A 
ATOM     22  C   UNL     1       4.456   5.461 -11.561  0.00  0.00    +0.099 A 
ATOM     23  N   UNL     1       5.173   5.492 -12.705  0.00  0.00    -0.242 NA
ATOM     24  C   UNL     1       6.232   6.331 -12.716  0.00  0.00    +0.099 A 
ATOM     25  C   UNL     1       6.313   7.393 -11.824  0.00  0.00    +0.021 A 
ATOM     26  C   UNL     1       5.367   7.476 -10.810  0.00  0.00    +0.003 A 
ENDBRANCH   3  21
TORSDOF 1
ENDMDL
MODEL 7
REMARK VINA RESULT:      -9.5      3.641      7.698
REMARK  Name = 
REMARK  1 active torsions:
REMARK  status: ('A' for Active; 'I' for Inactive)
REMARK    1  A    between atoms: C_20  and  C_21
REMARK                            x       y       z     vdW  Elec       q    Type
REMARK                         _______ _______ _______ _____ _____    ______ ____
ROOT
ATOM      1  C   UNL     1      -1.148   7.815  -4.854  0.00  0.00    +0.004 C 
ATOM      2  C   UNL     1      -0.606   6.588  -4.209  0.00  0.00    +0.019 C 
ATOM      3  C   UNL     1      -1.622   6.117  -3.279  0.00  0.00    -0.026 C 
ATOM      4  C   UNL     1      -2.715   6.065  -4.047  0.00  0.00    -0.030 C 
ATOM      5  C   UNL     1      -2.342   5.908  -5.493  0.00  0.00    +0.026 C 
ATOM      6  C   UNL     1      -0.844   5.350  -5.231  0.00  0.00    +0.008 C 
ATOM      7  C   UNL     1      -0.077   6.225  -6.452  0.00  0.00    +0.005 C 
ATOM      8  C   UNL     1      -0.572   5.222  -7.600  0.00  0.00    +0.025 C 
ATOM      9  C   UNL     1       0.312   5.684  -8.722  0.00  0.00    -0.035 C 
ATOM     10  C   UNL     1       1.422   6.390  -8.462  0.00  0.00    -0.047 C 
ATOM     11  C   UNL     1       2.232   6.126  -7.267  0.00  0.00    +0.015 C 
ATOM     12  C   UNL     1       2.905   7.308  -6.748  0.00  0.00    +0.004 C 
ATOM     13  C   UNL     1       3.275   5.045  -7.537  0.00  0.00    +0.006 C 
ATOM     14  C   UNL     1       3.954   5.179  -8.855  0.00  0.00    +0.034 C 
ATOM     15  C   UNL     1       2.713   5.056  -9.937  0.00  0.00    +0.156 C 
ATOM     16  O   UNL     1       3.622   5.424 -11.097  0.00  0.00    -0.223 OA
ATOM     17  C   UNL     1       2.278   6.631  -9.682  0.00  0.00    +0.055 C 
ATOM     18  C   UNL     1       1.337   5.350  -6.166  0.00  0.00    +0.004 C 
ATOM     19  C   UNL     1       1.798   6.278  -4.922  0.00  0.00    +0.001 C 
ATOM     20  C   UNL     1       0.786   6.479  -3.932  0.00  0.00    +0.004 C 
ENDROOT
BRANCH   3  21
ATOM     21  C   UNL     1      -1.535   6.296  -1.831  0.00  0.00    +0.015 A 
ATOM     22  C   UNL     1      -0.444   5.814  -1.155  0.00  0.00    +0.099 A 
ATOM     23  N   UNL     1      -0.090   6.203   0.087  0.00  0.00    -0.242 NA
ATOM     24  C   UNL     1      -0.983   6.977   0.743  0.00  0.00    +0.099 A 
ATOM     25  C   UNL     1      -1.957   7.687   0.051  0.00  0.00    +0.021 A 
ATOM     26  C   UNL     1      -2.101   7.453  -1.311  0.00  0.00    +0.003 A 
ENDBRANCH   3  21
TORSDOF 1
ENDMDL
MODEL 8
REMARK VINA RESULT:      -9.4      2.802      5.033
REMARK  Name = 
REMARK  1 active torsions:
REMARK  status: ('A' for Active; 'I' for Inactive)
REMARK    1  A    between atoms: C_20  and  C_21
REMARK                            x       y       z     vdW  Elec       q    Type
REMARK                         _______ _______ _______ _____ _____    ______ ____
ROOT
ATOM      1  C   UNL     1       5.687   7.772 -10.972  0.00  0.00    +0.004 C 
ATOM      2  C   UNL     1       5.090   6.559 -11.595  0.00  0.00    +0.019 C 
ATOM      3  C   UNL     1       6.003   6.131 -12.644  0.00  0.00    -0.026 C 
ATOM      4  C   UNL     1       7.173   6.069 -12.001  0.00  0.00    -0.030 C 
ATOM      5  C   UNL     1       6.962   5.862 -10.530  0.00  0.00    +0.026 C 
ATOM      6  C   UNL     1       5.449   5.293 -10.646  0.00  0.00    +0.008 C 
ATOM      7  C   UNL     1       4.811   6.119  -9.321  0.00  0.00    +0.005 C 
ATOM      8  C   UNL     1       5.437   5.086  -8.267  0.00  0.00    +0.025 C 
ATOM      9  C   UNL     1       4.676   5.502  -7.041  0.00  0.00    -0.035 C 
ATOM     10  C   UNL     1       3.538   6.201  -7.156  0.00  0.00    -0.047 C 
ATOM     11  C   UNL     1       2.606   5.965  -8.264  0.00  0.00    +0.015 C 
ATOM     12  C   UNL     1       1.870   7.154  -8.669  0.00  0.00    +0.004 C 
ATOM     13  C   UNL     1       1.608   4.863  -7.919  0.00  0.00    +0.006 C 
ATOM     14  C   UNL     1       1.075   4.946  -6.531  0.00  0.00    +0.034 C 
ATOM     15  C   UNL     1       2.428   4.804  -5.595  0.00  0.00    +0.156 C 
ATOM     16  O   UNL     1       1.647   5.124  -4.331  0.00  0.00    -0.223 OA
ATOM     17  C   UNL     1       2.818   6.392  -5.843  0.00  0.00    +0.055 C 
ATOM     18  C   UNL     1       3.383   5.235  -9.481  0.00  0.00    +0.004 C 
ATOM     19  C   UNL     1       2.780   6.196 -10.637  0.00  0.00    +0.001 C 
ATOM     20  C   UNL     1       3.677   6.442 -11.723  0.00  0.00    +0.004 C 
ENDROOT
BRANCH   3  21
ATOM     21  C   UNL     1       5.757   6.355 -14.068  0.00  0.00    +0.015 A 
ATOM     22  C   UNL     1       4.496   6.171 -14.572  0.00  0.00    +0.099 A 
ATOM     23  N   UNL     1       4.076   6.661 -15.758  0.00  0.00    -0.242 NA
ATOM     24  C   UNL     1       5.030   7.203 -16.547  0.00  0.00    +0.099 A 
ATOM     25  C   UNL     1       6.238   7.635 -16.014  0.00  0.00    +0.021 A 
ATOM     26  C   UNL     1       6.512   7.346 -14.683  0.00  0.00    +0.003 A 
ENDBRANCH   3  21
TORSDOF 1
ENDMDL
MODEL 9
REMARK VINA RESULT:      -9.3      3.251      4.613
REMARK  Name = 
REMARK  1 active torsions:
REMARK  status: ('A' for Active; 'I' for Inactive)
REMARK    1  A    between atoms: C_20  and  C_21
REMARK                            x       y       z     vdW  Elec       q    Type
REMARK                         _______ _______ _______ _____ _____    ______ ____
ROOT
ATOM      1  C   UNL     1       1.699   4.343  -9.840  0.00  0.00    +0.004 C 
ATOM      2  C   UNL     1       1.818   5.821  -9.964  0.00  0.00    +0.019 C 
ATOM      3  C   UNL     1       0.845   6.241 -10.962  0.00  0.00    -0.026 C 
ATOM      4  C   UNL     1      -0.283   5.676 -10.519  0.00  0.00    -0.030 C 
ATOM      5  C   UNL     1      -0.211   5.430  -9.040  0.00  0.00    +0.026 C 
ATOM      6  C   UNL     1       0.982   6.485  -8.742  0.00  0.00    +0.008 C 
ATOM      7  C   UNL     1       1.840   5.530  -7.650  0.00  0.00    +0.005 C 
ATOM      8  C   UNL     1       0.840   5.863  -6.442  0.00  0.00    +0.025 C 
ATOM      9  C   UNL     1       1.662   5.343  -5.298  0.00  0.00    -0.035 C 
ATOM     10  C   UNL     1       2.982   5.159  -5.443  0.00  0.00    -0.047 C 
ATOM     11  C   UNL     1       3.793   6.062  -6.268  0.00  0.00    +0.015 C 
ATOM     12  C   UNL     1       4.933   5.409  -6.896  0.00  0.00    +0.004 C 
ATOM     13  C   UNL     1       4.294   7.251  -5.454  0.00  0.00    +0.006 C 
ATOM     14  C   UNL     1       4.775   6.889  -4.092  0.00  0.00    +0.034 C 
ATOM     15  C   UNL     1       3.439   6.233  -3.378  0.00  0.00    +0.156 C 
ATOM     16  O   UNL     1       4.243   5.791  -2.167  0.00  0.00    -0.223 OA
ATOM     17  C   UNL     1       3.680   4.792  -4.155  0.00  0.00    +0.055 C 
ATOM     18  C   UNL     1       2.838   6.848  -7.310  0.00  0.00    +0.004 C 
ATOM     19  C   UNL     1       3.793   6.605  -8.596  0.00  0.00    +0.001 C 
ATOM     20  C   UNL     1       3.087   6.452  -9.831  0.00  0.00    +0.004 C 
ENDROOT
BRANCH   3  21
ATOM     21  C   UNL     1       1.201   6.612 -12.330  0.00  0.00    +0.015 A 
ATOM     22  C   UNL     1       1.711   5.661 -13.175  0.00  0.00    +0.099 A 
ATOM     23  N   UNL     1       1.756   5.788 -14.518  0.00  0.00    -0.242 NA
ATOM     24  C   UNL     1       1.437   7.006 -15.010  0.00  0.00    +0.099 A 
ATOM     25  C   UNL     1       0.694   7.908 -14.258  0.00  0.00    +0.021 A 
ATOM     26  C   UNL     1       0.429   7.598 -12.930  0.00  0.00    +0.003 A 
ENDBRANCH   3  21
TORSDOF 1
ENDMDL
