MODEL 1
REMARK VINA RESULT:      -8.0      0.000      0.000
REMARK  Name = 
REMARK  10 active torsions:
REMARK  status: ('A' for Active; 'I' for Inactive)
REMARK    1  A    between atoms: C_2  and  O_3
REMARK    2  A    between atoms: O_3  and  C_4
REMARK    3  A    between atoms: C_4  and  C_6
REMARK    4  A    between atoms: C_6  and  C_7
REMARK    5  A    between atoms: C_6  and  N_15
REMARK    6  A    between atoms: C_7  and  C_8
REMARK    7  A    between atoms: C_8  and  C_9
REMARK    8  A    between atoms: N_15  and  CA_16
REMARK    9  A    between atoms: CA_16  and  C_18
REMARK   10  A    between atoms: C_21  and  C_22
REMARK                            x       y       z     vdW  Elec       q    Type
REMARK                         _______ _______ _______ _____ _____    ______ ____
ROOT
ATOM      1  CA  ALA A   1       3.262   6.943  -5.035  0.00  0.00    +0.149 C 
ATOM      2  CB  ALA A   1       4.700   7.569  -4.537  0.00  0.00    +0.029 C 
ENDROOT
BRANCH   1   3
ATOM      3  C   ALA A   1       3.907   6.134  -6.260  0.00  0.00    +0.242 C 
ATOM      4  N   UNK A   2       3.510   6.212  -7.593  0.00  0.00    -0.272 N 
ATOM      5  C   UNK A   2       2.089   5.751  -8.026  0.00  0.00    +0.076 C 
ATOM      6  C   UNK A   2       2.575   5.162  -9.546  0.00  0.00    +0.020 C 
ATOM      7  C   UNK A   2       1.228   4.268  -9.673  0.00  0.00    +0.002 C 
ATOM      8  C   UNK A   2       0.219   5.384  -9.790  0.00  0.00    +0.000 C 
ATOM      9  C   UNK A   2       0.781   6.752  -9.916  0.00  0.00    +0.002 C 
ATOM     10  C   UNK A   2       3.430   4.084  -8.721  0.00  0.00    +0.033 C 
ATOM     11  C   UNK A   2       1.660   7.166  -8.735  0.00  0.00    +0.020 C 
ATOM     12  C   UNK A   2       4.521   5.259  -8.342  0.00  0.00    +0.179 C 
ATOM     13  O   ALA A   1       4.628   5.268  -5.676  0.00  0.00    -0.273 OA
BRANCH  12  14
ATOM     14  C   UNK A   2       4.521   5.975  -9.785  0.00  0.00    +0.382 C 
ATOM     15  O   UNK A   2       4.989   5.153 -10.794  0.00  0.00    -0.244 OA
ATOM     16  O   UNK A   2       4.624   7.155  -9.926  0.00  0.00    -0.244 OA
ENDBRANCH  12  14
ENDBRANCH   1   3
BRANCH   1  17
ATOM     17  N   ALA A   1       3.357   5.726  -4.033  0.00  0.00    -0.201 NA
BRANCH  17  18
ATOM     18  C   UNK A   0       2.530   6.360  -2.843  0.00  0.00    +0.172 C 
BRANCH  18  19
ATOM     19  C   UNK A   0       3.141   5.394  -1.719  0.00  0.00    +0.333 C 
ATOM     20  O   UNK A   0       2.558   4.708  -0.968  0.00  0.00    -0.249 OA
BRANCH  19  21
ATOM     21  O   UNK A   0       4.375   5.842  -1.359  0.00  0.00    -0.448 OA
BRANCH  21  23
ATOM     22  C   UNK A   0       4.475   7.273   0.581  0.00  0.00    +0.051 C 
ATOM     23  C   UNK A   0       4.762   6.944  -0.696  0.00  0.00    +0.209 C 
ENDBRANCH  21  23
ENDBRANCH  19  21
ENDBRANCH  18  19
BRANCH  18  24
ATOM     24  C   UNK A   0       1.204   5.419  -3.099  0.00  0.00    +0.033 C 
BRANCH  24  25
ATOM     25  C   UNK A   0       0.012   6.242  -3.065  0.00  0.00    +0.028 C 
BRANCH  25  26
ATOM     26  C   UNK A   0      -0.803   6.289  -4.284  0.00  0.00    -0.022 A 
ATOM     27  C   UNK A   0      -2.008   6.929  -4.401  0.00  0.00    -0.004 A 
ATOM     28  C   UNK A   0      -2.771   6.764  -5.538  0.00  0.00    -0.000 A 
ATOM     29  C   UNK A   0      -2.326   5.971  -6.564  0.00  0.00    -0.000 A 
ATOM     30  C   UNK A   0      -1.167   5.262  -6.416  0.00  0.00    -0.000 A 
ATOM     31  C   UNK A   0      -0.410   5.412  -5.290  0.00  0.00    -0.004 A 
ENDBRANCH  25  26
ENDBRANCH  24  25
ENDBRANCH  18  24
ENDBRANCH  17  18
ENDBRANCH   1  17
TORSDOF 10
ENDMDL
MODEL 2
REMARK VINA RESULT:      -7.9      2.363      7.239
REMARK  Name = 
REMARK  10 active torsions:
REMARK  status: ('A' for Active; 'I' for Inactive)
REMARK    1  A    between atoms: C_2  and  O_3
REMARK    2  A    between atoms: O_3  and  C_4
REMARK    3  A    between atoms: C_4  and  C_6
REMARK    4  A    between atoms: C_6  and  C_7
REMARK    5  A    between atoms: C_6  and  N_15
REMARK    6  A    between atoms: C_7  and  C_8
REMARK    7  A    between atoms: C_8  and  C_9
REMARK    8  A    between atoms: N_15  and  CA_16
REMARK    9  A    between atoms: CA_16  and  C_18
REMARK   10  A    between atoms: C_21  and  C_22
REMARK                            x       y       z     vdW  Elec       q    Type
REMARK                         _______ _______ _______ _____ _____    ______ ____
ROOT
ATOM      1  CA  ALA A   1      -0.486   6.388  -3.706  0.00  0.00    +0.149 C 
ATOM      2  CB  ALA A   1      -1.727   5.431  -3.205  0.00  0.00    +0.029 C 
ENDROOT
BRANCH   1   3
ATOM      3  C   ALA A   1       0.528   5.858  -2.582  0.00  0.00    +0.242 C 
ATOM      4  N   UNK A   2       1.819   6.330  -2.356  0.00  0.00    -0.272 N 
ATOM      5  C   UNK A   2       2.924   6.171  -3.440  0.00  0.00    +0.076 C 
ATOM      6  C   UNK A   2       4.195   5.948  -2.332  0.00  0.00    +0.020 C 
ATOM      7  C   UNK A   2       5.130   5.285  -3.479  0.00  0.00    +0.002 C 
ATOM      8  C   UNK A   2       5.335   6.503  -4.345  0.00  0.00    +0.000 C 
ATOM      9  C   UNK A   2       4.812   7.780  -3.798  0.00  0.00    +0.002 C 
ATOM     10  C   UNK A   2       3.435   4.598  -1.915  0.00  0.00    +0.033 C 
ATOM     11  C   UNK A   2       3.307   7.763  -3.528  0.00  0.00    +0.020 C 
ATOM     12  C   UNK A   2       2.311   5.495  -1.110  0.00  0.00    +0.179 C 
ATOM     13  O   ALA A   1      -0.029   4.790  -2.182  0.00  0.00    -0.273 OA
BRANCH  12  14
ATOM     14  C   UNK A   2       3.345   6.559  -0.486  0.00  0.00    +0.382 C 
ATOM     15  O   UNK A   2       4.337   5.965   0.273  0.00  0.00    -0.244 OA
ATOM     16  O   UNK A   2       3.048   7.689  -0.240  0.00  0.00    -0.244 OA
ENDBRANCH  12  14
ENDBRANCH   1   3
BRANCH   1  17
ATOM     17  N   ALA A   1      -0.013   5.339  -4.788  0.00  0.00    -0.201 NA
BRANCH  17  18
ATOM     18  C   UNK A   0       0.220   6.349  -5.982  0.00  0.00    +0.172 C 
BRANCH  18  19
ATOM     19  C   UNK A   0      -0.710   5.556  -7.019  0.00  0.00    +0.333 C 
ATOM     20  O   UNK A   0      -1.688   4.952  -6.790  0.00  0.00    -0.249 OA
BRANCH  19  21
ATOM     21  O   UNK A   0       0.027   5.201  -8.108  0.00  0.00    -0.448 OA
BRANCH  21  23
ATOM     22  C   UNK A   0       0.597   5.009 -10.445  0.00  0.00    +0.051 C 
ATOM     23  C   UNK A   0      -0.090   5.527  -9.405  0.00  0.00    +0.209 C 
ENDBRANCH  21  23
ENDBRANCH  19  21
ENDBRANCH  18  19
BRANCH  18  24
ATOM     24  C   UNK A   0       1.607   5.622  -6.489  0.00  0.00    +0.033 C 
BRANCH  24  25
ATOM     25  C   UNK A   0       2.551   6.632  -6.928  0.00  0.00    +0.028 C 
BRANCH  25  26
ATOM     26  C   UNK A   0       3.542   6.229  -7.932  0.00  0.00    -0.022 A 
ATOM     27  C   UNK A   0       4.645   5.457  -7.682  0.00  0.00    -0.004 A 
ATOM     28  C   UNK A   0       5.602   5.282  -8.660  0.00  0.00    -0.000 A 
ATOM     29  C   UNK A   0       5.453   5.869  -9.891  0.00  0.00    -0.000 A 
ATOM     30  C   UNK A   0       4.400   6.710 -10.114  0.00  0.00    -0.000 A 
ATOM     31  C   UNK A   0       3.451   6.896  -9.149  0.00  0.00    -0.004 A 
ENDBRANCH  25  26
ENDBRANCH  24  25
ENDBRANCH  18  24
ENDBRANCH  17  18
ENDBRANCH   1  17
TORSDOF 10
ENDMDL
MODEL 3
REMARK VINA RESULT:      -7.8      1.066      1.604
REMARK  Name = 
REMARK  10 active torsions:
REMARK  status: ('A' for Active; 'I' for Inactive)
REMARK    1  A    between atoms: C_2  and  O_3
REMARK    2  A    between atoms: O_3  and  C_4
REMARK    3  A    between atoms: C_4  and  C_6
REMARK    4  A    between atoms: C_6  and  C_7
REMARK    5  A    between atoms: C_6  and  N_15
REMARK    6  A    between atoms: C_7  and  C_8
REMARK    7  A    between atoms: C_8  and  C_9
REMARK    8  A    between atoms: N_15  and  CA_16
REMARK    9  A    between atoms: CA_16  and  C_18
REMARK   10  A    between atoms: C_21  and  C_22
REMARK                            x       y       z     vdW  Elec       q    Type
REMARK                         _______ _______ _______ _____ _____    ______ ____
ROOT
ATOM      1  CA  ALA A   1       3.598   7.090  -5.301  0.00  0.00    +0.149 C 
ATOM      2  CB  ALA A   1       5.022   7.047  -4.480  0.00  0.00    +0.029 C 
ENDROOT
BRANCH   1   3
ATOM      3  C   ALA A   1       4.158   6.247  -6.545  0.00  0.00    +0.242 C 
ATOM      4  N   UNK A   2       3.662   6.280  -7.847  0.00  0.00    -0.272 N 
ATOM      5  C   UNK A   2       2.218   5.797  -8.160  0.00  0.00    +0.076 C 
ATOM      6  C   UNK A   2       2.595   5.164  -9.692  0.00  0.00    +0.020 C 
ATOM      7  C   UNK A   2       1.250   4.258  -9.692  0.00  0.00    +0.002 C 
ATOM      8  C   UNK A   2       0.226   5.362  -9.768  0.00  0.00    +0.000 C 
ATOM      9  C   UNK A   2       0.764   6.730  -9.977  0.00  0.00    +0.002 C 
ATOM     10  C   UNK A   2       3.518   4.119  -8.901  0.00  0.00    +0.033 C 
ATOM     11  C   UNK A   2       1.724   7.187  -8.878  0.00  0.00    +0.020 C 
ATOM     12  C   UNK A   2       4.624   5.312  -8.639  0.00  0.00    +0.179 C 
ATOM     13  O   ALA A   1       4.927   5.404  -5.990  0.00  0.00    -0.273 OA
BRANCH  12  14
ATOM     14  C   UNK A   2       4.511   5.982 -10.099  0.00  0.00    +0.382 C 
ATOM     15  O   UNK A   2       4.877   5.121 -11.118  0.00  0.00    -0.244 OA
ATOM     16  O   UNK A   2       4.620   7.156 -10.287  0.00  0.00    -0.244 OA
ENDBRANCH  12  14
ENDBRANCH   1   3
BRANCH   1  17
ATOM     17  N   ALA A   1       3.037   5.820  -4.548  0.00  0.00    -0.201 NA
BRANCH  17  18
ATOM     18  C   UNK A   0       1.734   6.483  -3.945  0.00  0.00    +0.172 C 
BRANCH  18  19
ATOM     19  C   UNK A   0       1.570   5.416  -2.760  0.00  0.00    +0.333 C 
ATOM     20  O   UNK A   0       0.648   5.265  -2.053  0.00  0.00    -0.249 OA
BRANCH  19  21
ATOM     21  O   UNK A   0       2.801   5.057  -2.302  0.00  0.00    -0.448 OA
BRANCH  21  23
ATOM     22  C   UNK A   0       4.073   6.334  -0.698  0.00  0.00    +0.051 C 
ATOM     23  C   UNK A   0       3.395   5.244  -1.112  0.00  0.00    +0.209 C 
ENDBRANCH  21  23
ENDBRANCH  19  21
ENDBRANCH  18  19
BRANCH  18  24
ATOM     24  C   UNK A   0       0.710   5.689  -4.961  0.00  0.00    +0.033 C 
BRANCH  24  25
ATOM     25  C   UNK A   0      -0.395   6.559  -5.312  0.00  0.00    +0.028 C 
BRANCH  25  26
ATOM     26  C   UNK A   0      -1.547   6.577  -4.405  0.00  0.00    -0.022 A 
ATOM     27  C   UNK A   0      -1.736   7.479  -3.391  0.00  0.00    -0.004 A 
ATOM     28  C   UNK A   0      -2.765   7.300  -2.490  0.00  0.00    -0.000 A 
ATOM     29  C   UNK A   0      -3.612   6.228  -2.607  0.00  0.00    -0.000 A 
ATOM     30  C   UNK A   0      -3.375   5.280  -3.562  0.00  0.00    -0.000 A 
ATOM     31  C   UNK A   0      -2.353   5.444  -4.453  0.00  0.00    -0.004 A 
ENDBRANCH  25  26
ENDBRANCH  24  25
ENDBRANCH  18  24
ENDBRANCH  17  18
ENDBRANCH   1  17
TORSDOF 10
ENDMDL
MODEL 4
REMARK VINA RESULT:      -7.6      3.001      8.592
REMARK  Name = 
REMARK  10 active torsions:
REMARK  status: ('A' for Active; 'I' for Inactive)
REMARK    1  A    between atoms: C_2  and  O_3
REMARK    2  A    between atoms: O_3  and  C_4
REMARK    3  A    between atoms: C_4  and  C_6
REMARK    4  A    between atoms: C_6  and  C_7
REMARK    5  A    between atoms: C_6  and  N_15
REMARK    6  A    between atoms: C_7  and  C_8
REMARK    7  A    between atoms: C_8  and  C_9
REMARK    8  A    between atoms: N_15  and  CA_16
REMARK    9  A    between atoms: CA_16  and  C_18
REMARK   10  A    between atoms: C_21  and  C_22
REMARK                            x       y       z     vdW  Elec       q    Type
REMARK                         _______ _______ _______ _____ _____    ______ ____
ROOT
ATOM      1  CA  ALA A   1       3.500   5.524 -10.104  0.00  0.00    +0.149 C 
ATOM      2  CB  ALA A   1       2.980   7.084 -10.110  0.00  0.00    +0.029 C 
ENDROOT
BRANCH   1   3
ATOM      3  C   ALA A   1       2.479   5.067  -8.955  0.00  0.00    +0.242 C 
ATOM      4  N   UNK A   2       2.418   5.580  -7.661  0.00  0.00    -0.272 N 
ATOM      5  C   UNK A   2       3.612   5.403  -6.680  0.00  0.00    +0.076 C 
ATOM      6  C   UNK A   2       2.648   5.260  -5.287  0.00  0.00    +0.020 C 
ATOM      7  C   UNK A   2       3.866   4.572  -4.467  0.00  0.00    +0.002 C 
ATOM      8  C   UNK A   2       4.796   5.758  -4.396  0.00  0.00    +0.000 C 
ATOM      9  C   UNK A   2       4.244   7.043  -4.892  0.00  0.00    +0.002 C 
ATOM     10  C   UNK A   2       2.095   3.910  -5.955  0.00  0.00    +0.033 C 
ATOM     11  C   UNK A   2       3.806   7.000  -6.357  0.00  0.00    +0.020 C 
ATOM     12  C   UNK A   2       1.204   4.811  -7.009  0.00  0.00    +0.179 C 
ATOM     13  O   ALA A   1       1.977   4.004  -9.432  0.00  0.00    -0.273 OA
BRANCH  12  14
ATOM     14  C   UNK A   2       0.742   5.926  -5.943  0.00  0.00    +0.382 C 
ATOM     15  O   UNK A   2      -0.016   5.403  -4.911  0.00  0.00    -0.244 OA
ATOM     16  O   UNK A   2       0.592   7.075  -6.227  0.00  0.00    -0.244 OA
ENDBRANCH  12  14
ENDBRANCH   1   3
BRANCH   1  17
ATOM     17  N   ALA A   1       2.533   5.116 -11.284  0.00  0.00    -0.201 NA
BRANCH  17  18
ATOM     18  C   UNK A   0       3.028   6.177 -12.346  0.00  0.00    +0.172 C 
BRANCH  18  19
ATOM     19  C   UNK A   0       1.913   5.810 -13.439  0.00  0.00    +0.333 C 
ATOM     20  O   UNK A   0       2.050   5.713 -14.599  0.00  0.00    -0.249 OA
BRANCH  19  21
ATOM     21  O   UNK A   0       0.683   6.145 -12.960  0.00  0.00    -0.448 OA
BRANCH  21  23
ATOM     22  C   UNK A   0      -0.608   7.608 -11.540  0.00  0.00    +0.051 C 
ATOM     23  C   UNK A   0       0.155   7.331 -12.618  0.00  0.00    +0.209 C 
ENDBRANCH  21  23
ENDBRANCH  19  21
ENDBRANCH  18  19
BRANCH  18  24
ATOM     24  C   UNK A   0       4.164   5.180 -12.998  0.00  0.00    +0.033 C 
BRANCH  24  25
ATOM     25  C   UNK A   0       5.321   5.958 -13.393  0.00  0.00    +0.028 C 
BRANCH  25  26
ATOM     26  C   UNK A   0       6.317   6.248 -12.356  0.00  0.00    -0.022 A 
ATOM     27  C   UNK A   0       7.043   5.306 -11.676  0.00  0.00    -0.004 A 
ATOM     28  C   UNK A   0       7.824   5.678 -10.603  0.00  0.00    -0.000 A 
ATOM     29  C   UNK A   0       7.892   6.991 -10.214  0.00  0.00    -0.000 A 
ATOM     30  C   UNK A   0       7.102   7.920 -10.833  0.00  0.00    -0.000 A 
ATOM     31  C   UNK A   0       6.319   7.560 -11.891  0.00  0.00    -0.004 A 
ENDBRANCH  25  26
ENDBRANCH  24  25
ENDBRANCH  18  24
ENDBRANCH  17  18
ENDBRANCH   1  17
TORSDOF 10
ENDMDL
MODEL 5
REMARK VINA RESULT:      -7.5      1.915      6.691
REMARK  Name = 
REMARK  10 active torsions:
REMARK  status: ('A' for Active; 'I' for Inactive)
REMARK    1  A    between atoms: C_2  and  O_3
REMARK    2  A    between atoms: O_3  and  C_4
REMARK    3  A    between atoms: C_4  and  C_6
REMARK    4  A    between atoms: C_6  and  C_7
REMARK    5  A    between atoms: C_6  and  N_15
REMARK    6  A    between atoms: C_7  and  C_8
REMARK    7  A    between atoms: C_8  and  C_9
REMARK    8  A    between atoms: N_15  and  CA_16
REMARK    9  A    between atoms: CA_16  and  C_18
REMARK   10  A    between atoms: C_21  and  C_22
REMARK                            x       y       z     vdW  Elec       q    Type
REMARK                         _______ _______ _______ _____ _____    ______ ____
ROOT
ATOM      1  CA  ALA A   1       3.328   5.315  -5.649  0.00  0.00    +0.149 C 
ATOM      2  CB  ALA A   1       4.680   5.642  -6.527  0.00  0.00    +0.029 C 
ENDROOT
BRANCH   1   3
ATOM      3  C   ALA A   1       3.943   5.876  -4.278  0.00  0.00    +0.242 C 
ATOM      4  N   UNK A   2       3.432   5.654  -3.001  0.00  0.00    -0.272 N 
ATOM      5  C   UNK A   2       2.029   6.193  -2.602  0.00  0.00    +0.076 C 
ATOM      6  C   UNK A   2       2.441   6.513  -0.983  0.00  0.00    +0.020 C 
ATOM      7  C   UNK A   2       1.176   7.513  -0.818  0.00  0.00    +0.002 C 
ATOM      8  C   UNK A   2       0.063   6.502  -0.934  0.00  0.00    +0.000 C 
ATOM      9  C   UNK A   2       0.484   5.079  -0.972  0.00  0.00    +0.002 C 
ATOM     10  C   UNK A   2       3.456   7.601  -1.582  0.00  0.00    +0.033 C 
ATOM     11  C   UNK A   2       1.415   4.745  -2.138  0.00  0.00    +0.020 C 
ATOM     12  C   UNK A   2       4.462   6.385  -2.054  0.00  0.00    +0.179 C 
ATOM     13  O   ALA A   1       4.785   6.736  -4.679  0.00  0.00    -0.273 OA
BRANCH  12  14
ATOM     14  C   UNK A   2       4.279   5.479  -0.735  0.00  0.00    +0.382 C 
ATOM     15  O   UNK A   2       4.616   6.147   0.428  0.00  0.00    -0.244 OA
ATOM     16  O   UNK A   2       4.362   4.289  -0.746  0.00  0.00    -0.244 OA
ENDBRANCH  12  14
ENDBRANCH   1   3
BRANCH   1  17
ATOM     17  N   ALA A   1       2.650   6.687  -6.039  0.00  0.00    -0.201 NA
BRANCH  17  18
ATOM     18  C   UNK A   0       1.669   6.136  -7.150  0.00  0.00    +0.172 C 
BRANCH  18  19
ATOM     19  C   UNK A   0       1.891   7.367  -8.154  0.00  0.00    +0.333 C 
ATOM     20  O   UNK A   0       2.257   8.449  -7.893  0.00  0.00    -0.249 OA
BRANCH  19  21
ATOM     21  O   UNK A   0       1.109   7.198  -9.255  0.00  0.00    -0.448 OA
BRANCH  21  23
ATOM     22  C   UNK A   0       0.882   6.307 -11.486  0.00  0.00    +0.051 C 
ATOM     23  C   UNK A   0       1.036   6.199 -10.150  0.00  0.00    +0.209 C 
ENDBRANCH  21  23
ENDBRANCH  19  21
ENDBRANCH  18  19
BRANCH  18  24
ATOM     24  C   UNK A   0       0.324   6.788  -6.462  0.00  0.00    +0.033 C 
BRANCH  24  25
ATOM     25  C   UNK A   0      -0.361   5.776  -5.682  0.00  0.00    +0.028 C 
BRANCH  25  26
ATOM     26  C   UNK A   0      -1.350   6.240  -4.704  0.00  0.00    -0.022 A 
ATOM     27  C   UNK A   0      -1.453   7.525  -4.239  0.00  0.00    -0.004 A 
ATOM     28  C   UNK A   0      -2.305   7.815  -3.194  0.00  0.00    -0.000 A 
ATOM     29  C   UNK A   0      -3.063   6.827  -2.620  0.00  0.00    -0.000 A 
ATOM     30  C   UNK A   0      -2.898   5.530  -3.021  0.00  0.00    -0.000 A 
ATOM     31  C   UNK A   0      -2.051   5.232  -4.050  0.00  0.00    -0.004 A 
ENDBRANCH  25  26
ENDBRANCH  24  25
ENDBRANCH  18  24
ENDBRANCH  17  18
ENDBRANCH   1  17
TORSDOF 10
ENDMDL
MODEL 6
REMARK VINA RESULT:      -7.3      1.858      2.635
REMARK  Name = 
REMARK  10 active torsions:
REMARK  status: ('A' for Active; 'I' for Inactive)
REMARK    1  A    between atoms: C_2  and  O_3
REMARK    2  A    between atoms: O_3  and  C_4
REMARK    3  A    between atoms: C_4  and  C_6
REMARK    4  A    between atoms: C_6  and  C_7
REMARK    5  A    between atoms: C_6  and  N_15
REMARK    6  A    between atoms: C_7  and  C_8
REMARK    7  A    between atoms: C_8  and  C_9
REMARK    8  A    between atoms: N_15  and  CA_16
REMARK    9  A    between atoms: CA_16  and  C_18
REMARK   10  A    between atoms: C_21  and  C_22
REMARK                            x       y       z     vdW  Elec       q    Type
REMARK                         _______ _______ _______ _____ _____    ______ ____
ROOT
ATOM      1  CA  ALA A   1       3.997   7.513  -3.422  0.00  0.00    +0.149 C 
ATOM      2  CB  ALA A   1       5.619   7.274  -3.291  0.00  0.00    +0.029 C 
ENDROOT
BRANCH   1   3
ATOM      3  C   ALA A   1       3.944   7.088  -4.968  0.00  0.00    +0.242 C 
ATOM      4  N   UNK A   2       2.807   7.068  -5.773  0.00  0.00    -0.272 N 
ATOM      5  C   UNK A   2       1.628   6.104  -5.459  0.00  0.00    +0.076 C 
ATOM      6  C   UNK A   2       1.213   5.833  -7.085  0.00  0.00    +0.020 C 
ATOM      7  C   UNK A   2       0.400   4.485  -6.694  0.00  0.00    +0.002 C 
ATOM      8  C   UNK A   2      -0.729   5.113  -5.915  0.00  0.00    +0.000 C 
ATOM      9  C   UNK A   2      -0.783   6.597  -5.938  0.00  0.00    +0.002 C 
ATOM     10  C   UNK A   2       2.655   5.143  -7.213  0.00  0.00    +0.033 C 
ATOM     11  C   UNK A   2       0.473   7.266  -5.379  0.00  0.00    +0.020 C 
ATOM     12  C   UNK A   2       3.357   6.634  -7.187  0.00  0.00    +0.179 C 
ATOM     13  O   ALA A   1       5.079   6.551  -5.151  0.00  0.00    -0.273 OA
BRANCH  12  14
ATOM     14  C   UNK A   2       2.262   7.362  -8.118  0.00  0.00    +0.382 C 
ATOM     15  O   UNK A   2       2.159   6.792  -9.374  0.00  0.00    -0.244 OA
ATOM     16  O   UNK A   2       1.961   8.509  -7.993  0.00  0.00    -0.244 OA
ENDBRANCH  12  14
ENDBRANCH   1   3
BRANCH   1  17
ATOM     17  N   ALA A   1       3.663   6.063  -2.895  0.00  0.00    -0.201 NA
BRANCH  17  18
ATOM     18  C   UNK A   0       2.930   6.481  -1.558  0.00  0.00    +0.172 C 
BRANCH  18  19
ATOM     19  C   UNK A   0       3.812   5.534  -0.613  0.00  0.00    +0.333 C 
ATOM     20  O   UNK A   0       3.780   4.365  -0.536  0.00  0.00    -0.249 OA
BRANCH  19  21
ATOM     21  O   UNK A   0       4.226   6.240   0.476  0.00  0.00    -0.448 OA
BRANCH  21  23
ATOM     22  C   UNK A   0       5.555   7.821   1.724  0.00  0.00    +0.051 C 
ATOM     23  C   UNK A   0       5.041   7.302   0.589  0.00  0.00    +0.209 C 
ENDBRANCH  21  23
ENDBRANCH  19  21
ENDBRANCH  18  19
BRANCH  18  24
ATOM     24  C   UNK A   0       1.719   5.380  -1.730  0.00  0.00    +0.033 C 
BRANCH  24  25
ATOM     25  C   UNK A   0       0.553   5.822  -0.992  0.00  0.00    +0.028 C 
BRANCH  25  26
ATOM     26  C   UNK A   0      -0.642   6.164  -1.771  0.00  0.00    -0.022 A 
ATOM     27  C   UNK A   0      -1.183   7.418  -1.872  0.00  0.00    -0.004 A 
ATOM     28  C   UNK A   0      -2.404   7.596  -2.488  0.00  0.00    -0.000 A 
ATOM     29  C   UNK A   0      -3.079   6.525  -3.015  0.00  0.00    -0.000 A 
ATOM     30  C   UNK A   0      -2.586   5.263  -2.840  0.00  0.00    -0.000 A 
ATOM     31  C   UNK A   0      -1.382   5.076  -2.223  0.00  0.00    -0.004 A 
ENDBRANCH  25  26
ENDBRANCH  24  25
ENDBRANCH  18  24
ENDBRANCH  17  18
ENDBRANCH   1  17
TORSDOF 10
ENDMDL
MODEL 7
REMARK VINA RESULT:      -7.3      2.780      6.129
REMARK  Name = 
REMARK  10 active torsions:
REMARK  status: ('A' for Active; 'I' for Inactive)
REMARK    1  A    between atoms: C_2  and  O_3
REMARK    2  A    between atoms: O_3  and  C_4
REMARK    3  A    between atoms: C_4  and  C_6
REMARK    4  A    between atoms: C_6  and  C_7
REMARK    5  A    between atoms: C_6  and  N_15
REMARK    6  A    between atoms: C_7  and  C_8
REMARK    7  A    between atoms: C_8  and  C_9
REMARK    8  A    between atoms: N_15  and  CA_16
REMARK    9  A    between atoms: CA_16  and  C_18
REMARK   10  A    between atoms: C_21  and  C_22
REMARK                            x       y       z     vdW  Elec       q    Type
REMARK                         _______ _______ _______ _____ _____    ______ ____
ROOT
ATOM      1  CA  ALA A   1       2.690   5.186 -10.355  0.00  0.00    +0.149 C 
ATOM      2  CB  ALA A   1       1.321   5.347 -11.252  0.00  0.00    +0.029 C 
ENDROOT
BRANCH   1   3
ATOM      3  C   ALA A   1       3.638   5.833 -11.475  0.00  0.00    +0.242 C 
ATOM      4  N   UNK A   2       5.028   5.752 -11.519  0.00  0.00    -0.272 N 
ATOM      5  C   UNK A   2       5.897   6.394 -10.400  0.00  0.00    +0.076 C 
ATOM      6  C   UNK A   2       7.176   6.833 -11.432  0.00  0.00    +0.020 C 
ATOM      7  C   UNK A   2       7.730   7.908 -10.351  0.00  0.00    +0.002 C 
ATOM      8  C   UNK A   2       8.171   6.947  -9.274  0.00  0.00    +0.000 C 
ATOM      9  C   UNK A   2       8.112   5.507  -9.629  0.00  0.00    +0.002 C 
ATOM     10  C   UNK A   2       6.116   7.812 -12.132  0.00  0.00    +0.033 C 
ATOM     11  C   UNK A   2       6.711   5.025 -10.008  0.00  0.00    +0.020 C 
ATOM     12  C   UNK A   2       5.406   6.510 -12.850  0.00  0.00    +0.179 C 
ATOM     13  O   ALA A   1       2.850   6.612 -12.094  0.00  0.00    -0.273 OA
BRANCH  12  14
ATOM     14  C   UNK A   2       6.773   5.734 -13.202  0.00  0.00    +0.382 C 
ATOM     15  O   UNK A   2       7.536   6.391 -14.151  0.00  0.00    -0.244 OA
ATOM     16  O   UNK A   2       6.896   4.552 -13.101  0.00  0.00    -0.244 OA
ENDBRANCH  12  14
ENDBRANCH   1   3
BRANCH   1  17
ATOM     17  N   ALA A   1       2.452   6.555  -9.604  0.00  0.00    -0.201 NA
BRANCH  17  18
ATOM     18  C   UNK A   0       2.315   5.977  -8.138  0.00  0.00    +0.172 C 
BRANCH  18  19
ATOM     19  C   UNK A   0       1.698   7.319  -7.516  0.00  0.00    +0.333 C 
ATOM     20  O   UNK A   0       2.039   8.424  -7.710  0.00  0.00    -0.249 OA
BRANCH  19  21
ATOM     21  O   UNK A   0       1.088   7.031  -6.333  0.00  0.00    -0.448 OA
BRANCH  21  23
ATOM     22  C   UNK A   0       0.801   5.465  -4.520  0.00  0.00    +0.051 C 
ATOM     23  C   UNK A   0       0.684   5.865  -5.803  0.00  0.00    +0.209 C 
ENDBRANCH  21  23
ENDBRANCH  19  21
ENDBRANCH  18  19
BRANCH  18  24
ATOM     24  C   UNK A   0       3.861   6.352  -7.714  0.00  0.00    +0.033 C 
BRANCH  24  25
ATOM     25  C   UNK A   0       4.380   5.332  -6.824  0.00  0.00    +0.028 C 
BRANCH  25  26
ATOM     26  C   UNK A   0       4.491   5.678  -5.403  0.00  0.00    -0.022 A 
ATOM     27  C   UNK A   0       4.422   4.783  -4.368  0.00  0.00    -0.004 A 
ATOM     28  C   UNK A   0       4.364   5.235  -3.066  0.00  0.00    -0.000 A 
ATOM     29  C   UNK A   0       4.387   6.579  -2.796  0.00  0.00    -0.000 A 
ATOM     30  C   UNK A   0       4.367   7.476  -3.827  0.00  0.00    -0.000 A 
ATOM     31  C   UNK A   0       4.416   7.038  -5.120  0.00  0.00    -0.004 A 
ENDBRANCH  25  26
ENDBRANCH  24  25
ENDBRANCH  18  24
ENDBRANCH  17  18
ENDBRANCH   1  17
TORSDOF 10
ENDMDL
MODEL 8
REMARK VINA RESULT:      -7.1      2.664      8.517
REMARK  Name = 
REMARK  10 active torsions:
REMARK  status: ('A' for Active; 'I' for Inactive)
REMARK    1  A    between atoms: C_2  and  O_3
REMARK    2  A    between atoms: O_3  and  C_4
REMARK    3  A    between atoms: C_4  and  C_6
REMARK    4  A    between atoms: C_6  and  C_7
REMARK    5  A    between atoms: C_6  and  N_15
REMARK    6  A    between atoms: C_7  and  C_8
REMARK    7  A    between atoms: C_8  and  C_9
REMARK    8  A    between atoms: N_15  and  CA_16
REMARK    9  A    between atoms: CA_16  and  C_18
REMARK   10  A    between atoms: C_21  and  C_22
REMARK                            x       y       z     vdW  Elec       q    Type
REMARK                         _______ _______ _______ _____ _____    ______ ____
ROOT
ATOM      1  CA  ALA A   1       4.458   6.099  -5.641  0.00  0.00    +0.149 C 
ATOM      2  CB  ALA A   1       3.226   7.156  -5.908  0.00  0.00    +0.029 C 
ENDROOT
BRANCH   1   3
ATOM      3  C   ALA A   1       3.733   5.391  -4.399  0.00  0.00    +0.242 C 
ATOM      4  N   UNK A   2       3.288   6.024  -3.240  0.00  0.00    -0.272 N 
ATOM      5  C   UNK A   2       4.294   6.710  -2.273  0.00  0.00    +0.076 C 
ATOM      6  C   UNK A   2       3.428   6.335  -0.858  0.00  0.00    +0.020 C 
ATOM      7  C   UNK A   2       4.742   6.585   0.059  0.00  0.00    +0.002 C 
ATOM      8  C   UNK A   2       4.886   8.073  -0.144  0.00  0.00    +0.000 C 
ATOM      9  C   UNK A   2       3.784   8.735  -0.885  0.00  0.00    +0.002 C 
ATOM     10  C   UNK A   2       3.745   4.803  -1.214  0.00  0.00    +0.033 C 
ATOM     11  C   UNK A   2       3.576   8.185  -2.297  0.00  0.00    +0.020 C 
ATOM     12  C   UNK A   2       2.615   4.861  -2.412  0.00  0.00    +0.179 C 
ATOM     13  O   ALA A   1       3.923   4.157  -4.629  0.00  0.00    -0.273 OA
BRANCH  12  14
ATOM     14  C   UNK A   2       1.532   5.728  -1.594  0.00  0.00    +0.382 C 
ATOM     15  O   UNK A   2       1.200   5.164  -0.376  0.00  0.00    -0.244 OA
ATOM     16  O   UNK A   2       0.732   6.438  -2.123  0.00  0.00    -0.244 OA
ENDBRANCH  12  14
ENDBRANCH   1   3
BRANCH   1  17
ATOM     17  N   ALA A   1       3.903   5.066  -6.699  0.00  0.00    -0.201 NA
BRANCH  17  18
ATOM     18  C   UNK A   0       4.134   5.940  -7.997  0.00  0.00    +0.172 C 
BRANCH  18  19
ATOM     19  C   UNK A   0       2.977   5.230  -8.850  0.00  0.00    +0.333 C 
ATOM     20  O   UNK A   0       2.864   4.090  -9.099  0.00  0.00    -0.249 OA
BRANCH  19  21
ATOM     21  O   UNK A   0       2.427   6.135  -9.707  0.00  0.00    -0.448 OA
BRANCH  21  23
ATOM     22  C   UNK A   0       2.860   5.897 -12.068  0.00  0.00    +0.051 C 
ATOM     23  C   UNK A   0       2.056   6.029 -10.993  0.00  0.00    +0.209 C 
ENDBRANCH  21  23
ENDBRANCH  19  21
ENDBRANCH  18  19
BRANCH  18  24
ATOM     24  C   UNK A   0       5.326   4.970  -8.588  0.00  0.00    +0.033 C 
BRANCH  24  25
ATOM     25  C   UNK A   0       6.495   5.772  -8.893  0.00  0.00    +0.028 C 
BRANCH  25  26
ATOM     26  C   UNK A   0       6.877   5.886 -10.304  0.00  0.00    -0.022 A 
ATOM     27  C   UNK A   0       7.997   5.330 -10.864  0.00  0.00    -0.004 A 
ATOM     28  C   UNK A   0       8.351   5.644 -12.159  0.00  0.00    -0.000 A 
ATOM     29  C   UNK A   0       7.582   6.503 -12.901  0.00  0.00    -0.000 A 
ATOM     30  C   UNK A   0       6.514   7.127 -12.320  0.00  0.00    -0.000 A 
ATOM     31  C   UNK A   0       6.161   6.829 -11.034  0.00  0.00    -0.004 A 
ENDBRANCH  25  26
ENDBRANCH  24  25
ENDBRANCH  18  24
ENDBRANCH  17  18
ENDBRANCH   1  17
TORSDOF 10
ENDMDL
MODEL 9
REMARK VINA RESULT:      -7.1      2.611      5.379
REMARK  Name = 
REMARK  10 active torsions:
REMARK  status: ('A' for Active; 'I' for Inactive)
REMARK    1  A    between atoms: C_2  and  O_3
REMARK    2  A    between atoms: O_3  and  C_4
REMARK    3  A    between atoms: C_4  and  C_6
REMARK    4  A    between atoms: C_6  and  C_7
REMARK    5  A    between atoms: C_6  and  N_15
REMARK    6  A    between atoms: C_7  and  C_8
REMARK    7  A    between atoms: C_8  and  C_9
REMARK    8  A    between atoms: N_15  and  CA_16
REMARK    9  A    between atoms: CA_16  and  C_18
REMARK   10  A    between atoms: C_21  and  C_22
REMARK                            x       y       z     vdW  Elec       q    Type
REMARK                         _______ _______ _______ _____ _____    ______ ____
ROOT
ATOM      1  CA  ALA A   1      -1.141   5.014  -5.607  0.00  0.00    +0.149 C 
ATOM      2  CB  ALA A   1      -2.467   5.458  -6.475  0.00  0.00    +0.029 C 
ENDROOT
BRANCH   1   3
ATOM      3  C   ALA A   1      -0.105   5.452  -6.750  0.00  0.00    +0.242 C 
ATOM      4  N   UNK A   2       1.269   5.220  -6.743  0.00  0.00    -0.272 N 
ATOM      5  C   UNK A   2       2.178   5.866  -5.659  0.00  0.00    +0.076 C 
ATOM      6  C   UNK A   2       3.519   6.071  -6.684  0.00  0.00    +0.020 C 
ATOM      7  C   UNK A   2       4.163   7.175  -5.687  0.00  0.00    +0.002 C 
ATOM      8  C   UNK A   2       4.473   6.276  -4.516  0.00  0.00    +0.000 C 
ATOM      9  C   UNK A   2       4.266   4.824  -4.742  0.00  0.00    +0.002 C 
ATOM     10  C   UNK A   2       2.587   7.088  -7.502  0.00  0.00    +0.033 C 
ATOM     11  C   UNK A   2       2.830   4.460  -5.121  0.00  0.00    +0.020 C 
ATOM     12  C   UNK A   2       1.756   5.808  -8.124  0.00  0.00    +0.179 C 
ATOM     13  O   ALA A   1      -0.790   6.249  -7.461  0.00  0.00    -0.273 OA
BRANCH  12  14
ATOM     14  C   UNK A   2       3.038   4.863  -8.362  0.00  0.00    +0.382 C 
ATOM     15  O   UNK A   2       3.984   5.438  -9.192  0.00  0.00    -0.244 OA
ATOM     16  O   UNK A   2       2.989   3.672  -8.303  0.00  0.00    -0.244 OA
ENDBRANCH  12  14
ENDBRANCH   1   3
BRANCH   1  17
ATOM     17  N   ALA A   1      -1.073   6.402  -4.856  0.00  0.00    -0.201 NA
BRANCH  17  18
ATOM     18  C   UNK A   0      -1.301   5.864  -3.386  0.00  0.00    +0.172 C 
BRANCH  18  19
ATOM     19  C   UNK A   0      -2.076   7.172  -2.878  0.00  0.00    +0.333 C 
ATOM     20  O   UNK A   0      -1.925   8.279  -3.232  0.00  0.00    -0.249 OA
BRANCH  19  21
ATOM     21  O   UNK A   0      -2.551   6.956  -1.620  0.00  0.00    -0.448 OA
BRANCH  21  23
ATOM     22  C   UNK A   0      -1.771   6.645   0.642  0.00  0.00    +0.051 C 
ATOM     23  C   UNK A   0      -2.128   7.393  -0.423  0.00  0.00    +0.209 C 
ENDBRANCH  21  23
ENDBRANCH  19  21
ENDBRANCH  18  19
BRANCH  18  24
ATOM     24  C   UNK A   0       0.164   6.376  -2.839  0.00  0.00    +0.033 C 
BRANCH  24  25
ATOM     25  C   UNK A   0       0.779   5.328  -2.048  0.00  0.00    +0.028 C 
BRANCH  25  26
ATOM     26  C   UNK A   0       2.165   5.542  -1.617  0.00  0.00    -0.022 A 
ATOM     27  C   UNK A   0       3.068   4.547  -1.350  0.00  0.00    -0.004 A 
ATOM     28  C   UNK A   0       4.288   4.854  -0.787  0.00  0.00    -0.000 A 
ATOM     29  C   UNK A   0       4.614   6.155  -0.501  0.00  0.00    -0.000 A 
ATOM     30  C   UNK A   0       3.684   7.140  -0.685  0.00  0.00    -0.000 A 
ATOM     31  C   UNK A   0       2.469   6.844  -1.234  0.00  0.00    -0.004 A 
ENDBRANCH  25  26
ENDBRANCH  24  25
ENDBRANCH  18  24
ENDBRANCH  17  18
ENDBRANCH   1  17
TORSDOF 10
ENDMDL
