MODEL 1
REMARK VINA RESULT:      -9.0      0.000      0.000
REMARK  Name = 
REMARK  7 active torsions:
REMARK  status: ('A' for Active; 'I' for Inactive)
REMARK    1  A    between atoms: C_2  and  C_3
REMARK    2  A    between atoms: C_3  and  C_4
REMARK    3  A    between atoms: C_11  and  C_12
REMARK    4  A    between atoms: C_14  and  S_15
REMARK    5  A    between atoms: S_15  and  N_18
REMARK    6  A    between atoms: C_27  and  O_28
REMARK    7  A    between atoms: O_28  and  C_29
REMARK                            x       y       z     vdW  Elec       q    Type
REMARK                         _______ _______ _______ _____ _____    ______ ____
ROOT
ATOM      1  C   UNL     1       0.379   5.714  -5.428  0.00  0.00    +0.071 A 
ATOM      2  C   UNL     1      -0.951   5.453  -5.739  0.00  0.00    +0.141 A 
ATOM      3  C   UNL     1      -1.202   5.083  -7.044  0.00  0.00    +0.038 A 
ATOM      4  C   UNL     1      -0.238   5.298  -8.020  0.00  0.00    +0.023 A 
ATOM      5  C   UNL     1       0.929   5.999  -7.735  0.00  0.00    +0.122 A 
ATOM      6  C   UNL     1       1.302   6.036  -6.401  0.00  0.00    +0.026 A 
ENDROOT
BRANCH   1  10
ATOM      7  C   UNL     1       2.908   7.340  -1.527  0.00  0.00    +0.098 A 
ATOM      8  C   UNL     1       2.042   6.530  -2.247  0.00  0.00    +0.120 A 
ATOM      9  N   UNL     1       1.857   6.374  -3.578  0.00  0.00    -0.223 NA
ATOM     10  C   UNL     1       0.753   5.730  -4.009  0.00  0.00    +0.169 A 
ATOM     11  N   UNL     1       0.010   5.085  -3.094  0.00  0.00    -0.187 NA
ATOM     12  C   UNL     1       0.020   5.401  -1.779  0.00  0.00    +0.299 A 
ATOM     13  O   UNL     1      -1.035   5.300  -1.083  0.00  0.00    -0.263 OA
ATOM     14  C   UNL     1       1.012   6.263  -1.366  0.00  0.00    +0.154 A 
ATOM     15  N   UNL     1       1.245   6.856  -0.179  0.00  0.00    -0.243 N 
ATOM     16  C   UNL     1       0.275   6.878   0.888  0.00  0.00    +0.154 C 
ATOM     17  N   UNL     1       2.482   7.301  -0.243  0.00  0.00    -0.172 NA
BRANCH   7  18
ATOM     18  C   UNL     1       3.943   8.222  -2.139  0.00  0.00    +0.049 C 
BRANCH  18  20
ATOM     19  C   UNL     1       5.223   7.740  -4.237  0.00  0.00    +0.000 C 
ATOM     20  C   UNL     1       5.063   7.397  -2.762  0.00  0.00    +0.006 C 
ENDBRANCH  18  20
ENDBRANCH   7  18
ENDBRANCH   1  10
BRANCH   5  21
ATOM     21  S   UNL     1       1.670   7.044  -8.941  0.00  0.00    +0.063 S 
ATOM     22  O   UNL     1       0.572   7.436  -9.900  0.00  0.00    -0.153 OA
ATOM     23  O   UNL     1       2.250   8.262  -8.282  0.00  0.00    -0.153 OA
BRANCH  21  24
ATOM     24  N   UNL     1       2.928   6.170  -9.673  0.00  0.00    -0.153 NA
ATOM     25  C   UNL     1       4.235   6.680  -9.490  0.00  0.00    +0.113 C 
ATOM     26  C   UNL     1       4.934   7.161 -10.719  0.00  0.00    +0.092 C 
ATOM     27  N   UNL     1       4.787   6.299 -11.861  0.00  0.00    -0.269 NA
ATOM     28  C   UNL     1       5.513   5.061 -11.756  0.00  0.00    +0.090 C 
ATOM     29  C   UNL     1       3.378   6.129 -12.098  0.00  0.00    +0.092 C 
ATOM     30  C   UNL     1       2.626   5.577 -10.926  0.00  0.00    +0.113 C 
ENDBRANCH  21  24
ENDBRANCH   5  21
BRANCH   2  31
ATOM     31  O   UNL     1      -1.956   5.920  -4.886  0.00  0.00    -0.475 OA
BRANCH  31  32
ATOM     32  C   UNL     1      -2.555   7.183  -5.139  0.00  0.00    +0.206 C 
ATOM     33  C   UNL     1      -1.935   8.290  -4.336  0.00  0.00    +0.051 C 
ENDBRANCH  31  32
ENDBRANCH   2  31
TORSDOF 7
ENDMDL
MODEL 2
REMARK VINA RESULT:      -8.7      2.940      8.933
REMARK  Name = 
REMARK  7 active torsions:
REMARK  status: ('A' for Active; 'I' for Inactive)
REMARK    1  A    between atoms: C_2  and  C_3
REMARK    2  A    between atoms: C_3  and  C_4
REMARK    3  A    between atoms: C_11  and  C_12
REMARK    4  A    between atoms: C_14  and  S_15
REMARK    5  A    between atoms: S_15  and  N_18
REMARK    6  A    between atoms: C_27  and  O_28
REMARK    7  A    between atoms: O_28  and  C_29
REMARK                            x       y       z     vdW  Elec       q    Type
REMARK                         _______ _______ _______ _____ _____    ______ ____
ROOT
ATOM      1  C   UNL     1       3.679   6.246  -8.623  0.00  0.00    +0.071 A 
ATOM      2  C   UNL     1       2.563   6.968  -9.030  0.00  0.00    +0.141 A 
ATOM      3  C   UNL     1       1.950   7.728  -8.055  0.00  0.00    +0.038 A 
ATOM      4  C   UNL     1       2.240   7.498  -6.717  0.00  0.00    +0.023 A 
ATOM      5  C   UNL     1       3.040   6.429  -6.329  0.00  0.00    +0.122 A 
ATOM      6  C   UNL     1       3.895   5.930  -7.298  0.00  0.00    +0.026 A 
ENDROOT
BRANCH   1  10
ATOM      7  C   UNL     1       4.990   5.317 -13.279  0.00  0.00    +0.098 A 
ATOM      8  C   UNL     1       5.074   5.296 -11.895  0.00  0.00    +0.120 A 
ATOM      9  N   UNL     1       4.158   5.564 -10.935  0.00  0.00    -0.223 NA
ATOM     10  C   UNL     1       4.579   5.743  -9.668  0.00  0.00    +0.169 A 
ATOM     11  N   UNL     1       5.854   5.427  -9.382  0.00  0.00    -0.187 NA
ATOM     12  C   UNL     1       6.831   5.387 -10.317  0.00  0.00    +0.299 A 
ATOM     13  O   UNL     1       8.016   5.730 -10.026  0.00  0.00    -0.263 OA
ATOM     14  C   UNL     1       6.421   5.449 -11.631  0.00  0.00    +0.154 A 
ATOM     15  N   UNL     1       7.116   5.540 -12.781  0.00  0.00    -0.243 N 
ATOM     16  C   UNL     1       8.523   5.854 -12.823  0.00  0.00    +0.154 C 
ATOM     17  N   UNL     1       6.262   5.237 -13.735  0.00  0.00    -0.172 NA
BRANCH   7  18
ATOM     18  C   UNL     1       3.742   5.598 -14.044  0.00  0.00    +0.049 C 
BRANCH  18  20
ATOM     19  C   UNL     1       1.372   4.803 -13.885  0.00  0.00    +0.000 C 
ATOM     20  C   UNL     1       2.825   4.381 -14.056  0.00  0.00    +0.006 C 
ENDBRANCH  18  20
ENDBRANCH   7  18
ENDBRANCH   1  10
BRANCH   5  21
ATOM     21  S   UNL     1       2.726   5.567  -4.827  0.00  0.00    +0.063 S 
ATOM     22  O   UNL     1       3.548   4.301  -4.881  0.00  0.00    -0.153 OA
ATOM     23  O   UNL     1       3.139   6.409  -3.654  0.00  0.00    -0.153 OA
BRANCH  21  24
ATOM     24  N   UNL     1       1.056   5.288  -4.735  0.00  0.00    -0.153 NA
ATOM     25  C   UNL     1       0.461   4.663  -5.857  0.00  0.00    +0.113 C 
ATOM     26  C   UNL     1      -0.530   5.480  -6.618  0.00  0.00    +0.092 C 
ATOM     27  N   UNL     1      -1.449   6.219  -5.794  0.00  0.00    -0.269 NA
ATOM     28  C   UNL     1      -2.422   5.400  -5.123  0.00  0.00    +0.090 C 
ATOM     29  C   UNL     1      -0.669   7.042  -4.908  0.00  0.00    +0.092 C 
ATOM     30  C   UNL     1       0.296   6.276  -4.057  0.00  0.00    +0.113 C 
ENDBRANCH  21  24
ENDBRANCH   5  21
BRANCH   2  31
ATOM     31  O   UNL     1       1.920   6.618 -10.221  0.00  0.00    -0.475 OA
BRANCH  31  32
ATOM     32  C   UNL     1       0.509   6.450 -10.230  0.00  0.00    +0.206 C 
ATOM     33  C   UNL     1       0.098   5.008 -10.328  0.00  0.00    +0.051 C 
ENDBRANCH  31  32
ENDBRANCH   2  31
TORSDOF 7
ENDMDL
MODEL 3
REMARK VINA RESULT:      -8.6      1.669      2.197
REMARK  Name = 
REMARK  7 active torsions:
REMARK  status: ('A' for Active; 'I' for Inactive)
REMARK    1  A    between atoms: C_2  and  C_3
REMARK    2  A    between atoms: C_3  and  C_4
REMARK    3  A    between atoms: C_11  and  C_12
REMARK    4  A    between atoms: C_14  and  S_15
REMARK    5  A    between atoms: S_15  and  N_18
REMARK    6  A    between atoms: C_27  and  O_28
REMARK    7  A    between atoms: O_28  and  C_29
REMARK                            x       y       z     vdW  Elec       q    Type
REMARK                         _______ _______ _______ _____ _____    ______ ____
ROOT
ATOM      1  C   UNL     1       0.336   5.414  -4.699  0.00  0.00    +0.071 A 
ATOM      2  C   UNL     1      -0.840   6.015  -5.131  0.00  0.00    +0.141 A 
ATOM      3  C   UNL     1      -1.293   5.626  -6.375  0.00  0.00    +0.038 A 
ATOM      4  C   UNL     1      -0.441   4.951  -7.239  0.00  0.00    +0.023 A 
ATOM      5  C   UNL     1       0.902   4.772  -6.930  0.00  0.00    +0.122 A 
ATOM      6  C   UNL     1       1.228   4.844  -5.584  0.00  0.00    +0.026 A 
ENDROOT
BRANCH   1  10
ATOM      7  C   UNL     1       3.094   6.697  -0.825  0.00  0.00    +0.098 A 
ATOM      8  C   UNL     1       2.055   6.089  -1.514  0.00  0.00    +0.120 A 
ATOM      9  N   UNL     1       1.878   5.837  -2.833  0.00  0.00    -0.223 NA
ATOM     10  C   UNL     1       0.651   5.489  -3.267  0.00  0.00    +0.169 A 
ATOM     11  N   UNL     1      -0.279   5.192  -2.343  0.00  0.00    -0.187 NA
ATOM     12  C   UNL     1      -0.222   5.644  -1.069  0.00  0.00    +0.299 A 
ATOM     13  O   UNL     1      -1.284   5.929  -0.438  0.00  0.00    -0.263 OA
ATOM     14  C   UNL     1       0.963   6.230  -0.681  0.00  0.00    +0.154 A 
ATOM     15  N   UNL     1       1.317   6.867   0.452  0.00  0.00    -0.243 N 
ATOM     16  C   UNL     1       0.360   7.289   1.444  0.00  0.00    +0.154 C 
ATOM     17  N   UNL     1       2.631   6.931   0.425  0.00  0.00    -0.172 NA
BRANCH   7  18
ATOM     18  C   UNL     1       4.361   7.170  -1.454  0.00  0.00    +0.049 C 
BRANCH  18  20
ATOM     19  C   UNL     1       4.811   7.862  -3.819  0.00  0.00    +0.000 C 
ATOM     20  C   UNL     1       4.079   8.212  -2.530  0.00  0.00    +0.006 C 
ENDBRANCH  18  20
ENDBRANCH   7  18
ENDBRANCH   1  10
BRANCH   5  21
ATOM     21  S   UNL     1       2.129   4.798  -8.190  0.00  0.00    +0.063 S 
ATOM     22  O   UNL     1       3.368   5.396  -7.567  0.00  0.00    -0.153 OA
ATOM     23  O   UNL     1       2.406   3.403  -8.670  0.00  0.00    -0.153 OA
BRANCH  21  24
ATOM     24  N   UNL     1       1.516   5.707  -9.484  0.00  0.00    -0.153 NA
ATOM     25  C   UNL     1       0.444   5.129 -10.206  0.00  0.00    +0.113 C 
ATOM     26  C   UNL     1       0.721   4.780 -11.631  0.00  0.00    +0.092 C 
ATOM     27  N   UNL     1       1.452   5.783 -12.357  0.00  0.00    -0.269 NA
ATOM     28  C   UNL     1       0.690   6.969 -12.644  0.00  0.00    +0.090 C 
ATOM     29  C   UNL     1       2.673   6.035 -11.638  0.00  0.00    +0.092 C 
ATOM     30  C   UNL     1       2.465   6.464 -10.219  0.00  0.00    +0.113 C 
ENDBRANCH  21  24
ENDBRANCH   5  21
BRANCH   2  31
ATOM     31  O   UNL     1      -1.276   7.189  -4.509  0.00  0.00    -0.475 OA
BRANCH  31  32
ATOM     32  C   UNL     1      -2.668   7.408  -4.328  0.00  0.00    +0.206 C 
ATOM     33  C   UNL     1      -3.263   6.517  -3.276  0.00  0.00    +0.051 C 
ENDBRANCH  31  32
ENDBRANCH   2  31
TORSDOF 7
ENDMDL
MODEL 4
REMARK VINA RESULT:      -8.5      2.695      9.170
REMARK  Name = 
REMARK  7 active torsions:
REMARK  status: ('A' for Active; 'I' for Inactive)
REMARK    1  A    between atoms: C_2  and  C_3
REMARK    2  A    between atoms: C_3  and  C_4
REMARK    3  A    between atoms: C_11  and  C_12
REMARK    4  A    between atoms: C_14  and  S_15
REMARK    5  A    between atoms: S_15  and  N_18
REMARK    6  A    between atoms: C_27  and  O_28
REMARK    7  A    between atoms: O_28  and  C_29
REMARK                            x       y       z     vdW  Elec       q    Type
REMARK                         _______ _______ _______ _____ _____    ______ ____
ROOT
ATOM      1  C   UNL     1       3.613   6.164  -8.617  0.00  0.00    +0.071 A 
ATOM      2  C   UNL     1       2.452   6.797  -9.046  0.00  0.00    +0.141 A 
ATOM      3  C   UNL     1       1.782   7.535  -8.092  0.00  0.00    +0.038 A 
ATOM      4  C   UNL     1       2.080   7.357  -6.747  0.00  0.00    +0.023 A 
ATOM      5  C   UNL     1       2.949   6.356  -6.330  0.00  0.00    +0.122 A 
ATOM      6  C   UNL     1       3.843   5.894  -7.284  0.00  0.00    +0.026 A 
ENDROOT
BRANCH   1  10
ATOM      7  C   UNL     1       5.095   5.405 -13.253  0.00  0.00    +0.098 A 
ATOM      8  C   UNL     1       5.129   5.334 -11.868  0.00  0.00    +0.120 A 
ATOM      9  N   UNL     1       4.177   5.566 -10.934  0.00  0.00    -0.223 NA
ATOM     10  C   UNL     1       4.552   5.700  -9.646  0.00  0.00    +0.169 A 
ATOM     11  N   UNL     1       5.816   5.375  -9.326  0.00  0.00    -0.187 NA
ATOM     12  C   UNL     1       6.827   5.371 -10.225  0.00  0.00    +0.299 A 
ATOM     13  O   UNL     1       8.000   5.704  -9.878  0.00  0.00    -0.263 OA
ATOM     14  C   UNL     1       6.465   5.480 -11.550  0.00  0.00    +0.154 A 
ATOM     15  N   UNL     1       7.201   5.613 -12.670  0.00  0.00    -0.243 N 
ATOM     16  C   UNL     1       8.608   5.930 -12.648  0.00  0.00    +0.154 C 
ATOM     17  N   UNL     1       6.384   5.344 -13.665  0.00  0.00    -0.172 NA
BRANCH   7  18
ATOM     18  C   UNL     1       3.875   5.712 -14.052  0.00  0.00    +0.049 C 
BRANCH  18  20
ATOM     19  C   UNL     1       1.482   4.986 -13.915  0.00  0.00    +0.000 C 
ATOM     20  C   UNL     1       2.923   4.522 -14.073  0.00  0.00    +0.006 C 
ENDBRANCH  18  20
ENDBRANCH   7  18
ENDBRANCH   1  10
BRANCH   5  21
ATOM     21  S   UNL     1       2.687   5.510  -4.810  0.00  0.00    +0.063 S 
ATOM     22  O   UNL     1       1.325   4.866  -4.908  0.00  0.00    -0.153 OA
ATOM     23  O   UNL     1       3.747   4.465  -4.612  0.00  0.00    -0.153 OA
BRANCH  21  24
ATOM     24  N   UNL     1       2.808   6.651  -3.560  0.00  0.00    -0.153 NA
ATOM     25  C   UNL     1       3.912   7.534  -3.621  0.00  0.00    +0.113 C 
ATOM     26  C   UNL     1       4.915   7.413  -2.522  0.00  0.00    +0.092 C 
ATOM     27  N   UNL     1       4.344   7.268  -1.210  0.00  0.00    -0.269 NA
ATOM     28  C   UNL     1       3.721   8.462  -0.707  0.00  0.00    +0.090 C 
ATOM     29  C   UNL     1       3.470   6.125  -1.243  0.00  0.00    +0.092 C 
ATOM     30  C   UNL     1       2.390   6.214  -2.276  0.00  0.00    +0.113 C 
ENDBRANCH  21  24
ENDBRANCH   5  21
BRANCH   2  31
ATOM     31  O   UNL     1       1.842   6.376 -10.231  0.00  0.00    -0.475 OA
BRANCH  31  32
ATOM     32  C   UNL     1       0.426   6.275 -10.290  0.00  0.00    +0.206 C 
ATOM     33  C   UNL     1      -0.182   7.213 -11.293  0.00  0.00    +0.051 C 
ENDBRANCH  31  32
ENDBRANCH   2  31
TORSDOF 7
ENDMDL
MODEL 5
REMARK VINA RESULT:      -8.3      2.998     10.239
REMARK  Name = 
REMARK  7 active torsions:
REMARK  status: ('A' for Active; 'I' for Inactive)
REMARK    1  A    between atoms: C_2  and  C_3
REMARK    2  A    between atoms: C_3  and  C_4
REMARK    3  A    between atoms: C_11  and  C_12
REMARK    4  A    between atoms: C_14  and  S_15
REMARK    5  A    between atoms: S_15  and  N_18
REMARK    6  A    between atoms: C_27  and  O_28
REMARK    7  A    between atoms: O_28  and  C_29
REMARK                            x       y       z     vdW  Elec       q    Type
REMARK                         _______ _______ _______ _____ _____    ______ ____
ROOT
ATOM      1  C   UNL     1       4.463   5.711 -10.596  0.00  0.00    +0.071 A 
ATOM      2  C   UNL     1       5.784   5.789 -10.171  0.00  0.00    +0.141 A 
ATOM      3  C   UNL     1       6.023   5.385  -8.873  0.00  0.00    +0.038 A 
ATOM      4  C   UNL     1       4.963   5.247  -7.987  0.00  0.00    +0.023 A 
ATOM      5  C   UNL     1       3.676   5.632  -8.342  0.00  0.00    +0.122 A 
ATOM      6  C   UNL     1       3.413   5.686  -9.702  0.00  0.00    +0.026 A 
ENDROOT
BRANCH   1  10
ATOM      7  C   UNL     1       1.725   6.568 -14.599  0.00  0.00    +0.098 A 
ATOM      8  C   UNL     1       2.816   6.133 -13.861  0.00  0.00    +0.120 A 
ATOM      9  N   UNL     1       2.967   5.896 -12.537  0.00  0.00    -0.223 NA
ATOM     10  C   UNL     1       4.212   5.752 -12.042  0.00  0.00    +0.169 A 
ATOM     11  N   UNL     1       5.223   5.629 -12.919  0.00  0.00    -0.187 NA
ATOM     12  C   UNL     1       5.155   6.082 -14.191  0.00  0.00    +0.299 A 
ATOM     13  O   UNL     1       6.184   6.551 -14.765  0.00  0.00    -0.263 OA
ATOM     14  C   UNL     1       3.909   6.467 -14.636  0.00  0.00    +0.154 A 
ATOM     15  N   UNL     1       3.509   7.051 -15.782  0.00  0.00    -0.243 N 
ATOM     16  C   UNL     1       4.430   7.642 -16.721  0.00  0.00    +0.154 C 
ATOM     17  N   UNL     1       2.204   6.895 -15.823  0.00  0.00    -0.172 NA
BRANCH   7  18
ATOM     18  C   UNL     1       0.367   6.814 -14.034  0.00  0.00    +0.049 C 
BRANCH  18  20
ATOM     19  C   UNL     1      -0.239   7.409 -11.678  0.00  0.00    +0.000 C 
ATOM     20  C   UNL     1       0.410   7.899 -12.965  0.00  0.00    +0.006 C 
ENDBRANCH  18  20
ENDBRANCH   7  18
ENDBRANCH   1  10
BRANCH   5  21
ATOM     21  S   UNL     1       2.582   6.329  -7.152  0.00  0.00    +0.063 S 
ATOM     22  O   UNL     1       2.602   7.822  -7.376  0.00  0.00    -0.153 OA
ATOM     23  O   UNL     1       1.195   5.789  -7.348  0.00  0.00    -0.153 OA
BRANCH  21  24
ATOM     24  N   UNL     1       3.135   5.868  -5.616  0.00  0.00    -0.153 NA
ATOM     25  C   UNL     1       2.290   5.005  -4.878  0.00  0.00    +0.113 C 
ATOM     26  C   UNL     1       1.713   5.564  -3.619  0.00  0.00    +0.092 C 
ATOM     27  N   UNL     1       2.647   6.308  -2.817  0.00  0.00    -0.269 NA
ATOM     28  C   UNL     1       3.643   5.495  -2.172  0.00  0.00    +0.090 C 
ATOM     29  C   UNL     1       3.193   7.350  -3.645  0.00  0.00    +0.092 C 
ATOM     30  C   UNL     1       3.856   6.852  -4.892  0.00  0.00    +0.113 C 
ENDBRANCH  21  24
ENDBRANCH   5  21
BRANCH   2  31
ATOM     31  O   UNL     1       6.687   6.581 -10.887  0.00  0.00    -0.475 OA
BRANCH  31  32
ATOM     32  C   UNL     1       8.077   6.297 -10.812  0.00  0.00    +0.206 C 
ATOM     33  C   UNL     1       8.634   5.785 -12.110  0.00  0.00    +0.051 C 
ENDBRANCH  31  32
ENDBRANCH   2  31
TORSDOF 7
ENDMDL
MODEL 6
REMARK VINA RESULT:      -8.2      2.636      8.636
REMARK  Name = 
REMARK  7 active torsions:
REMARK  status: ('A' for Active; 'I' for Inactive)
REMARK    1  A    between atoms: C_2  and  C_3
REMARK    2  A    between atoms: C_3  and  C_4
REMARK    3  A    between atoms: C_11  and  C_12
REMARK    4  A    between atoms: C_14  and  S_15
REMARK    5  A    between atoms: S_15  and  N_18
REMARK    6  A    between atoms: C_27  and  O_28
REMARK    7  A    between atoms: O_28  and  C_29
REMARK                            x       y       z     vdW  Elec       q    Type
REMARK                         _______ _______ _______ _____ _____    ______ ____
ROOT
ATOM      1  C   UNL     1       1.901   5.365  -8.738  0.00  0.00    +0.071 A 
ATOM      2  C   UNL     1       2.796   4.344  -8.443  0.00  0.00    +0.141 A 
ATOM      3  C   UNL     1       2.509   3.600  -7.316  0.00  0.00    +0.038 A 
ATOM      4  C   UNL     1       1.592   4.078  -6.389  0.00  0.00    +0.023 A 
ATOM      5  C   UNL     1       1.051   5.353  -6.506  0.00  0.00    +0.122 A 
ATOM      6  C   UNL     1       1.073   5.906  -7.777  0.00  0.00    +0.026 A 
ENDROOT
BRANCH   1  10
ATOM      7  C   UNL     1       3.651   5.782 -13.324  0.00  0.00    +0.098 A 
ATOM      8  C   UNL     1       2.872   6.084 -12.216  0.00  0.00    +0.120 A 
ATOM      9  N   UNL     1       2.984   5.725 -10.916  0.00  0.00    -0.223 NA
ATOM     10  C   UNL     1       1.932   5.923 -10.096  0.00  0.00    +0.169 A 
ATOM     11  N   UNL     1       0.913   6.669 -10.556  0.00  0.00    -0.187 NA
ATOM     12  C   UNL     1       0.660   6.839 -11.874  0.00  0.00    +0.299 A 
ATOM     13  O   UNL     1      -0.532   6.943 -12.293  0.00  0.00    -0.263 OA
ATOM     14  C   UNL     1       1.638   6.410 -12.744  0.00  0.00    +0.154 A 
ATOM     15  N   UNL     1       1.668   6.331 -14.088  0.00  0.00    -0.243 N 
ATOM     16  C   UNL     1       0.489   6.470 -14.906  0.00  0.00    +0.154 C 
ATOM     17  N   UNL     1       2.935   6.170 -14.405  0.00  0.00    -0.172 NA
BRANCH   7  18
ATOM     18  C   UNL     1       4.913   4.990 -13.277  0.00  0.00    +0.049 C 
BRANCH  18  20
ATOM     19  C   UNL     1       7.374   5.250 -12.890  0.00  0.00    +0.000 C 
ATOM     20  C   UNL     1       6.127   5.884 -13.493  0.00  0.00    +0.006 C 
ENDBRANCH  18  20
ENDBRANCH   7  18
ENDBRANCH   1  10
BRANCH   5  21
ATOM     21  S   UNL     1       0.687   6.312  -5.076  0.00  0.00    +0.063 S 
ATOM     22  O   UNL     1      -0.278   7.386  -5.517  0.00  0.00    -0.153 OA
ATOM     23  O   UNL     1       0.061   5.447  -4.021  0.00  0.00    -0.153 OA
BRANCH  21  24
ATOM     24  N   UNL     1       2.154   6.922  -4.481  0.00  0.00    -0.153 NA
ATOM     25  C   UNL     1       3.200   7.071  -5.422  0.00  0.00    +0.113 C 
ATOM     26  C   UNL     1       4.401   6.207  -5.215  0.00  0.00    +0.092 C 
ATOM     27  N   UNL     1       4.840   6.118  -3.849  0.00  0.00    -0.269 NA
ATOM     28  C   UNL     1       5.442   7.325  -3.347  0.00  0.00    +0.090 C 
ATOM     29  C   UNL     1       3.726   5.654  -3.065  0.00  0.00    +0.092 C 
ATOM     30  C   UNL     1       2.508   6.519  -3.167  0.00  0.00    +0.113 C 
ENDBRANCH  21  24
ENDBRANCH   5  21
BRANCH   2  31
ATOM     31  O   UNL     1       4.065   4.357  -9.029  0.00  0.00    -0.475 OA
BRANCH  31  32
ATOM     32  C   UNL     1       5.143   4.984  -8.346  0.00  0.00    +0.206 C 
ATOM     33  C   UNL     1       6.114   5.646  -9.281  0.00  0.00    +0.051 C 
ENDBRANCH  31  32
ENDBRANCH   2  31
TORSDOF 7
ENDMDL
MODEL 7
REMARK VINA RESULT:      -8.2      2.222      3.701
REMARK  Name = 
REMARK  7 active torsions:
REMARK  status: ('A' for Active; 'I' for Inactive)
REMARK    1  A    between atoms: C_2  and  C_3
REMARK    2  A    between atoms: C_3  and  C_4
REMARK    3  A    between atoms: C_11  and  C_12
REMARK    4  A    between atoms: C_14  and  S_15
REMARK    5  A    between atoms: S_15  and  N_18
REMARK    6  A    between atoms: C_27  and  O_28
REMARK    7  A    between atoms: O_28  and  C_29
REMARK                            x       y       z     vdW  Elec       q    Type
REMARK                         _______ _______ _______ _____ _____    ______ ____
ROOT
ATOM      1  C   UNL     1       2.779   5.508  -6.583  0.00  0.00    +0.071 A 
ATOM      2  C   UNL     1       1.866   4.479  -6.781  0.00  0.00    +0.141 A 
ATOM      3  C   UNL     1       2.137   3.629  -7.834  0.00  0.00    +0.038 A 
ATOM      4  C   UNL     1       3.059   4.003  -8.803  0.00  0.00    +0.023 A 
ATOM      5  C   UNL     1       3.622   5.274  -8.806  0.00  0.00    +0.122 A 
ATOM      6  C   UNL     1       3.613   5.943  -7.592  0.00  0.00    +0.026 A 
ENDROOT
BRANCH   1  10
ATOM      7  C   UNL     1       1.443   6.043  -1.872  0.00  0.00    +0.098 A 
ATOM      8  C   UNL     1       2.024   6.378  -3.086  0.00  0.00    +0.120 A 
ATOM      9  N   UNL     1       1.865   5.867  -4.329  0.00  0.00    -0.223 NA
ATOM     10  C   UNL     1       2.762   6.190  -5.283  0.00  0.00    +0.169 A 
ATOM     11  N   UNL     1       3.634   7.175  -5.012  0.00  0.00    -0.187 NA
ATOM     12  C   UNL     1       3.974   7.534  -3.752  0.00  0.00    +0.299 A 
ATOM     13  O   UNL     1       5.150   7.928  -3.489  0.00  0.00    -0.263 OA
ATOM     14  C   UNL     1       3.203   7.008  -2.739  0.00  0.00    +0.154 A 
ATOM     15  N   UNL     1       3.324   7.069  -1.399  0.00  0.00    -0.243 N 
ATOM     16  C   UNL     1       4.520   7.536  -0.742  0.00  0.00    +0.154 C 
ATOM     17  N   UNL     1       2.161   6.684  -0.920  0.00  0.00    -0.172 NA
BRANCH   7  18
ATOM     18  C   UNL     1       0.386   5.005  -1.701  0.00  0.00    +0.049 C 
BRANCH  18  20
ATOM     19  C   UNL     1      -1.947   5.599  -2.393  0.00  0.00    +0.000 C 
ATOM     20  C   UNL     1      -0.930   5.635  -1.260  0.00  0.00    +0.006 C 
ENDBRANCH  18  20
ENDBRANCH   7  18
ENDBRANCH   1  10
BRANCH   5  21
ATOM     21  S   UNL     1       3.997   6.091 -10.319  0.00  0.00    +0.063 S 
ATOM     22  O   UNL     1       2.929   5.677 -11.303  0.00  0.00    -0.153 OA
ATOM     23  O   UNL     1       3.977   7.579 -10.120  0.00  0.00    -0.153 OA
BRANCH  21  24
ATOM     24  N   UNL     1       5.561   5.623 -10.780  0.00  0.00    -0.153 NA
ATOM     25  C   UNL     1       6.617   6.055  -9.943  0.00  0.00    +0.113 C 
ATOM     26  C   UNL     1       7.592   7.011 -10.550  0.00  0.00    +0.092 C 
ATOM     27  N   UNL     1       7.994   6.676 -11.889  0.00  0.00    -0.269 NA
ATOM     28  C   UNL     1       8.851   5.524 -11.973  0.00  0.00    +0.090 C 
ATOM     29  C   UNL     1       6.802   6.575 -12.688  0.00  0.00    +0.092 C 
ATOM     30  C   UNL     1       5.810   5.576 -12.176  0.00  0.00    +0.113 C 
ENDBRANCH  21  24
ENDBRANCH   5  21
BRANCH   2  31
ATOM     31  O   UNL     1       0.599   4.567  -6.196  0.00  0.00    -0.475 OA
BRANCH  31  32
ATOM     32  C   UNL     1      -0.476   5.120  -6.942  0.00  0.00    +0.206 C 
ATOM     33  C   UNL     1      -1.603   5.596  -6.071  0.00  0.00    +0.051 C 
ENDBRANCH  31  32
ENDBRANCH   2  31
TORSDOF 7
ENDMDL
MODEL 8
REMARK VINA RESULT:      -8.1      1.958      3.365
REMARK  Name = 
REMARK  7 active torsions:
REMARK  status: ('A' for Active; 'I' for Inactive)
REMARK    1  A    between atoms: C_2  and  C_3
REMARK    2  A    between atoms: C_3  and  C_4
REMARK    3  A    between atoms: C_11  and  C_12
REMARK    4  A    between atoms: C_14  and  S_15
REMARK    5  A    between atoms: S_15  and  N_18
REMARK    6  A    between atoms: C_27  and  O_28
REMARK    7  A    between atoms: O_28  and  C_29
REMARK                            x       y       z     vdW  Elec       q    Type
REMARK                         _______ _______ _______ _____ _____    ______ ____
ROOT
ATOM      1  C   UNL     1       1.007   6.310  -6.659  0.00  0.00    +0.071 A 
ATOM      2  C   UNL     1       2.069   7.187  -6.471  0.00  0.00    +0.141 A 
ATOM      3  C   UNL     1       2.480   7.882  -7.589  0.00  0.00    +0.038 A 
ATOM      4  C   UNL     1       2.076   7.463  -8.850  0.00  0.00    +0.023 A 
ATOM      5  C   UNL     1       1.369   6.278  -9.020  0.00  0.00    +0.122 A 
ATOM      6  C   UNL     1       0.687   5.814  -7.906  0.00  0.00    +0.026 A 
ENDROOT
BRANCH   1  10
ATOM      7  C   UNL     1       0.652   5.030  -1.916  0.00  0.00    +0.098 A 
ATOM      8  C   UNL     1       0.245   5.208  -3.230  0.00  0.00    +0.120 A 
ATOM      9  N   UNL     1       0.948   5.427  -4.365  0.00  0.00    -0.223 NA
ATOM     10  C   UNL     1       0.290   5.846  -5.465  0.00  0.00    +0.169 A 
ATOM     11  N   UNL     1      -1.053   5.810  -5.441  0.00  0.00    -0.187 NA
ATOM     12  C   UNL     1      -1.771   5.826  -4.295  0.00  0.00    +0.299 A 
ATOM     13  O   UNL     1      -2.893   6.416  -4.245  0.00  0.00    -0.263 OA
ATOM     14  C   UNL     1      -1.063   5.639  -3.128  0.00  0.00    +0.154 A 
ATOM     15  N   UNL     1      -1.436   5.702  -1.835  0.00  0.00    -0.243 N 
ATOM     16  C   UNL     1      -2.696   6.261  -1.411  0.00  0.00    +0.154 C 
ATOM     17  N   UNL     1      -0.466   5.125  -1.158  0.00  0.00    -0.172 NA
BRANCH   7  18
ATOM     18  C   UNL     1       2.075   4.974  -1.473  0.00  0.00    +0.049 C 
BRANCH  18  20
ATOM     19  C   UNL     1       4.137   6.307  -0.981  0.00  0.00    +0.000 C 
ATOM     20  C   UNL     1       2.655   6.375  -1.323  0.00  0.00    +0.006 C 
ENDBRANCH  18  20
ENDBRANCH   7  18
ENDBRANCH   1  10
BRANCH   5  21
ATOM     21  S   UNL     1       1.616   5.277 -10.446  0.00  0.00    +0.063 S 
ATOM     22  O   UNL     1       0.922   3.964 -10.173  0.00  0.00    -0.153 OA
ATOM     23  O   UNL     1       1.020   5.943 -11.653  0.00  0.00    -0.153 OA
BRANCH  21  24
ATOM     24  N   UNL     1       3.289   5.123 -10.681  0.00  0.00    -0.153 NA
ATOM     25  C   UNL     1       4.040   4.668  -9.571  0.00  0.00    +0.113 C 
ATOM     26  C   UNL     1       5.021   5.635  -8.995  0.00  0.00    +0.092 C 
ATOM     27  N   UNL     1       5.789   6.355  -9.975  0.00  0.00    -0.269 NA
ATOM     28  C   UNL     1       6.764   5.551 -10.661  0.00  0.00    +0.090 C 
ATOM     29  C   UNL     1       4.860   7.018 -10.852  0.00  0.00    +0.092 C 
ATOM     30  C   UNL     1       3.891   6.094 -11.523  0.00  0.00    +0.113 C 
ENDBRANCH  21  24
ENDBRANCH   5  21
BRANCH   2  31
ATOM     31  O   UNL     1       2.873   7.053  -5.335  0.00  0.00    -0.475 OA
BRANCH  31  32
ATOM     32  C   UNL     1       4.226   6.644  -5.481  0.00  0.00    +0.206 C 
ATOM     33  C   UNL     1       4.453   5.223  -5.053  0.00  0.00    +0.051 C 
ENDBRANCH  31  32
ENDBRANCH   2  31
TORSDOF 7
ENDMDL
MODEL 9
REMARK VINA RESULT:      -8.1      2.253      3.765
REMARK  Name = 
REMARK  7 active torsions:
REMARK  status: ('A' for Active; 'I' for Inactive)
REMARK    1  A    between atoms: C_2  and  C_3
REMARK    2  A    between atoms: C_3  and  C_4
REMARK    3  A    between atoms: C_11  and  C_12
REMARK    4  A    between atoms: C_14  and  S_15
REMARK    5  A    between atoms: S_15  and  N_18
REMARK    6  A    between atoms: C_27  and  O_28
REMARK    7  A    between atoms: O_28  and  C_29
REMARK                            x       y       z     vdW  Elec       q    Type
REMARK                         _______ _______ _______ _____ _____    ______ ____
ROOT
ATOM      1  C   UNL     1       1.009   6.267  -6.524  0.00  0.00    +0.071 A 
ATOM      2  C   UNL     1       2.062   7.158  -6.349  0.00  0.00    +0.141 A 
ATOM      3  C   UNL     1       2.538   7.759  -7.496  0.00  0.00    +0.038 A 
ATOM      4  C   UNL     1       2.204   7.236  -8.738  0.00  0.00    +0.023 A 
ATOM      5  C   UNL     1       1.504   6.041  -8.850  0.00  0.00    +0.122 A 
ATOM      6  C   UNL     1       0.758   5.670  -7.742  0.00  0.00    +0.026 A 
ENDROOT
BRANCH   1  10
ATOM      7  C   UNL     1       0.432   5.070  -1.781  0.00  0.00    +0.098 A 
ATOM      8  C   UNL     1       0.069   5.288  -3.102  0.00  0.00    +0.120 A 
ATOM      9  N   UNL     1       0.809   5.412  -4.228  0.00  0.00    -0.223 NA
ATOM     10  C   UNL     1       0.223   5.903  -5.339  0.00  0.00    +0.169 A 
ATOM     11  N   UNL     1      -1.114   6.033  -5.334  0.00  0.00    -0.187 NA
ATOM     12  C   UNL     1      -1.841   6.146  -4.198  0.00  0.00    +0.299 A 
ATOM     13  O   UNL     1      -2.881   6.870  -4.168  0.00  0.00    -0.263 OA
ATOM     14  C   UNL     1      -1.177   5.879  -3.021  0.00  0.00    +0.154 A 
ATOM     15  N   UNL     1      -1.557   5.995  -1.734  0.00  0.00    -0.243 N 
ATOM     16  C   UNL     1      -2.744   6.708  -1.331  0.00  0.00    +0.154 C 
ATOM     17  N   UNL     1      -0.676   5.307  -1.041  0.00  0.00    -0.172 NA
BRANCH   7  18
ATOM     18  C   UNL     1       1.831   4.840  -1.318  0.00  0.00    +0.049 C 
BRANCH  18  20
ATOM     19  C   UNL     1       4.026   5.910  -0.760  0.00  0.00    +0.000 C 
ATOM     20  C   UNL     1       2.601   6.153  -1.240  0.00  0.00    +0.006 C 
ENDBRANCH  18  20
ENDBRANCH   7  18
ENDBRANCH   1  10
BRANCH   5  21
ATOM     21  S   UNL     1       1.828   4.926 -10.173  0.00  0.00    +0.063 S 
ATOM     22  O   UNL     1       3.199   4.348  -9.918  0.00  0.00    -0.153 OA
ATOM     23  O   UNL     1       0.796   3.836 -10.193  0.00  0.00    -0.153 OA
BRANCH  21  24
ATOM     24  N   UNL     1       1.722   5.803 -11.621  0.00  0.00    -0.153 NA
ATOM     25  C   UNL     1       0.617   5.508 -12.454  0.00  0.00    +0.113 C 
ATOM     26  C   UNL     1       0.935   4.902 -13.782  0.00  0.00    +0.092 C 
ATOM     27  N   UNL     1       2.044   5.514 -14.462  0.00  0.00    -0.269 NA
ATOM     28  C   UNL     1       1.768   6.832 -14.967  0.00  0.00    +0.090 C 
ATOM     29  C   UNL     1       3.179   5.454 -13.580  0.00  0.00    +0.092 C 
ATOM     30  C   UNL     1       2.954   6.112 -12.254  0.00  0.00    +0.113 C 
ENDBRANCH  21  24
ENDBRANCH   5  21
BRANCH   2  31
ATOM     31  O   UNL     1       2.799   7.119  -5.162  0.00  0.00    -0.475 OA
BRANCH  31  32
ATOM     32  C   UNL     1       4.176   6.771  -5.207  0.00  0.00    +0.206 C 
ATOM     33  C   UNL     1       4.438   5.375  -4.719  0.00  0.00    +0.051 C 
ENDBRANCH  31  32
ENDBRANCH   2  31
TORSDOF 7
ENDMDL
