MODEL 1
REMARK VINA RESULT:      -8.4      0.000      0.000
REMARK  Name = 
REMARK  9 active torsions:
REMARK  status: ('A' for Active; 'I' for Inactive)
REMARK    1  A    between atoms: C_13  and  C_14
REMARK    2  A    between atoms: C_14  and  N_15
REMARK    3  A    between atoms: N_15  and  C_16
REMARK    4  A    between atoms: C_19  and  C_20
REMARK    5  A    between atoms: N_22  and  CA_23
REMARK    6  A    between atoms: CA_23  and  CB_24
REMARK    7  A    between atoms: CA_23  and  C_29
REMARK    8  A    between atoms: CB_24  and  CG_25
REMARK    9  A    between atoms: CG_25  and  CD_26
REMARK                            x       y       z     vdW  Elec       q    Type
REMARK                         _______ _______ _______ _____ _____    ______ ____
ROOT
ATOM      1  C   UNK A   0      -0.136   5.544  -9.949  0.00  0.00    +0.065 A 
ATOM      2  C   UNK A   0      -0.143   4.551 -10.922  0.00  0.00    +0.016 A 
ATOM      3  C   UNK A   0       0.861   4.669 -11.886  0.00  0.00    +0.006 A 
ATOM      4  C   UNK A   0       1.492   5.887 -12.132  0.00  0.00    +0.055 A 
ATOM      5  C   UNK A   0       0.811   6.967 -11.575  0.00  0.00    +0.006 A 
ATOM      6  C   UNK A   0       0.004   6.825 -10.450  0.00  0.00    +0.016 A 
ENDROOT
BRANCH   4   7
ATOM      7  C   UNK A   0       2.937   5.966 -12.413  0.00  0.00    +0.265 C 
ATOM      8  N   GLU A   1       3.751   6.121 -11.265  0.00  0.00    -0.192 NA
ATOM      9  O   UNK A   0       3.315   5.208 -13.358  0.00  0.00    -0.268 OA
BRANCH   8  10
ATOM     10  CA  GLU A   1       5.219   5.510 -11.404  0.00  0.00    +0.199 C 
BRANCH  10  11
ATOM     11  C   GLU A   1       5.344   5.283  -9.791  0.00  0.00    +0.384 C 
ATOM     12  OXT GLU A   1       6.495   5.759  -9.234  0.00  0.00    -0.244 OA
ATOM     13  O   GLU A   1       4.429   4.658  -9.253  0.00  0.00    -0.244 OA
ENDBRANCH  10  11
BRANCH  10  14
ATOM     14  CB  GLU A   1       5.938   7.014 -11.328  0.00  0.00    +0.045 C 
BRANCH  14  15
ATOM     15  CG  GLU A   1       6.919   7.039 -12.456  0.00  0.00    +0.116 C 
BRANCH  15  16
ATOM     16  CD  GLU A   1       7.793   5.864 -12.545  0.00  0.00    +0.365 C 
ATOM     17  OE2 GLU A   1       7.643   4.797 -13.395  0.00  0.00    -0.246 OA
ATOM     18  OE1 GLU A   1       8.841   5.856 -11.830  0.00  0.00    -0.246 OA
ENDBRANCH  15  16
ENDBRANCH  14  15
ENDBRANCH  10  14
ENDBRANCH   8  10
ENDBRANCH   4   7
BRANCH   1  19
ATOM     19  N   UNK A   0      -0.228   5.257  -8.548  0.00  0.00    -0.236 NA
BRANCH  19  20
ATOM     20  C   UNK A   0       1.072   5.417  -7.894  0.00  0.00    +0.134 C 
BRANCH  20  23
ATOM     21  C   UNK A   0       2.910   7.210  -7.183  0.00  0.00    +0.112 C 
ATOM     22  N   UNK A   0       2.063   6.625  -6.173  0.00  0.00    -0.298 N 
ATOM     23  C   UNK A   0       0.591   6.536  -6.757  0.00  0.00    +0.116 C 
ATOM     24  C   UNK A   0       0.043   5.339  -5.738  0.00  0.00    +0.135 C 
ATOM     25  N   UNK A   0       0.431   5.802  -4.401  0.00  0.00    -0.217 NA
ATOM     26  C   UNK A   0       1.806   5.473  -4.151  0.00  0.00    +0.169 A 
ATOM     27  N   UNK A   0       2.340   5.228  -2.958  0.00  0.00    -0.193 NA
ATOM     28  C   UNK A   0       3.693   5.246  -2.833  0.00  0.00    +0.260 A 
ATOM     29  N   UNK A   0       4.404   5.123  -3.982  0.00  0.00    -0.171 NA
ATOM     30  C   UNK A   0       3.917   5.483  -5.181  0.00  0.00    +0.298 A 
ATOM     31  O   UNK A   0       4.626   5.682  -6.201  0.00  0.00    -0.264 OA
ATOM     32  N   UNK A   0       4.264   5.841  -1.660  0.00  0.00    -0.086 NA
ATOM     33  C   UNK A   0       2.542   5.629  -5.326  0.00  0.00    +0.140 A 
ENDBRANCH  20  23
ENDBRANCH  19  20
ENDBRANCH   1  19
TORSDOF 9
ENDMDL
MODEL 2
REMARK VINA RESULT:      -8.3      3.452      8.864
REMARK  Name = 
REMARK  9 active torsions:
REMARK  status: ('A' for Active; 'I' for Inactive)
REMARK    1  A    between atoms: C_13  and  C_14
REMARK    2  A    between atoms: C_14  and  N_15
REMARK    3  A    between atoms: N_15  and  C_16
REMARK    4  A    between atoms: C_19  and  C_20
REMARK    5  A    between atoms: N_22  and  CA_23
REMARK    6  A    between atoms: CA_23  and  CB_24
REMARK    7  A    between atoms: CA_23  and  C_29
REMARK    8  A    between atoms: CB_24  and  CG_25
REMARK    9  A    between atoms: CG_25  and  CD_26
REMARK                            x       y       z     vdW  Elec       q    Type
REMARK                         _______ _______ _______ _____ _____    ______ ____
ROOT
ATOM      1  C   UNK A   0       4.467   5.765  -5.577  0.00  0.00    +0.065 A 
ATOM      2  C   UNK A   0       4.578   4.934  -4.468  0.00  0.00    +0.016 A 
ATOM      3  C   UNK A   0       3.525   5.032  -3.556  0.00  0.00    +0.006 A 
ATOM      4  C   UNK A   0       2.709   6.160  -3.507  0.00  0.00    +0.055 A 
ATOM      5  C   UNK A   0       3.245   7.242  -4.201  0.00  0.00    +0.006 A 
ATOM      6  C   UNK A   0       4.115   7.068  -5.274  0.00  0.00    +0.016 A 
ENDROOT
BRANCH   4   7
ATOM      7  C   UNK A   0       1.256   6.054  -3.274  0.00  0.00    +0.265 C 
ATOM      8  N   GLU A   1       0.459   6.310  -4.415  0.00  0.00    -0.192 NA
ATOM      9  O   UNK A   0       0.935   5.122  -2.475  0.00  0.00    -0.268 OA
BRANCH   8  10
ATOM     10  CA  GLU A   1      -0.943   5.546  -4.431  0.00  0.00    +0.199 C 
BRANCH  10  11
ATOM     11  C   GLU A   1      -0.892   5.358  -6.053  0.00  0.00    +0.384 C 
ATOM     12  OXT GLU A   1      -2.007   5.783  -6.713  0.00  0.00    -0.244 OA
ATOM     13  O   GLU A   1       0.108   4.801  -6.509  0.00  0.00    -0.244 OA
ENDBRANCH  10  11
BRANCH  10  14
ATOM     14  CB  GLU A   1      -1.806   6.969  -4.544  0.00  0.00    +0.045 C 
BRANCH  14  15
ATOM     15  CG  GLU A   1      -2.875   6.864  -3.504  0.00  0.00    +0.116 C 
BRANCH  15  16
ATOM     16  CD  GLU A   1      -2.422   6.381  -2.194  0.00  0.00    +0.365 C 
ATOM     17  OE2 GLU A   1      -2.554   5.106  -1.705  0.00  0.00    -0.246 OA
ATOM     18  OE1 GLU A   1      -1.772   7.188  -1.463  0.00  0.00    -0.246 OA
ENDBRANCH  15  16
ENDBRANCH  14  15
ENDBRANCH  10  14
ENDBRANCH   8  10
ENDBRANCH   4   7
BRANCH   1  19
ATOM     19  N   UNK A   0       4.664   5.300  -6.917  0.00  0.00    -0.236 NA
BRANCH  19  20
ATOM     20  C   UNK A   0       3.437   5.431  -7.704  0.00  0.00    +0.134 C 
BRANCH  20  23
ATOM     21  C   UNK A   0       1.625   7.237  -8.447  0.00  0.00    +0.112 C 
ATOM     22  N   UNK A   0       2.556   6.725  -9.422  0.00  0.00    -0.298 N 
ATOM     23  C   UNK A   0       3.981   6.621  -8.734  0.00  0.00    +0.116 C 
ATOM     24  C   UNK A   0       4.626   5.494  -9.777  0.00  0.00    +0.135 C 
ATOM     25  N   UNK A   0       4.331   6.031 -11.110  0.00  0.00    -0.217 NA
ATOM     26  C   UNK A   0       2.984   5.699 -11.482  0.00  0.00    +0.169 A 
ATOM     27  N   UNK A   0       2.545   5.518 -12.724  0.00  0.00    -0.193 NA
ATOM     28  C   UNK A   0       1.206   5.525 -12.951  0.00  0.00    +0.260 A 
ATOM     29  N   UNK A   0       0.412   5.324 -11.868  0.00  0.00    -0.171 NA
ATOM     30  C   UNK A   0       0.802   5.619 -10.616  0.00  0.00    +0.298 A 
ATOM     31  O   UNK A   0       0.015   5.748  -9.643  0.00  0.00    -0.264 OA
ATOM     32  N   UNK A   0       0.713   6.180 -14.127  0.00  0.00    -0.086 NA
ATOM     33  C   UNK A   0       2.159   5.774 -10.359  0.00  0.00    +0.140 A 
ENDBRANCH  20  23
ENDBRANCH  19  20
ENDBRANCH   1  19
TORSDOF 9
ENDMDL
MODEL 3
REMARK VINA RESULT:      -8.2      3.518      6.027
REMARK  Name = 
REMARK  9 active torsions:
REMARK  status: ('A' for Active; 'I' for Inactive)
REMARK    1  A    between atoms: C_13  and  C_14
REMARK    2  A    between atoms: C_14  and  N_15
REMARK    3  A    between atoms: N_15  and  C_16
REMARK    4  A    between atoms: C_19  and  C_20
REMARK    5  A    between atoms: N_22  and  CA_23
REMARK    6  A    between atoms: CA_23  and  CB_24
REMARK    7  A    between atoms: CA_23  and  C_29
REMARK    8  A    between atoms: CB_24  and  CG_25
REMARK    9  A    between atoms: CG_25  and  CD_26
REMARK                            x       y       z     vdW  Elec       q    Type
REMARK                         _______ _______ _______ _____ _____    ______ ____
ROOT
ATOM      1  C   UNK A   0      -2.194   6.566  -4.393  0.00  0.00    +0.065 A 
ATOM      2  C   UNK A   0      -2.607   5.846  -5.509  0.00  0.00    +0.016 A 
ATOM      3  C   UNK A   0      -1.570   5.371  -6.315  0.00  0.00    +0.006 A 
ATOM      4  C   UNK A   0      -0.303   5.949  -6.284  0.00  0.00    +0.055 A 
ATOM      5  C   UNK A   0      -0.291   7.186  -5.644  0.00  0.00    +0.006 A 
ATOM      6  C   UNK A   0      -1.220   7.511  -4.659  0.00  0.00    +0.016 A 
ENDROOT
BRANCH   4   7
ATOM      7  C   UNK A   0       0.921   5.132  -6.378  0.00  0.00    +0.265 C 
ATOM      8  N   GLU A   1       2.104   5.801  -5.979  0.00  0.00    -0.192 NA
ATOM      9  O   UNK A   0       0.748   3.915  -6.064  0.00  0.00    -0.268 OA
BRANCH   8  10
ATOM     10  CA  GLU A   1       3.238   4.847  -5.385  0.00  0.00    +0.199 C 
BRANCH  10  11
ATOM     11  C   GLU A   1       3.271   5.662  -3.971  0.00  0.00    +0.384 C 
ATOM     12  OXT GLU A   1       3.833   4.982  -2.931  0.00  0.00    -0.244 OA
ATOM     13  O   GLU A   1       2.736   6.772  -3.965  0.00  0.00    -0.244 OA
ENDBRANCH  10  11
BRANCH  10  14
ATOM     14  CB  GLU A   1       4.466   5.770  -6.037  0.00  0.00    +0.045 C 
BRANCH  14  15
ATOM     15  CG  GLU A   1       4.050   6.037  -7.448  0.00  0.00    +0.116 C 
BRANCH  15  16
ATOM     16  CD  GLU A   1       4.551   5.075  -8.437  0.00  0.00    +0.365 C 
ATOM     17  OE2 GLU A   1       3.889   3.966  -8.902  0.00  0.00    -0.246 OA
ATOM     18  OE1 GLU A   1       5.667   5.321  -8.984  0.00  0.00    -0.246 OA
ENDBRANCH  15  16
ENDBRANCH  14  15
ENDBRANCH  10  14
ENDBRANCH   8  10
ENDBRANCH   4   7
BRANCH   1  19
ATOM     19  N   UNK A   0      -2.707   6.319  -3.078  0.00  0.00    -0.236 NA
BRANCH  19  20
ATOM     20  C   UNK A   0      -1.939   7.053  -2.070  0.00  0.00    +0.134 C 
BRANCH  20  23
ATOM     21  C   UNK A   0      -1.882   7.447   0.564  0.00  0.00    +0.112 C 
ATOM     22  N   UNK A   0      -0.835   6.676  -0.060  0.00  0.00    -0.298 N 
ATOM     23  C   UNK A   0      -1.500   5.735  -1.150  0.00  0.00    +0.116 C 
ATOM     24  C   UNK A   0      -0.131   5.489  -2.065  0.00  0.00    +0.135 C 
ATOM     25  N   UNK A   0       0.891   5.110  -1.084  0.00  0.00    -0.217 NA
ATOM     26  C   UNK A   0       1.437   6.288  -0.469  0.00  0.00    +0.169 A 
ATOM     27  N   UNK A   0       2.670   6.409   0.014  0.00  0.00    -0.193 NA
ATOM     28  C   UNK A   0       2.947   7.450   0.842  0.00  0.00    +0.260 A 
ATOM     29  N   UNK A   0       2.078   8.492   0.808  0.00  0.00    -0.171 NA
ATOM     30  C   UNK A   0       0.793   8.356   0.438  0.00  0.00    +0.298 A 
ATOM     31  O   UNK A   0      -0.107   9.200   0.686  0.00  0.00    -0.264 OA
ATOM     32  N   UNK A   0       3.789   7.216   1.979  0.00  0.00    -0.086 NA
ATOM     33  C   UNK A   0       0.423   7.228  -0.285  0.00  0.00    +0.140 A 
ENDBRANCH  20  23
ENDBRANCH  19  20
ENDBRANCH   1  19
TORSDOF 9
ENDMDL
MODEL 4
REMARK VINA RESULT:      -8.2      2.582      4.134
REMARK  Name = 
REMARK  9 active torsions:
REMARK  status: ('A' for Active; 'I' for Inactive)
REMARK    1  A    between atoms: C_13  and  C_14
REMARK    2  A    between atoms: C_14  and  N_15
REMARK    3  A    between atoms: N_15  and  C_16
REMARK    4  A    between atoms: C_19  and  C_20
REMARK    5  A    between atoms: N_22  and  CA_23
REMARK    6  A    between atoms: CA_23  and  CB_24
REMARK    7  A    between atoms: CA_23  and  C_29
REMARK    8  A    between atoms: CB_24  and  CG_25
REMARK    9  A    between atoms: CG_25  and  CD_26
REMARK                            x       y       z     vdW  Elec       q    Type
REMARK                         _______ _______ _______ _____ _____    ______ ____
ROOT
ATOM      1  C   UNK A   0       2.257   4.819  -7.377  0.00  0.00    +0.065 A 
ATOM      2  C   UNK A   0       3.389   5.408  -6.823  0.00  0.00    +0.016 A 
ATOM      3  C   UNK A   0       4.382   5.745  -7.745  0.00  0.00    +0.006 A 
ATOM      4  C   UNK A   0       4.451   5.135  -8.995  0.00  0.00    +0.055 A 
ATOM      5  C   UNK A   0       3.666   3.987  -9.077  0.00  0.00    +0.006 A 
ATOM      6  C   UNK A   0       2.531   3.816  -8.289  0.00  0.00    +0.016 A 
ENDROOT
BRANCH   4   7
ATOM      7  C   UNK A   0       4.813   5.893 -10.207  0.00  0.00    +0.265 C 
ATOM      8  N   GLU A   1       4.428   5.276 -11.421  0.00  0.00    -0.192 NA
ATOM      9  O   UNK A   0       4.703   7.150 -10.074  0.00  0.00    -0.268 OA
BRANCH   8  10
ATOM     10  CA  GLU A   1       4.133   6.292 -12.617  0.00  0.00    +0.199 C 
BRANCH  10  11
ATOM     11  C   GLU A   1       2.854   5.413 -13.130  0.00  0.00    +0.384 C 
ATOM     12  OXT GLU A   1       3.038   4.778 -14.323  0.00  0.00    -0.244 OA
ATOM     13  O   GLU A   1       1.841   5.460 -12.430  0.00  0.00    -0.244 OA
ENDBRANCH  10  11
BRANCH  10  14
ATOM     14  CB  GLU A   1       5.185   5.508 -13.647  0.00  0.00    +0.045 C 
BRANCH  14  15
ATOM     15  CG  GLU A   1       6.427   6.341 -13.650  0.00  0.00    +0.116 C 
BRANCH  15  16
ATOM     16  CD  GLU A   1       7.543   5.796 -12.869  0.00  0.00    +0.365 C 
ATOM     17  OE2 GLU A   1       8.396   6.506 -12.061  0.00  0.00    -0.246 OA
ATOM     18  OE1 GLU A   1       7.698   4.538 -12.865  0.00  0.00    -0.246 OA
ENDBRANCH  15  16
ENDBRANCH  14  15
ENDBRANCH  10  14
ENDBRANCH   8  10
ENDBRANCH   4   7
BRANCH   1  19
ATOM     19  N   UNK A   0       0.927   5.242  -7.056  0.00  0.00    -0.236 NA
BRANCH  19  20
ATOM     20  C   UNK A   0       0.662   5.100  -5.623  0.00  0.00    +0.134 C 
BRANCH  20  23
ATOM     21  C   UNK A   0       1.911   5.795  -3.374  0.00  0.00    +0.112 C 
ATOM     22  N   UNK A   0       0.648   6.410  -3.702  0.00  0.00    -0.298 N 
ATOM     23  C   UNK A   0       0.645   6.725  -5.257  0.00  0.00    +0.116 C 
ATOM     24  C   UNK A   0      -1.008   6.801  -5.443  0.00  0.00    +0.135 C 
ATOM     25  N   UNK A   0      -1.448   7.692  -4.364  0.00  0.00    -0.217 NA
ATOM     26  C   UNK A   0      -1.556   6.956  -3.136  0.00  0.00    +0.169 A 
ATOM     27  N   UNK A   0      -2.392   7.231  -2.138  0.00  0.00    -0.193 NA
ATOM     28  C   UNK A   0      -2.169   6.659  -0.926  0.00  0.00    +0.260 A 
ATOM     29  N   UNK A   0      -1.365   5.567  -0.914  0.00  0.00    -0.171 NA
ATOM     30  C   UNK A   0      -0.431   5.341  -1.854  0.00  0.00    +0.298 A 
ATOM     31  O   UNK A   0       0.525   4.535  -1.721  0.00  0.00    -0.264 OA
ATOM     32  N   UNK A   0      -2.368   7.453   0.252  0.00  0.00    -0.086 NA
ATOM     33  C   UNK A   0      -0.526   6.018  -3.065  0.00  0.00    +0.140 A 
ENDBRANCH  20  23
ENDBRANCH  19  20
ENDBRANCH   1  19
TORSDOF 9
ENDMDL
MODEL 5
REMARK VINA RESULT:      -8.0      2.617      7.828
REMARK  Name = 
REMARK  9 active torsions:
REMARK  status: ('A' for Active; 'I' for Inactive)
REMARK    1  A    between atoms: C_13  and  C_14
REMARK    2  A    between atoms: C_14  and  N_15
REMARK    3  A    between atoms: N_15  and  C_16
REMARK    4  A    between atoms: C_19  and  C_20
REMARK    5  A    between atoms: N_22  and  CA_23
REMARK    6  A    between atoms: CA_23  and  CB_24
REMARK    7  A    between atoms: CA_23  and  C_29
REMARK    8  A    between atoms: CB_24  and  CG_25
REMARK    9  A    between atoms: CG_25  and  CD_26
REMARK                            x       y       z     vdW  Elec       q    Type
REMARK                         _______ _______ _______ _____ _____    ______ ____
ROOT
ATOM      1  C   UNK A   0      -0.631   6.031  -6.469  0.00  0.00    +0.065 A 
ATOM      2  C   UNK A   0       0.222   7.005  -5.961  0.00  0.00    +0.016 A 
ATOM      3  C   UNK A   0       0.587   6.825  -4.626  0.00  0.00    +0.006 A 
ATOM      4  C   UNK A   0      -0.180   6.047  -3.762  0.00  0.00    +0.055 A 
ATOM      5  C   UNK A   0      -1.447   5.768  -4.271  0.00  0.00    +0.006 A 
ATOM      6  C   UNK A   0      -1.694   5.723  -5.640  0.00  0.00    +0.016 A 
ENDROOT
BRANCH   4   7
ATOM      7  C   UNK A   0       0.442   5.168  -2.754  0.00  0.00    +0.265 C 
ATOM      8  N   GLU A   1       1.821   5.405  -2.540  0.00  0.00    -0.192 NA
ATOM      9  O   UNK A   0      -0.315   4.907  -1.769  0.00  0.00    -0.268 OA
BRANCH   8  10
ATOM     10  CA  GLU A   1       2.335   5.050  -1.071  0.00  0.00    +0.199 C 
BRANCH  10  11
ATOM     11  C   GLU A   1       2.246   6.610  -0.595  0.00  0.00    +0.384 C 
ATOM     12  OXT GLU A   1       1.618   6.809   0.599  0.00  0.00    -0.244 OA
ATOM     13  O   GLU A   1       2.693   7.449  -1.380  0.00  0.00    -0.244 OA
ENDBRANCH  10  11
BRANCH  10  14
ATOM     14  CB  GLU A   1       3.938   5.193  -1.512  0.00  0.00    +0.045 C 
BRANCH  14  15
ATOM     15  CG  GLU A   1       3.989   4.782  -2.948  0.00  0.00    +0.116 C 
BRANCH  15  16
ATOM     16  CD  GLU A   1       4.673   5.724  -3.841  0.00  0.00    +0.365 C 
ATOM     17  OE2 GLU A   1       5.273   6.904  -3.477  0.00  0.00    -0.246 OA
ATOM     18  OE1 GLU A   1       4.804   5.391  -5.058  0.00  0.00    -0.246 OA
ENDBRANCH  15  16
ENDBRANCH  14  15
ENDBRANCH  10  14
ENDBRANCH   8  10
ENDBRANCH   4   7
BRANCH   1  19
ATOM     19  N   UNK A   0      -0.403   5.378  -7.724  0.00  0.00    -0.236 NA
BRANCH  19  20
ATOM     20  C   UNK A   0       0.870   5.800  -8.311  0.00  0.00    +0.134 C 
BRANCH  20  23
ATOM     21  C   UNK A   0       2.519   3.711  -8.432  0.00  0.00    +0.112 C 
ATOM     22  N   UNK A   0       2.314   4.521  -9.608  0.00  0.00    -0.298 N 
ATOM     23  C   UNK A   0       0.771   4.879  -9.695  0.00  0.00    +0.116 C 
ATOM     24  C   UNK A   0       0.932   6.224 -10.663  0.00  0.00    +0.135 C 
ATOM     25  N   UNK A   0       1.793   5.773 -11.762  0.00  0.00    -0.217 NA
ATOM     26  C   UNK A   0       3.169   5.823 -11.354  0.00  0.00    +0.169 A 
ATOM     27  N   UNK A   0       4.209   6.024 -12.159  0.00  0.00    -0.193 NA
ATOM     28  C   UNK A   0       5.454   5.732 -11.701  0.00  0.00    +0.260 A 
ATOM     29  N   UNK A   0       5.591   5.633 -10.355  0.00  0.00    -0.171 NA
ATOM     30  C   UNK A   0       4.571   5.309  -9.542  0.00  0.00    +0.298 A 
ATOM     31  O   UNK A   0       4.712   4.905  -8.359  0.00  0.00    -0.264 OA
ATOM     32  N   UNK A   0       6.383   5.104 -12.595  0.00  0.00    -0.086 NA
ATOM     33  C   UNK A   0       3.272   5.445 -10.015  0.00  0.00    +0.140 A 
ENDBRANCH  20  23
ENDBRANCH  19  20
ENDBRANCH   1  19
TORSDOF 9
ENDMDL
MODEL 6
REMARK VINA RESULT:      -7.9      3.738      9.512
REMARK  Name = 
REMARK  9 active torsions:
REMARK  status: ('A' for Active; 'I' for Inactive)
REMARK    1  A    between atoms: C_13  and  C_14
REMARK    2  A    between atoms: C_14  and  N_15
REMARK    3  A    between atoms: N_15  and  C_16
REMARK    4  A    between atoms: C_19  and  C_20
REMARK    5  A    between atoms: N_22  and  CA_23
REMARK    6  A    between atoms: CA_23  and  CB_24
REMARK    7  A    between atoms: CA_23  and  C_29
REMARK    8  A    between atoms: CB_24  and  CG_25
REMARK    9  A    between atoms: CG_25  and  CD_26
REMARK                            x       y       z     vdW  Elec       q    Type
REMARK                         _______ _______ _______ _____ _____    ______ ____
ROOT
ATOM      1  C   UNK A   0       4.149   6.828  -5.171  0.00  0.00    +0.065 A 
ATOM      2  C   UNK A   0       4.539   5.527  -4.872  0.00  0.00    +0.016 A 
ATOM      3  C   UNK A   0       4.430   5.180  -3.524  0.00  0.00    +0.006 A 
ATOM      4  C   UNK A   0       4.398   6.149  -2.524  0.00  0.00    +0.055 A 
ATOM      5  C   UNK A   0       4.800   7.403  -2.978  0.00  0.00    +0.006 A 
ATOM      6  C   UNK A   0       4.655   7.783  -4.309  0.00  0.00    +0.016 A 
ENDROOT
BRANCH   4   7
ATOM      7  C   UNK A   0       3.523   6.015  -1.345  0.00  0.00    +0.265 C 
ATOM      8  N   GLU A   1       2.169   6.362  -1.576  0.00  0.00    -0.192 NA
ATOM      9  O   UNK A   0       3.803   5.017  -0.612  0.00  0.00    -0.268 OA
BRANCH   8  10
ATOM     10  CA  GLU A   1       1.119   5.593  -0.651  0.00  0.00    +0.199 C 
BRANCH  10  11
ATOM     11  C   GLU A   1       0.188   5.195  -1.933  0.00  0.00    +0.384 C 
ATOM     12  OXT GLU A   1       0.825   5.239  -3.138  0.00  0.00    -0.244 OA
ATOM     13  O   GLU A   1      -0.998   4.958  -1.697  0.00  0.00    -0.244 OA
ENDBRANCH  10  11
BRANCH  10  14
ATOM     14  CB  GLU A   1       0.248   6.983  -0.349  0.00  0.00    +0.045 C 
BRANCH  14  15
ATOM     15  CG  GLU A   1       1.044   7.732   0.672  0.00  0.00    +0.116 C 
BRANCH  15  16
ATOM     16  CD  GLU A   1       0.669   9.140   0.842  0.00  0.00    +0.365 C 
ATOM     17  OE2 GLU A   1       1.525  10.211   0.894  0.00  0.00    -0.246 OA
ATOM     18  OE1 GLU A   1      -0.567   9.421   0.861  0.00  0.00    -0.246 OA
ENDBRANCH  15  16
ENDBRANCH  14  15
ENDBRANCH  10  14
ENDBRANCH   8  10
ENDBRANCH   4   7
BRANCH   1  19
ATOM     19  N   UNK A   0       3.267   7.142  -6.256  0.00  0.00    -0.236 NA
BRANCH  19  20
ATOM     20  C   UNK A   0       3.713   6.504  -7.496  0.00  0.00    +0.134 C 
BRANCH  20  23
ATOM     21  C   UNK A   0       4.000   4.257  -8.897  0.00  0.00    +0.112 C 
ATOM     22  N   UNK A   0       2.893   5.134  -9.186  0.00  0.00    -0.298 N 
ATOM     23  C   UNK A   0       2.311   5.660  -7.807  0.00  0.00    +0.116 C 
ATOM     24  C   UNK A   0       1.565   7.021  -8.410  0.00  0.00    +0.135 C 
ATOM     25  N   UNK A   0       0.796   6.528  -9.558  0.00  0.00    -0.217 NA
ATOM     26  C   UNK A   0       1.652   6.411 -10.705  0.00  0.00    +0.169 A 
ATOM     27  N   UNK A   0       1.270   6.534 -11.973  0.00  0.00    -0.193 NA
ATOM     28  C   UNK A   0       2.103   6.090 -12.950  0.00  0.00    +0.260 A 
ATOM     29  N   UNK A   0       3.402   5.918 -12.601  0.00  0.00    -0.171 NA
ATOM     30  C   UNK A   0       3.789   5.671 -11.338  0.00  0.00    +0.298 A 
ATOM     31  O   UNK A   0       4.914   5.202 -11.022  0.00  0.00    -0.264 OA
ATOM     32  N   UNK A   0       1.535   5.405 -14.075  0.00  0.00    -0.086 NA
ATOM     33  C   UNK A   0       2.912   5.967 -10.301  0.00  0.00    +0.140 A 
ENDBRANCH  20  23
ENDBRANCH  19  20
ENDBRANCH   1  19
TORSDOF 9
ENDMDL
MODEL 7
REMARK VINA RESULT:      -7.9      2.347      3.806
REMARK  Name = 
REMARK  9 active torsions:
REMARK  status: ('A' for Active; 'I' for Inactive)
REMARK    1  A    between atoms: C_13  and  C_14
REMARK    2  A    between atoms: C_14  and  N_15
REMARK    3  A    between atoms: N_15  and  C_16
REMARK    4  A    between atoms: C_19  and  C_20
REMARK    5  A    between atoms: N_22  and  CA_23
REMARK    6  A    between atoms: CA_23  and  CB_24
REMARK    7  A    between atoms: CA_23  and  C_29
REMARK    8  A    between atoms: CB_24  and  CG_25
REMARK    9  A    between atoms: CG_25  and  CD_26
REMARK                            x       y       z     vdW  Elec       q    Type
REMARK                         _______ _______ _______ _____ _____    ______ ____
ROOT
ATOM      1  C   UNK A   0       1.149   6.136  -6.424  0.00  0.00    +0.065 A 
ATOM      2  C   UNK A   0       0.191   5.870  -7.396  0.00  0.00    +0.016 A 
ATOM      3  C   UNK A   0       0.636   6.011  -8.712  0.00  0.00    +0.006 A 
ATOM      4  C   UNK A   0       1.751   6.787  -9.022  0.00  0.00    +0.055 A 
ATOM      5  C   UNK A   0       2.137   7.618  -7.972  0.00  0.00    +0.006 A 
ATOM      6  C   UNK A   0       1.871   7.295  -6.645  0.00  0.00    +0.016 A 
ENDROOT
BRANCH   4   7
ATOM      7  C   UNK A   0       2.719   6.372 -10.055  0.00  0.00    +0.265 C 
ATOM      8  N   GLU A   1       4.069   6.662  -9.743  0.00  0.00    -0.192 NA
ATOM      9  O   UNK A   0       2.422   5.276 -10.620  0.00  0.00    -0.268 OA
BRANCH   8  10
ATOM     10  CA  GLU A   1       5.130   5.662 -10.393  0.00  0.00    +0.199 C 
BRANCH  10  11
ATOM     11  C   GLU A   1       5.907   5.463  -8.970  0.00  0.00    +0.384 C 
ATOM     12  OXT GLU A   1       5.090   5.318  -7.888  0.00  0.00    -0.244 OA
ATOM     13  O   GLU A   1       7.137   5.525  -9.004  0.00  0.00    -0.244 OA
ENDBRANCH  10  11
BRANCH  10  14
ATOM     14  CB  GLU A   1       6.137   6.908 -10.860  0.00  0.00    +0.045 C 
BRANCH  14  15
ATOM     15  CG  GLU A   1       6.298   6.751 -12.338  0.00  0.00    +0.116 C 
BRANCH  15  16
ATOM     16  CD  GLU A   1       6.381   5.364 -12.810  0.00  0.00    +0.365 C 
ATOM     17  OE2 GLU A   1       5.413   4.677 -13.499  0.00  0.00    -0.246 OA
ATOM     18  OE1 GLU A   1       7.479   4.752 -12.645  0.00  0.00    -0.246 OA
ENDBRANCH  15  16
ENDBRANCH  14  15
ENDBRANCH  10  14
ENDBRANCH   8  10
ENDBRANCH   4   7
BRANCH   1  19
ATOM     19  N   UNK A   0       1.391   5.262  -5.315  0.00  0.00    -0.236 NA
BRANCH  19  20
ATOM     20  C   UNK A   0       1.589   6.024  -4.081  0.00  0.00    +0.134 C 
BRANCH  20  23
ATOM     21  C   UNK A   0       0.943   4.734  -1.842  0.00  0.00    +0.112 C 
ATOM     22  N   UNK A   0       2.250   5.330  -1.963  0.00  0.00    -0.298 N 
ATOM     23  C   UNK A   0       2.780   5.057  -3.433  0.00  0.00    +0.116 C 
ATOM     24  C   UNK A   0       3.887   6.300  -3.481  0.00  0.00    +0.135 C 
ATOM     25  N   UNK A   0       4.643   6.154  -2.233  0.00  0.00    -0.217 NA
ATOM     26  C   UNK A   0       3.918   6.757  -1.150  0.00  0.00    +0.169 A 
ATOM     27  N   UNK A   0       4.458   7.297  -0.061  0.00  0.00    -0.193 NA
ATOM     28  C   UNK A   0       3.660   7.538   1.012  0.00  0.00    +0.260 A 
ATOM     29  N   UNK A   0       2.325   7.579   0.771  0.00  0.00    -0.171 NA
ATOM     30  C   UNK A   0       1.752   6.934  -0.260  0.00  0.00    +0.298 A 
ATOM     31  O   UNK A   0       0.521   6.685  -0.341  0.00  0.00    -0.264 OA
ATOM     32  N   UNK A   0       4.174   7.267   2.322  0.00  0.00    -0.086 NA
ATOM     33  C   UNK A   0       2.552   6.528  -1.321  0.00  0.00    +0.140 A 
ENDBRANCH  20  23
ENDBRANCH  19  20
ENDBRANCH   1  19
TORSDOF 9
ENDMDL
MODEL 8
REMARK VINA RESULT:      -7.9      3.227      8.420
REMARK  Name = 
REMARK  9 active torsions:
REMARK  status: ('A' for Active; 'I' for Inactive)
REMARK    1  A    between atoms: C_13  and  C_14
REMARK    2  A    between atoms: C_14  and  N_15
REMARK    3  A    between atoms: N_15  and  C_16
REMARK    4  A    between atoms: C_19  and  C_20
REMARK    5  A    between atoms: N_22  and  CA_23
REMARK    6  A    between atoms: CA_23  and  CB_24
REMARK    7  A    between atoms: CA_23  and  C_29
REMARK    8  A    between atoms: CB_24  and  CG_25
REMARK    9  A    between atoms: CG_25  and  CD_26
REMARK                            x       y       z     vdW  Elec       q    Type
REMARK                         _______ _______ _______ _____ _____    ______ ____
ROOT
ATOM      1  C   UNK A   0       0.598   5.816  -6.975  0.00  0.00    +0.065 A 
ATOM      2  C   UNK A   0       0.012   6.673  -6.050  0.00  0.00    +0.016 A 
ATOM      3  C   UNK A   0       0.769   6.899  -4.900  0.00  0.00    +0.006 A 
ATOM      4  C   UNK A   0       1.763   6.009  -4.498  0.00  0.00    +0.055 A 
ATOM      5  C   UNK A   0       1.683   4.782  -5.152  0.00  0.00    +0.006 A 
ATOM      6  C   UNK A   0       1.125   4.663  -6.422  0.00  0.00    +0.016 A 
ENDROOT
BRANCH   4   7
ATOM      7  C   UNK A   0       3.037   6.480  -3.925  0.00  0.00    +0.265 C 
ATOM      8  N   GLU A   1       2.979   6.800  -2.547  0.00  0.00    -0.192 NA
ATOM      9  O   UNK A   0       4.057   5.887  -4.393  0.00  0.00    -0.268 OA
BRANCH   8  10
ATOM     10  CA  GLU A   1       4.355   6.605  -1.761  0.00  0.00    +0.199 C 
BRANCH  10  11
ATOM     11  C   GLU A   1       3.782   5.306  -0.954  0.00  0.00    +0.384 C 
ATOM     12  OXT GLU A   1       2.464   5.381  -0.611  0.00  0.00    -0.244 OA
ATOM     13  O   GLU A   1       4.599   4.425  -0.682  0.00  0.00    -0.244 OA
ENDBRANCH  10  11
BRANCH  10  14
ATOM     14  CB  GLU A   1       3.902   7.658  -0.548  0.00  0.00    +0.045 C 
BRANCH  14  15
ATOM     15  CG  GLU A   1       3.638   8.959  -1.235  0.00  0.00    +0.116 C 
BRANCH  15  16
ATOM     16  CD  GLU A   1       3.601  10.131  -0.352  0.00  0.00    +0.365 C 
ATOM     17  OE2 GLU A   1       3.303  11.420  -0.720  0.00  0.00    -0.246 OA
ATOM     18  OE1 GLU A   1       3.778   9.939   0.888  0.00  0.00    -0.246 OA
ENDBRANCH  15  16
ENDBRANCH  14  15
ENDBRANCH  10  14
ENDBRANCH   8  10
ENDBRANCH   4   7
BRANCH   1  19
ATOM     19  N   UNK A   0       0.681   6.122  -8.372  0.00  0.00    -0.236 NA
BRANCH  19  20
ATOM     20  C   UNK A   0       2.076   6.201  -8.809  0.00  0.00    +0.134 C 
BRANCH  20  23
ATOM     21  C   UNK A   0       3.727   4.118  -8.628  0.00  0.00    +0.112 C 
ATOM     22  N   UNK A   0       3.512   4.742  -9.910  0.00  0.00    -0.298 N 
ATOM     23  C   UNK A   0       1.968   5.082 -10.039  0.00  0.00    +0.116 C 
ATOM     24  C   UNK A   0       2.120   6.267 -11.199  0.00  0.00    +0.135 C 
ATOM     25  N   UNK A   0       2.973   5.657 -12.224  0.00  0.00    -0.217 NA
ATOM     26  C   UNK A   0       4.353   5.767 -11.839  0.00  0.00    +0.169 A 
ATOM     27  N   UNK A   0       5.386   5.845 -12.673  0.00  0.00    -0.193 NA
ATOM     28  C   UNK A   0       6.635   5.626 -12.186  0.00  0.00    +0.260 A 
ATOM     29  N   UNK A   0       6.782   5.730 -10.841  0.00  0.00    -0.171 NA
ATOM     30  C   UNK A   0       5.769   5.532  -9.981  0.00  0.00    +0.298 A 
ATOM     31  O   UNK A   0       5.919   5.309  -8.751  0.00  0.00    -0.264 OA
ATOM     32  N   UNK A   0       7.558   4.871 -12.982  0.00  0.00    -0.086 NA
ATOM     33  C   UNK A   0       4.465   5.595 -10.459  0.00  0.00    +0.140 A 
ENDBRANCH  20  23
ENDBRANCH  19  20
ENDBRANCH   1  19
TORSDOF 9
ENDMDL
MODEL 9
REMARK VINA RESULT:      -7.8      3.576      8.595
REMARK  Name = 
REMARK  9 active torsions:
REMARK  status: ('A' for Active; 'I' for Inactive)
REMARK    1  A    between atoms: C_13  and  C_14
REMARK    2  A    between atoms: C_14  and  N_15
REMARK    3  A    between atoms: N_15  and  C_16
REMARK    4  A    between atoms: C_19  and  C_20
REMARK    5  A    between atoms: N_22  and  CA_23
REMARK    6  A    between atoms: CA_23  and  CB_24
REMARK    7  A    between atoms: CA_23  and  C_29
REMARK    8  A    between atoms: CB_24  and  CG_25
REMARK    9  A    between atoms: CG_25  and  CD_26
REMARK                            x       y       z     vdW  Elec       q    Type
REMARK                         _______ _______ _______ _____ _____    ______ ____
ROOT
ATOM      1  C   UNK A   0      -1.095   5.769  -6.763  0.00  0.00    +0.065 A 
ATOM      2  C   UNK A   0      -0.559   6.910  -6.177  0.00  0.00    +0.016 A 
ATOM      3  C   UNK A   0      -0.655   6.953  -4.785  0.00  0.00    +0.006 A 
ATOM      4  C   UNK A   0      -1.595   6.189  -4.098  0.00  0.00    +0.055 A 
ATOM      5  C   UNK A   0      -2.582   5.671  -4.933  0.00  0.00    +0.006 A 
ATOM      6  C   UNK A   0      -2.343   5.420  -6.282  0.00  0.00    +0.016 A 
ENDROOT
BRANCH   4   7
ATOM      7  C   UNK A   0      -1.275   5.542  -2.812  0.00  0.00    +0.265 C 
ATOM      8  N   GLU A   1      -0.314   6.229  -2.032  0.00  0.00    -0.192 NA
ATOM      9  O   UNK A   0      -2.277   5.003  -2.249  0.00  0.00    -0.268 OA
BRANCH   8  10
ATOM     10  CA  GLU A   1      -0.465   6.020  -0.456  0.00  0.00    +0.199 C 
BRANCH  10  11
ATOM     11  C   GLU A   1      -0.671   7.621  -0.202  0.00  0.00    +0.384 C 
ATOM     12  OXT GLU A   1      -1.788   8.152  -0.776  0.00  0.00    -0.244 OA
ATOM     13  O   GLU A   1       0.222   8.196   0.422  0.00  0.00    -0.244 OA
ENDBRANCH  10  11
BRANCH  10  14
ATOM     14  CB  GLU A   1       1.182   6.112  -0.207  0.00  0.00    +0.045 C 
BRANCH  14  15
ATOM     15  CG  GLU A   1       1.772   5.056  -1.086  0.00  0.00    +0.116 C 
BRANCH  15  16
ATOM     16  CD  GLU A   1       3.234   5.096  -1.210  0.00  0.00    +0.365 C 
ATOM     17  OE2 GLU A   1       3.968   4.749  -2.316  0.00  0.00    -0.246 OA
ATOM     18  OE1 GLU A   1       3.893   5.574  -0.238  0.00  0.00    -0.246 OA
ENDBRANCH  15  16
ENDBRANCH  14  15
ENDBRANCH  10  14
ENDBRANCH   8  10
ENDBRANCH   4   7
BRANCH   1  19
ATOM     19  N   UNK A   0      -0.395   5.003  -7.751  0.00  0.00    -0.236 NA
BRANCH  19  20
ATOM     20  C   UNK A   0       0.766   5.736  -8.258  0.00  0.00    +0.134 C 
BRANCH  20  23
ATOM     21  C   UNK A   0       2.525   3.738  -8.379  0.00  0.00    +0.112 C 
ATOM     22  N   UNK A   0       2.415   4.653  -9.488  0.00  0.00    -0.298 N 
ATOM     23  C   UNK A   0       0.875   4.955  -9.725  0.00  0.00    +0.116 C 
ATOM     24  C   UNK A   0       1.076   6.396 -10.535  0.00  0.00    +0.135 C 
ATOM     25  N   UNK A   0       2.080   6.093 -11.560  0.00  0.00    -0.217 NA
ATOM     26  C   UNK A   0       3.396   6.157 -10.988  0.00  0.00    +0.169 A 
ATOM     27  N   UNK A   0       4.509   6.480 -11.641  0.00  0.00    -0.193 NA
ATOM     28  C   UNK A   0       5.707   6.195 -11.067  0.00  0.00    +0.260 A 
ATOM     29  N   UNK A   0       5.694   5.967  -9.729  0.00  0.00    -0.171 NA
ATOM     30  C   UNK A   0       4.605   5.522  -9.079  0.00  0.00    +0.298 A 
ATOM     31  O   UNK A   0       4.630   5.006  -7.931  0.00  0.00    -0.264 OA
ATOM     32  N   UNK A   0       6.764   5.698 -11.899  0.00  0.00    -0.086 NA
ATOM     33  C   UNK A   0       3.363   5.652  -9.689  0.00  0.00    +0.140 A 
ENDBRANCH  20  23
ENDBRANCH  19  20
ENDBRANCH   1  19
TORSDOF 9
ENDMDL
