MODEL 1
REMARK VINA RESULT:      -9.3      0.000      0.000
REMARK  Name = 
REMARK  13 active torsions:
REMARK  status: ('A' for Active; 'I' for Inactive)
REMARK    1  A    between atoms: O_2  and  C_3
REMARK    2  A    between atoms: N_5  and  C_6
REMARK    3  A    between atoms: C_6  and  C_7
REMARK    4  A    between atoms: C_6  and  C_52
REMARK    5  A    between atoms: C_13  and  C_14
REMARK    6  A    between atoms: C_17  and  C_18
REMARK    7  A    between atoms: C_21  and  C_22
REMARK    8  A    between atoms: C_25  and  C_26
REMARK    9  A    between atoms: C_29  and  C_30
REMARK   10  A    between atoms: C_35  and  C_37
REMARK   11  A    between atoms: C_37  and  N_38
REMARK   12  A    between atoms: C_37  and  C_43
REMARK   13  A    between atoms: C_39  and  O_41
REMARK                            x       y       z     vdW  Elec       q    Type
REMARK                         _______ _______ _______ _____ _____    ______ ____
ROOT
ATOM      1  C   UNL     1       1.163   5.594 -12.773  0.00  0.00    +0.019 A 
ATOM      2  C   UNL     1       0.339   4.592 -12.259  0.00  0.00    +0.002 A 
ATOM      3  C   UNL     1      -0.227   4.703 -10.990  0.00  0.00    +0.000 A 
ATOM      4  C   UNL     1      -0.089   5.878 -10.253  0.00  0.00    +0.000 A 
ATOM      5  C   UNL     1       0.127   6.986 -11.072  0.00  0.00    +0.000 A 
ATOM      6  C   UNL     1       0.752   6.845 -12.318  0.00  0.00    +0.002 A 
ENDROOT
BRANCH   4   7
ATOM      7  C   UNL     1       0.375   5.834  -8.855  0.00  0.00    +0.000 A 
ATOM      8  C   UNL     1      -0.477   5.396  -7.845  0.00  0.00    +0.000 A 
ATOM      9  C   UNL     1      -0.362   5.867  -6.542  0.00  0.00    +0.002 A 
ATOM     10  C   UNL     1       0.887   6.314  -6.123  0.00  0.00    +0.019 A 
ATOM     11  C   UNL     1       1.638   6.890  -7.142  0.00  0.00    +0.002 A 
ATOM     12  C   UNL     1       1.200   6.885  -8.464  0.00  0.00    +0.000 A 
BRANCH  10  13
ATOM     13  C   UNL     1       1.587   5.725  -4.968  0.00  0.00    +0.102 A 
ATOM     14  N   UNL     1       1.456   6.080  -3.665  0.00  0.00    -0.227 NA
ATOM     15  C   UNL     1       2.643   5.911  -3.027  0.00  0.00    +0.157 A 
ATOM     16  N   UNL     1       3.569   5.600  -3.921  0.00  0.00    -0.226 NA
ATOM     17  C   UNL     1       2.884   5.226  -5.029  0.00  0.00    +0.119 A 
BRANCH  15  18
ATOM     18  C   UNL     1       2.945   6.915  -1.789  0.00  0.00    +0.134 C 
ATOM     19  N   UNL     1       1.785   6.285  -0.921  0.00  0.00    -0.273 N 
ATOM     20  C   UNL     1       0.918   7.133  -0.169  0.00  0.00    +0.246 C 
ATOM     21  O   UNL     1      -0.175   6.680   0.150  0.00  0.00    -0.273 OA
ATOM     22  C   UNL     1       1.872   4.883  -1.084  0.00  0.00    +0.094 C 
ATOM     23  C   UNL     1       3.344   4.601  -1.176  0.00  0.00    +0.024 C 
ATOM     24  C   UNL     1       4.054   5.910  -1.090  0.00  0.00    +0.029 C 
BRANCH  20  25
ATOM     25  C   UNL     1       1.854   7.786   0.981  0.00  0.00    +0.175 C 
BRANCH  25  26
ATOM     26  N   UNL     1       1.785   9.251   0.379  0.00  0.00    -0.161 NA
ATOM     27  C   UNL     1       3.126   9.754   0.331  0.00  0.00    +0.422 C 
ATOM     28  O   UNL     1       3.753   9.806   1.431  0.00  0.00    -0.225 OA
BRANCH  27  29
ATOM     29  O   UNL     1       3.631  10.443  -0.775  0.00  0.00    -0.429 OA
ATOM     30  C   UNL     1       3.609  11.867  -0.768  0.00  0.00    +0.257 C 
ENDBRANCH  27  29
ENDBRANCH  25  26
BRANCH  25  31
ATOM     31  C   UNL     1       0.585   7.989   2.013  0.00  0.00    +0.029 C 
ATOM     32  C   UNL     1       1.218   7.683   3.366  0.00  0.00    +0.002 C 
ATOM     33  C   UNL     1       0.048   9.340   1.918  0.00  0.00    +0.002 C 
ENDBRANCH  25  31
ENDBRANCH  20  25
ENDBRANCH  15  18
ENDBRANCH  10  13
ENDBRANCH   4   7
BRANCH   1  36
ATOM     34  C   UNL     1       4.570   6.109 -13.704  0.00  0.00    +0.157 A 
ATOM     35  N   UNL     1       3.574   6.144 -12.777  0.00  0.00    -0.227 NA
ATOM     36  C   UNL     1       2.562   5.323 -13.160  0.00  0.00    +0.102 A 
ATOM     37  C   UNL     1       3.022   4.876 -14.399  0.00  0.00    +0.119 A 
ATOM     38  N   UNL     1       3.996   5.728 -14.811  0.00  0.00    -0.226 NA
BRANCH  34  41
ATOM     39  C   UNL     1       6.922   5.671 -12.188  0.00  0.00    +0.246 C 
ATOM     40  N   UNL     1       6.857   6.334 -13.470  0.00  0.00    -0.273 N 
ATOM     41  C   UNL     1       5.619   7.326 -13.512  0.00  0.00    +0.134 C 
ATOM     42  C   UNL     1       5.795   7.682 -15.114  0.00  0.00    +0.029 C 
ATOM     43  C   UNL     1       6.429   6.526 -15.697  0.00  0.00    +0.024 C 
ATOM     44  C   UNL     1       6.714   5.541 -14.666  0.00  0.00    +0.094 C 
ATOM     45  O   UNL     1       5.997   4.816 -12.034  0.00  0.00    -0.273 OA
BRANCH  39  46
ATOM     46  C   UNL     1       7.042   6.748 -10.979  0.00  0.00    +0.175 C 
BRANCH  46  48
ATOM     47  C   UNL     1       5.137   6.452  -9.430  0.00  0.00    +0.422 C 
ATOM     48  N   UNL     1       6.334   5.830  -9.899  0.00  0.00    -0.161 NA
ATOM     49  O   UNL     1       4.471   7.251 -10.150  0.00  0.00    -0.225 OA
BRANCH  47  51
ATOM     50  C   UNL     1       4.955   5.271  -7.411  0.00  0.00    +0.257 C 
ATOM     51  O   UNL     1       4.541   6.114  -8.214  0.00  0.00    -0.429 OA
ENDBRANCH  47  51
ENDBRANCH  46  48
BRANCH  46  52
ATOM     52  C   UNL     1       8.541   6.208 -10.547  0.00  0.00    +0.029 C 
ATOM     53  C   UNL     1       9.137   5.740 -11.856  0.00  0.00    +0.002 C 
ATOM     54  C   UNL     1       8.323   5.015  -9.667  0.00  0.00    +0.002 C 
ENDBRANCH  46  52
ENDBRANCH  39  46
ENDBRANCH  34  41
ENDBRANCH   1  36
TORSDOF 13
ENDMDL
MODEL 2
REMARK VINA RESULT:      -9.0      5.933     12.304
REMARK  Name = 
REMARK  13 active torsions:
REMARK  status: ('A' for Active; 'I' for Inactive)
REMARK    1  A    between atoms: O_2  and  C_3
REMARK    2  A    between atoms: N_5  and  C_6
REMARK    3  A    between atoms: C_6  and  C_7
REMARK    4  A    between atoms: C_6  and  C_52
REMARK    5  A    between atoms: C_13  and  C_14
REMARK    6  A    between atoms: C_17  and  C_18
REMARK    7  A    between atoms: C_21  and  C_22
REMARK    8  A    between atoms: C_25  and  C_26
REMARK    9  A    between atoms: C_29  and  C_30
REMARK   10  A    between atoms: C_35  and  C_37
REMARK   11  A    between atoms: C_37  and  N_38
REMARK   12  A    between atoms: C_37  and  C_43
REMARK   13  A    between atoms: C_39  and  O_41
REMARK                            x       y       z     vdW  Elec       q    Type
REMARK                         _______ _______ _______ _____ _____    ______ ____
ROOT
ATOM      1  C   UNL     1       6.728  15.638   2.596  0.00  0.00    +0.019 A 
ATOM      2  C   UNL     1       5.424  15.861   2.154  0.00  0.00    +0.002 A 
ATOM      3  C   UNL     1       4.469  14.845   2.183  0.00  0.00    +0.000 A 
ATOM      4  C   UNL     1       4.758  13.617   2.775  0.00  0.00    +0.000 A 
ATOM      5  C   UNL     1       5.759  13.725   3.739  0.00  0.00    +0.000 A 
ATOM      6  C   UNL     1       6.738  14.723   3.647  0.00  0.00    +0.002 A 
ENDROOT
BRANCH   4   7
ATOM      7  C   UNL     1       4.496  12.359   2.054  0.00  0.00    +0.000 A 
ATOM      8  C   UNL     1       4.705  12.279   0.680  0.00  0.00    +0.000 A 
ATOM      9  C   UNL     1       3.961  11.417  -0.119  0.00  0.00    +0.002 A 
ATOM     10  C   UNL     1       3.433  10.277   0.476  0.00  0.00    +0.019 A 
ATOM     11  C   UNL     1       3.091  10.458   1.812  0.00  0.00    +0.002 A 
ATOM     12  C   UNL     1       3.384  11.641   2.486  0.00  0.00    +0.000 A 
BRANCH  10  13
ATOM     13  C   UNL     1       3.755   8.920   0.001  0.00  0.00    +0.102 A 
ATOM     14  N   UNL     1       3.180   8.257  -1.034  0.00  0.00    -0.227 NA
ATOM     15  C   UNL     1       3.152   6.927  -0.761  0.00  0.00    +0.157 A 
ATOM     16  N   UNL     1       3.558   6.736   0.484  0.00  0.00    -0.226 NA
ATOM     17  C   UNL     1       4.171   7.891   0.840  0.00  0.00    +0.119 A 
BRANCH  15  18
ATOM     18  C   UNL     1       1.922   6.085  -1.404  0.00  0.00    +0.134 C 
ATOM     19  N   UNL     1       2.471   6.295  -2.870  0.00  0.00    -0.273 N 
ATOM     20  C   UNL     1       1.568   6.615  -3.928  0.00  0.00    +0.246 C 
ATOM     21  O   UNL     1       2.036   7.154  -4.924  0.00  0.00    -0.273 OA
ATOM     22  C   UNL     1       3.869   6.091  -2.814  0.00  0.00    +0.094 C 
ATOM     23  C   UNL     1       4.053   4.994  -1.804  0.00  0.00    +0.024 C 
ATOM     24  C   UNL     1       2.700   4.633  -1.289  0.00  0.00    +0.029 C 
BRANCH  20  25
ATOM     25  C   UNL     1       0.652   5.292  -4.120  0.00  0.00    +0.175 C 
BRANCH  25  26
ATOM     26  N   UNL     1      -0.708   6.098  -4.220  0.00  0.00    -0.161 NA
ATOM     27  C   UNL     1      -1.306   6.085  -2.918  0.00  0.00    +0.422 C 
ATOM     28  O   UNL     1      -1.555   4.947  -2.418  0.00  0.00    -0.225 OA
BRANCH  27  29
ATOM     29  O   UNL     1      -1.880   7.223  -2.342  0.00  0.00    -0.429 OA
ATOM     30  C   UNL     1      -1.695   7.456  -0.949  0.00  0.00    +0.257 C 
ENDBRANCH  27  29
ENDBRANCH  25  26
BRANCH  25  31
ATOM     31  C   UNL     1       0.917   5.245  -5.747  0.00  0.00    +0.029 C 
ATOM     32  C   UNL     1       1.800   4.011  -5.893  0.00  0.00    +0.002 C 
ATOM     33  C   UNL     1      -0.340   5.146  -6.476  0.00  0.00    +0.002 C 
ENDBRANCH  25  31
ENDBRANCH  20  25
ENDBRANCH  15  18
ENDBRANCH  10  13
ENDBRANCH   4   7
BRANCH   1  36
ATOM     34  C   UNL     1       9.187  15.000   0.088  0.00  0.00    +0.157 A 
ATOM     35  N   UNL     1       7.905  15.285   0.451  0.00  0.00    -0.227 NA
ATOM     36  C   UNL     1       7.890  15.813   1.701  0.00  0.00    +0.102 A 
ATOM     37  C   UNL     1       9.239  15.745   2.049  0.00  0.00    +0.119 A 
ATOM     38  N   UNL     1       9.837  14.860   1.209  0.00  0.00    -0.226 NA
BRANCH  34  41
ATOM     39  C   UNL     1       9.117  16.161  -2.495  0.00  0.00    +0.246 C 
ATOM     40  N   UNL     1      10.026  15.125  -2.060  0.00  0.00    -0.273 N 
ATOM     41  C   UNL     1       9.249  14.034  -1.209  0.00  0.00    +0.134 C 
ATOM     42  C   UNL     1      10.614  13.216  -0.773  0.00  0.00    +0.029 C 
ATOM     43  C   UNL     1      11.671  14.195  -0.793  0.00  0.00    +0.024 C 
ATOM     44  C   UNL     1      11.154  15.480  -1.233  0.00  0.00    +0.094 C 
ATOM     45  O   UNL     1       8.739  16.908  -1.541  0.00  0.00    -0.273 OA
BRANCH  39  46
ATOM     46  C   UNL     1       7.904  15.539  -3.377  0.00  0.00    +0.175 C 
BRANCH  46  48
ATOM     47  C   UNL     1       5.730  15.284  -2.227  0.00  0.00    +0.422 C 
ATOM     48  N   UNL     1       6.750  16.232  -2.541  0.00  0.00    -0.161 NA
ATOM     49  O   UNL     1       5.977  14.049  -2.106  0.00  0.00    -0.225 OA
BRANCH  47  51
ATOM     50  C   UNL     1       4.102  16.711  -1.319  0.00  0.00    +0.257 C 
ATOM     51  O   UNL     1       4.429  15.663  -1.887  0.00  0.00    -0.429 OA
ENDBRANCH  47  51
ENDBRANCH  46  48
BRANCH  46  52
ATOM     52  C   UNL     1       7.953  16.786  -4.459  0.00  0.00    +0.029 C 
ATOM     53  C   UNL     1       6.860  16.438  -5.445  0.00  0.00    +0.002 C 
ATOM     54  C   UNL     1       9.276  16.688  -5.157  0.00  0.00    +0.002 C 
ENDBRANCH  46  52
ENDBRANCH  39  46
ENDBRANCH  34  41
ENDBRANCH   1  36
TORSDOF 13
ENDMDL
MODEL 3
REMARK VINA RESULT:      -8.9      2.522     12.405
REMARK  Name = 
REMARK  13 active torsions:
REMARK  status: ('A' for Active; 'I' for Inactive)
REMARK    1  A    between atoms: O_2  and  C_3
REMARK    2  A    between atoms: N_5  and  C_6
REMARK    3  A    between atoms: C_6  and  C_7
REMARK    4  A    between atoms: C_6  and  C_52
REMARK    5  A    between atoms: C_13  and  C_14
REMARK    6  A    between atoms: C_17  and  C_18
REMARK    7  A    between atoms: C_21  and  C_22
REMARK    8  A    between atoms: C_25  and  C_26
REMARK    9  A    between atoms: C_29  and  C_30
REMARK   10  A    between atoms: C_35  and  C_37
REMARK   11  A    between atoms: C_37  and  N_38
REMARK   12  A    between atoms: C_37  and  C_43
REMARK   13  A    between atoms: C_39  and  O_41
REMARK                            x       y       z     vdW  Elec       q    Type
REMARK                         _______ _______ _______ _____ _____    ______ ____
ROOT
ATOM      1  C   UNL     1       3.084   8.256   1.324  0.00  0.00    +0.019 A 
ATOM      2  C   UNL     1       4.193   7.409   1.322  0.00  0.00    +0.002 A 
ATOM      3  C   UNL     1       4.942   7.202   0.164  0.00  0.00    +0.000 A 
ATOM      4  C   UNL     1       4.678   7.936  -0.991  0.00  0.00    +0.000 A 
ATOM      5  C   UNL     1       4.071   9.158  -0.705  0.00  0.00    +0.000 A 
ATOM      6  C   UNL     1       3.277   9.315   0.439  0.00  0.00    +0.002 A 
ENDROOT
BRANCH   4   7
ATOM      7  C   UNL     1       4.499   7.256  -2.285  0.00  0.00    +0.000 A 
ATOM      8  C   UNL     1       4.081   5.928  -2.330  0.00  0.00    +0.000 A 
ATOM      9  C   UNL     1       4.454   5.084  -3.370  0.00  0.00    +0.002 A 
ATOM     10  C   UNL     1       4.751   5.663  -4.600  0.00  0.00    +0.019 A 
ATOM     11  C   UNL     1       5.317   6.929  -4.492  0.00  0.00    +0.002 A 
ATOM     12  C   UNL     1       5.439   7.571  -3.263  0.00  0.00    +0.000 A 
BRANCH  10  13
ATOM     13  C   UNL     1       4.024   5.310  -5.832  0.00  0.00    +0.102 A 
ATOM     14  N   UNL     1       4.420   5.539  -7.109  0.00  0.00    -0.227 NA
ATOM     15  C   UNL     1       3.332   5.772  -7.887  0.00  0.00    +0.157 A 
ATOM     16  N   UNL     1       2.261   5.846  -7.113  0.00  0.00    -0.226 NA
ATOM     17  C   UNL     1       2.637   5.302  -5.930  0.00  0.00    +0.119 A 
BRANCH  15  18
ATOM     18  C   UNL     1       3.550   6.765  -9.152  0.00  0.00    +0.134 C 
ATOM     19  N   UNL     1       3.797   5.551 -10.133  0.00  0.00    -0.273 N 
ATOM     20  C   UNL     1       4.843   5.621 -11.101  0.00  0.00    +0.246 C 
ATOM     21  O   UNL     1       5.266   4.562 -11.551  0.00  0.00    -0.273 OA
ATOM     22  C   UNL     1       2.828   4.570  -9.818  0.00  0.00    +0.094 C 
ATOM     23  C   UNL     1       1.599   5.353  -9.454  0.00  0.00    +0.024 C 
ATOM     24  C   UNL     1       1.948   6.800  -9.552  0.00  0.00    +0.029 C 
BRANCH  20  25
ATOM     25  C   UNL     1       4.387   6.779 -12.139  0.00  0.00    +0.175 C 
BRANCH  25  26
ATOM     26  N   UNL     1       5.801   6.869 -12.850  0.00  0.00    -0.161 NA
ATOM     27  C   UNL     1       6.718   7.427 -11.901  0.00  0.00    +0.422 C 
ATOM     28  O   UNL     1       6.432   8.572 -11.439  0.00  0.00    -0.225 OA
BRANCH  27  29
ATOM     29  O   UNL     1       8.006   6.918 -11.712  0.00  0.00    -0.429 OA
ATOM     30  C   UNL     1       8.408   5.769 -12.451  0.00  0.00    +0.257 C 
ENDBRANCH  27  29
ENDBRANCH  25  26
BRANCH  25  31
ATOM     31  C   UNL     1       3.755   5.689 -13.202  0.00  0.00    +0.029 C 
ATOM     32  C   UNL     1       2.266   6.006 -13.141  0.00  0.00    +0.002 C 
ATOM     33  C   UNL     1       4.329   5.865 -14.530  0.00  0.00    +0.002 C 
ENDBRANCH  25  31
ENDBRANCH  20  25
ENDBRANCH  15  18
ENDBRANCH  10  13
ENDBRANCH   4   7
BRANCH   1  36
ATOM     34  C   UNL     1      -0.470   7.993   1.518  0.00  0.00    +0.157 A 
ATOM     35  N   UNL     1       0.692   7.890   0.816  0.00  0.00    -0.227 NA
ATOM     36  C   UNL     1       1.736   7.765   1.674  0.00  0.00    +0.102 A 
ATOM     37  C   UNL     1       1.095   7.874   2.909  0.00  0.00    +0.119 A 
ATOM     38  N   UNL     1      -0.123   8.435   2.694  0.00  0.00    -0.226 NA
BRANCH  34  41
ATOM     39  C   UNL     1      -1.492   6.294  -0.506  0.00  0.00    +0.246 C 
ATOM     40  N   UNL     1      -2.283   7.053   0.437  0.00  0.00    -0.273 N 
ATOM     41  C   UNL     1      -1.691   8.517   0.594  0.00  0.00    +0.134 C 
ATOM     42  C   UNL     1      -2.702   8.932   1.831  0.00  0.00    +0.029 C 
ATOM     43  C   UNL     1      -3.033   7.692   2.488  0.00  0.00    +0.024 C 
ATOM     44  C   UNL     1      -2.411   6.577   1.792  0.00  0.00    +0.094 C 
ATOM     45  O   UNL     1      -0.352   5.982  -0.044  0.00  0.00    -0.273 OA
BRANCH  39  46
ATOM     46  C   UNL     1      -1.449   7.026  -1.954  0.00  0.00    +0.175 C 
BRANCH  46  48
ATOM     47  C   UNL     1      -0.510   6.113  -4.051  0.00  0.00    +0.422 C 
ATOM     48  N   UNL     1      -0.960   5.744  -2.747  0.00  0.00    -0.161 NA
ATOM     49  O   UNL     1      -0.033   7.258  -4.296  0.00  0.00    -0.225 OA
BRANCH  47  51
ATOM     50  C   UNL     1      -1.092   5.227  -6.145  0.00  0.00    +0.257 C 
ATOM     51  O   UNL     1      -0.427   5.199  -5.104  0.00  0.00    -0.429 OA
ENDBRANCH  47  51
ENDBRANCH  46  48
BRANCH  46  52
ATOM     52  C   UNL     1      -3.036   6.685  -2.257  0.00  0.00    +0.029 C 
ATOM     53  C   UNL     1      -3.035   5.191  -2.493  0.00  0.00    +0.002 C 
ATOM     54  C   UNL     1      -3.378   7.373  -3.543  0.00  0.00    +0.002 C 
ENDBRANCH  46  52
ENDBRANCH  39  46
ENDBRANCH  34  41
ENDBRANCH   1  36
TORSDOF 13
ENDMDL
MODEL 4
REMARK VINA RESULT:      -8.7      2.095     11.782
REMARK  Name = 
REMARK  13 active torsions:
REMARK  status: ('A' for Active; 'I' for Inactive)
REMARK    1  A    between atoms: O_2  and  C_3
REMARK    2  A    between atoms: N_5  and  C_6
REMARK    3  A    between atoms: C_6  and  C_7
REMARK    4  A    between atoms: C_6  and  C_52
REMARK    5  A    between atoms: C_13  and  C_14
REMARK    6  A    between atoms: C_17  and  C_18
REMARK    7  A    between atoms: C_21  and  C_22
REMARK    8  A    between atoms: C_25  and  C_26
REMARK    9  A    between atoms: C_29  and  C_30
REMARK   10  A    between atoms: C_35  and  C_37
REMARK   11  A    between atoms: C_37  and  N_38
REMARK   12  A    between atoms: C_37  and  C_43
REMARK   13  A    between atoms: C_39  and  O_41
REMARK                            x       y       z     vdW  Elec       q    Type
REMARK                         _______ _______ _______ _____ _____    ______ ____
ROOT
ATOM      1  C   UNL     1      -1.424   6.475  -1.862  0.00  0.00    +0.019 A 
ATOM      2  C   UNL     1      -1.694   7.664  -2.542  0.00  0.00    +0.002 A 
ATOM      3  C   UNL     1      -2.045   7.660  -3.891  0.00  0.00    +0.000 A 
ATOM      4  C   UNL     1      -2.262   6.458  -4.564  0.00  0.00    +0.000 A 
ATOM      5  C   UNL     1      -2.633   5.433  -3.694  0.00  0.00    +0.000 A 
ATOM      6  C   UNL     1      -2.213   5.439  -2.357  0.00  0.00    +0.002 A 
ENDROOT
BRANCH   4   7
ATOM      7  C   UNL     1      -1.599   6.192  -5.852  0.00  0.00    +0.000 A 
ATOM      8  C   UNL     1      -1.796   4.978  -6.506  0.00  0.00    +0.000 A 
ATOM      9  C   UNL     1      -0.818   4.430  -7.329  0.00  0.00    +0.002 A 
ATOM     10  C   UNL     1       0.081   5.301  -7.935  0.00  0.00    +0.019 A 
ATOM     11  C   UNL     1       0.367   6.423  -7.164  0.00  0.00    +0.002 A 
ATOM     12  C   UNL     1      -0.300   6.677  -5.970  0.00  0.00    +0.000 A 
BRANCH  10  13
ATOM     13  C   UNL     1       0.234   5.382  -9.397  0.00  0.00    +0.102 A 
ATOM     14  N   UNL     1       1.392   5.512 -10.093  0.00  0.00    -0.227 NA
ATOM     15  C   UNL     1       1.169   6.244 -11.214  0.00  0.00    +0.157 A 
ATOM     16  N   UNL     1      -0.069   6.713 -11.180  0.00  0.00    -0.226 NA
ATOM     17  C   UNL     1      -0.703   5.976 -10.236  0.00  0.00    +0.119 A 
BRANCH  15  18
ATOM     18  C   UNL     1       2.412   7.137 -11.753  0.00  0.00    +0.134 C 
ATOM     19  N   UNL     1       3.167   5.860 -12.296  0.00  0.00    -0.273 N 
ATOM     20  C   UNL     1       4.573   5.726 -12.094  0.00  0.00    +0.246 C 
ATOM     21  O   UNL     1       5.046   4.597 -12.153  0.00  0.00    -0.273 OA
ATOM     22  C   UNL     1       2.195   5.055 -12.934  0.00  0.00    +0.094 C 
ATOM     23  C   UNL     1       1.254   6.033 -13.577  0.00  0.00    +0.024 C 
ATOM     24  C   UNL     1       1.734   7.403 -13.235  0.00  0.00    +0.029 C 
BRANCH  20  25
ATOM     25  C   UNL     1       5.245   6.896 -12.992  0.00  0.00    +0.175 C 
BRANCH  25  26
ATOM     26  N   UNL     1       6.695   6.701 -12.383  0.00  0.00    -0.161 NA
ATOM     27  C   UNL     1       6.779   7.526 -11.214  0.00  0.00    +0.422 C 
ATOM     28  O   UNL     1       6.580   8.766 -11.378  0.00  0.00    -0.225 OA
BRANCH  27  29
ATOM     29  O   UNL     1       7.346   7.078 -10.017  0.00  0.00    -0.429 OA
ATOM     30  C   UNL     1       7.449   5.677  -9.785  0.00  0.00    +0.257 C 
ENDBRANCH  27  29
ENDBRANCH  25  26
BRANCH  25  31
ATOM     31  C   UNL     1       5.485   5.887 -14.273  0.00  0.00    +0.029 C 
ATOM     32  C   UNL     1       4.687   6.572 -15.377  0.00  0.00    +0.002 C 
ATOM     33  C   UNL     1       6.904   5.762 -14.579  0.00  0.00    +0.002 C 
ENDBRANCH  25  31
ENDBRANCH  20  25
ENDBRANCH  15  18
ENDBRANCH  10  13
ENDBRANCH   4   7
BRANCH   1  36
ATOM     34  C   UNL     1       2.069   6.647  -1.147  0.00  0.00    +0.157 A 
ATOM     35  N   UNL     1       0.825   7.202  -1.137  0.00  0.00    -0.227 NA
ATOM     36  C   UNL     1      -0.113   6.226  -1.229  0.00  0.00    +0.102 A 
ATOM     37  C   UNL     1       0.683   5.087  -1.361  0.00  0.00    +0.119 A 
ATOM     38  N   UNL     1       1.925   5.492  -1.734  0.00  0.00    -0.226 NA
BRANCH  34  41
ATOM     39  C   UNL     1       3.448   7.771   1.057  0.00  0.00    +0.246 C 
ATOM     40  N   UNL     1       4.058   7.278  -0.157  0.00  0.00    -0.273 N 
ATOM     41  C   UNL     1       3.222   7.749  -1.421  0.00  0.00    +0.134 C 
ATOM     42  C   UNL     1       4.095   6.850  -2.494  0.00  0.00    +0.029 C 
ATOM     43  C   UNL     1       4.602   5.733  -1.736  0.00  0.00    +0.024 C 
ATOM     44  C   UNL     1       4.207   5.856  -0.343  0.00  0.00    +0.094 C 
ATOM     45  O   UNL     1       2.358   7.180   1.328  0.00  0.00    -0.273 OA
BRANCH  39  46
ATOM     46  C   UNL     1       3.344   9.390   1.042  0.00  0.00    +0.175 C 
BRANCH  46  48
ATOM     47  C   UNL     1       1.200  10.132   2.026  0.00  0.00    +0.422 C 
ATOM     48  N   UNL     1       2.436   9.487   2.337  0.00  0.00    -0.161 NA
ATOM     49  O   UNL     1       0.691  10.083   0.870  0.00  0.00    -0.225 OA
BRANCH  47  51
ATOM     50  C   UNL     1      -0.649  10.270   3.465  0.00  0.00    +0.257 C 
ATOM     51  O   UNL     1       0.400  10.732   3.001  0.00  0.00    -0.429 OA
ENDBRANCH  47  51
ENDBRANCH  46  48
BRANCH  46  52
ATOM     52  C   UNL     1       4.729   9.562   1.924  0.00  0.00    +0.029 C 
ATOM     53  C   UNL     1       4.287   9.248   3.336  0.00  0.00    +0.002 C 
ATOM     54  C   UNL     1       5.100  11.012   1.852  0.00  0.00    +0.002 C 
ENDBRANCH  46  52
ENDBRANCH  39  46
ENDBRANCH  34  41
ENDBRANCH   1  36
TORSDOF 13
ENDMDL
MODEL 5
REMARK VINA RESULT:      -8.2      2.418      4.745
REMARK  Name = 
REMARK  13 active torsions:
REMARK  status: ('A' for Active; 'I' for Inactive)
REMARK    1  A    between atoms: O_2  and  C_3
REMARK    2  A    between atoms: N_5  and  C_6
REMARK    3  A    between atoms: C_6  and  C_7
REMARK    4  A    between atoms: C_6  and  C_52
REMARK    5  A    between atoms: C_13  and  C_14
REMARK    6  A    between atoms: C_17  and  C_18
REMARK    7  A    between atoms: C_21  and  C_22
REMARK    8  A    between atoms: C_25  and  C_26
REMARK    9  A    between atoms: C_29  and  C_30
REMARK   10  A    between atoms: C_35  and  C_37
REMARK   11  A    between atoms: C_37  and  N_38
REMARK   12  A    between atoms: C_37  and  C_43
REMARK   13  A    between atoms: C_39  and  O_41
REMARK                            x       y       z     vdW  Elec       q    Type
REMARK                         _______ _______ _______ _____ _____    ______ ____
ROOT
ATOM      1  C   UNL     1       2.827   5.139  -9.333  0.00  0.00    +0.019 A 
ATOM      2  C   UNL     1       2.936   3.920  -8.664  0.00  0.00    +0.002 A 
ATOM      3  C   UNL     1       2.482   3.772  -7.354  0.00  0.00    +0.000 A 
ATOM      4  C   UNL     1       1.789   4.804  -6.724  0.00  0.00    +0.000 A 
ATOM      5  C   UNL     1       1.159   5.645  -7.640  0.00  0.00    +0.000 A 
ATOM      6  C   UNL     1       1.677   5.815  -8.931  0.00  0.00    +0.002 A 
ENDROOT
BRANCH   4   7
ATOM      7  C   UNL     1       2.188   5.264  -5.383  0.00  0.00    +0.000 A 
ATOM      8  C   UNL     1       2.060   6.606  -5.033  0.00  0.00    +0.000 A 
ATOM      9  C   UNL     1       2.912   7.199  -4.108  0.00  0.00    +0.002 A 
ATOM     10  C   UNL     1       3.498   6.381  -3.148  0.00  0.00    +0.019 A 
ATOM     11  C   UNL     1       3.752   5.091  -3.603  0.00  0.00    +0.002 A 
ATOM     12  C   UNL     1       3.329   4.664  -4.858  0.00  0.00    +0.000 A 
BRANCH  10  13
ATOM     13  C   UNL     1       3.311   6.603  -1.704  0.00  0.00    +0.102 A 
ATOM     14  N   UNL     1       3.508   7.760  -1.022  0.00  0.00    -0.227 NA
ATOM     15  C   UNL     1       3.947   7.479   0.232  0.00  0.00    +0.157 A 
ATOM     16  N   UNL     1       4.179   6.178   0.322  0.00  0.00    -0.226 NA
ATOM     17  C   UNL     1       3.543   5.628  -0.740  0.00  0.00    +0.119 A 
BRANCH  15  18
ATOM     18  C   UNL     1       4.925   8.577   0.917  0.00  0.00    +0.134 C 
ATOM     19  N   UNL     1       3.804   9.689   0.866  0.00  0.00    -0.273 N 
ATOM     20  C   UNL     1       4.140  11.020   0.473  0.00  0.00    +0.246 C 
ATOM     21  O   UNL     1       3.232  11.731   0.060  0.00  0.00    -0.273 OA
ATOM     22  C   UNL     1       2.599   9.070   1.269  0.00  0.00    +0.094 C 
ATOM     23  C   UNL     1       3.012   8.088   2.327  0.00  0.00    +0.024 C 
ATOM     24  C   UNL     1       4.495   8.173   2.459  0.00  0.00    +0.029 C 
BRANCH  20  25
ATOM     25  C   UNL     1       5.093  11.585   1.656  0.00  0.00    +0.175 C 
BRANCH  25  26
ATOM     26  N   UNL     1       5.521  12.886   0.857  0.00  0.00    -0.161 NA
ATOM     27  C   UNL     1       6.953  12.918   0.834  0.00  0.00    +0.422 C 
ATOM     28  O   UNL     1       7.540  12.930   1.956  0.00  0.00    -0.225 OA
BRANCH  27  29
ATOM     29  O   UNL     1       7.679  13.233  -0.319  0.00  0.00    -0.429 OA
ATOM     30  C   UNL     1       9.051  13.594  -0.191  0.00  0.00    +0.257 C 
ENDBRANCH  27  29
ENDBRANCH  25  26
BRANCH  25  31
ATOM     31  C   UNL     1       3.832  12.300   2.441  0.00  0.00    +0.029 C 
ATOM     32  C   UNL     1       3.785  11.521   3.750  0.00  0.00    +0.002 C 
ATOM     33  C   UNL     1       4.074  13.724   2.625  0.00  0.00    +0.002 C 
ENDBRANCH  25  31
ENDBRANCH  20  25
ENDBRANCH  15  18
ENDBRANCH  10  13
ENDBRANCH   4   7
BRANCH   1  36
ATOM     34  C   UNL     1       5.959   5.779 -10.920  0.00  0.00    +0.157 A 
ATOM     35  N   UNL     1       4.635   5.466 -10.987  0.00  0.00    -0.227 NA
ATOM     36  C   UNL     1       4.015   5.852  -9.843  0.00  0.00    +0.102 A 
ATOM     37  C   UNL     1       5.088   6.341  -9.097  0.00  0.00    +0.119 A 
ATOM     38  N   UNL     1       6.231   5.854  -9.648  0.00  0.00    -0.226 NA
BRANCH  34  41
ATOM     39  C   UNL     1       6.414   7.086 -13.392  0.00  0.00    +0.246 C 
ATOM     40  N   UNL     1       7.410   6.388 -12.611  0.00  0.00    -0.273 N 
ATOM     41  C   UNL     1       6.819   5.021 -12.063  0.00  0.00    +0.134 C 
ATOM     42  C   UNL     1       8.131   4.683 -11.122  0.00  0.00    +0.029 C 
ATOM     43  C   UNL     1       8.707   5.962 -10.790  0.00  0.00    +0.024 C 
ATOM     44  C   UNL     1       7.963   7.027 -11.442  0.00  0.00    +0.094 C 
ATOM     45  O   UNL     1       5.481   7.564 -12.676  0.00  0.00    -0.273 OA
BRANCH  39  46
ATOM     46  C   UNL     1       5.901   6.174 -14.633  0.00  0.00    +0.175 C 
BRANCH  46  48
ATOM     47  C   UNL     1       3.623   5.281 -14.282  0.00  0.00    +0.422 C 
ATOM     48  N   UNL     1       4.364   6.493 -14.419  0.00  0.00    -0.161 NA
ATOM     49  O   UNL     1       4.144   4.225 -13.819  0.00  0.00    -0.225 OA
BRANCH  47  51
ATOM     50  C   UNL     1       1.450   6.155 -14.433  0.00  0.00    +0.257 C 
ATOM     51  O   UNL     1       2.245   5.212 -14.505  0.00  0.00    -0.429 OA
ENDBRANCH  47  51
ENDBRANCH  46  48
BRANCH  46  52
ATOM     52  C   UNL     1       6.073   7.413 -15.711  0.00  0.00    +0.029 C 
ATOM     53  C   UNL     1       4.901   7.226 -16.649  0.00  0.00    +0.002 C 
ATOM     54  C   UNL     1       7.338   7.144 -16.467  0.00  0.00    +0.002 C 
ENDBRANCH  46  52
ENDBRANCH  39  46
ENDBRANCH  34  41
ENDBRANCH   1  36
TORSDOF 13
ENDMDL
MODEL 6
REMARK VINA RESULT:      -7.9      6.478     11.969
REMARK  Name = 
REMARK  13 active torsions:
REMARK  status: ('A' for Active; 'I' for Inactive)
REMARK    1  A    between atoms: O_2  and  C_3
REMARK    2  A    between atoms: N_5  and  C_6
REMARK    3  A    between atoms: C_6  and  C_7
REMARK    4  A    between atoms: C_6  and  C_52
REMARK    5  A    between atoms: C_13  and  C_14
REMARK    6  A    between atoms: C_17  and  C_18
REMARK    7  A    between atoms: C_21  and  C_22
REMARK    8  A    between atoms: C_25  and  C_26
REMARK    9  A    between atoms: C_29  and  C_30
REMARK   10  A    between atoms: C_35  and  C_37
REMARK   11  A    between atoms: C_37  and  N_38
REMARK   12  A    between atoms: C_37  and  C_43
REMARK   13  A    between atoms: C_39  and  O_41
REMARK                            x       y       z     vdW  Elec       q    Type
REMARK                         _______ _______ _______ _____ _____    ______ ____
ROOT
ATOM      1  C   UNL     1       1.619   5.382 -12.016  0.00  0.00    +0.019 A 
ATOM      2  C   UNL     1       0.576   5.051 -12.882  0.00  0.00    +0.002 A 
ATOM      3  C   UNL     1       0.483   5.621 -14.151  0.00  0.00    +0.000 A 
ATOM      4  C   UNL     1       1.502   6.440 -14.636  0.00  0.00    +0.000 A 
ATOM      5  C   UNL     1       2.727   6.161 -14.033  0.00  0.00    +0.000 A 
ATOM      6  C   UNL     1       2.785   5.642 -12.732  0.00  0.00    +0.002 A 
ENDROOT
BRANCH   4   7
ATOM      7  C   UNL     1       1.191   7.762 -15.206  0.00  0.00    +0.000 A 
ATOM      8  C   UNL     1       1.825   8.193 -16.369  0.00  0.00    +0.000 A 
ATOM      9  C   UNL     1       2.053   9.542 -16.614  0.00  0.00    +0.002 A 
ATOM     10  C   UNL     1       1.194  10.462 -16.022  0.00  0.00    +0.019 A 
ATOM     11  C   UNL     1       0.713  10.050 -14.783  0.00  0.00    +0.002 A 
ATOM     12  C   UNL     1       0.985   8.781 -14.281  0.00  0.00    +0.000 A 
BRANCH  10  13
ATOM     13  C   UNL     1       0.402  11.421 -16.811  0.00  0.00    +0.102 A 
ATOM     14  N   UNL     1      -0.257  12.514 -16.348  0.00  0.00    -0.227 NA
ATOM     15  C   UNL     1      -1.376  12.716 -17.091  0.00  0.00    +0.157 A 
ATOM     16  N   UNL     1      -1.529  11.697 -17.921  0.00  0.00    -0.226 NA
ATOM     17  C   UNL     1      -0.329  11.069 -17.940  0.00  0.00    +0.119 A 
BRANCH  15  18
ATOM     18  C   UNL     1      -2.633  13.402 -16.327  0.00  0.00    +0.134 C 
ATOM     19  N   UNL     1      -1.732  14.577 -15.779  0.00  0.00    -0.273 N 
ATOM     20  C   UNL     1      -1.883  15.019 -14.431  0.00  0.00    +0.246 C 
ATOM     21  O   UNL     1      -0.940  15.618 -13.926  0.00  0.00    -0.273 OA
ATOM     22  C   UNL     1      -0.901  14.984 -16.848  0.00  0.00    +0.094 C 
ATOM     23  C   UNL     1      -1.759  14.843 -18.072  0.00  0.00    +0.024 C 
ATOM     24  C   UNL     1      -3.081  14.312 -17.630  0.00  0.00    +0.029 C 
BRANCH  20  25
ATOM     25  C   UNL     1      -3.355  15.692 -14.365  0.00  0.00    +0.175 C 
BRANCH  25  26
ATOM     26  N   UNL     1      -4.029  14.443 -13.660  0.00  0.00    -0.161 NA
ATOM     27  C   UNL     1      -5.351  14.314 -14.199  0.00  0.00    +0.422 C 
ATOM     28  O   UNL     1      -6.121  15.310 -14.062  0.00  0.00    -0.225 OA
BRANCH  27  29
ATOM     29  O   UNL     1      -5.892  13.080 -14.575  0.00  0.00    -0.429 OA
ATOM     30  C   UNL     1      -6.379  12.919 -15.903  0.00  0.00    +0.257 C 
ENDBRANCH  27  29
ENDBRANCH  25  26
BRANCH  25  31
ATOM     31  C   UNL     1      -3.017  16.490 -12.962  0.00  0.00    +0.029 C 
ATOM     32  C   UNL     1      -3.864  17.750 -13.096  0.00  0.00    +0.002 C 
ATOM     33  C   UNL     1      -3.367  15.678 -11.805  0.00  0.00    +0.002 C 
ENDBRANCH  25  31
ENDBRANCH  20  25
ENDBRANCH  15  18
ENDBRANCH  10  13
ENDBRANCH   4   7
BRANCH   1  36
ATOM     34  C   UNL     1       1.032   5.709  -8.510  0.00  0.00    +0.157 A 
ATOM     35  N   UNL     1       1.860   5.431  -9.556  0.00  0.00    -0.227 NA
ATOM     36  C   UNL     1       1.364   5.984 -10.692  0.00  0.00    +0.102 A 
ATOM     37  C   UNL     1       0.167   6.534 -10.234  0.00  0.00    +0.119 A 
ATOM     38  N   UNL     1      -0.132   5.944  -9.047  0.00  0.00    -0.226 NA
BRANCH  34  41
ATOM     39  C   UNL     1       2.968   6.575  -6.633  0.00  0.00    +0.246 C 
ATOM     40  N   UNL     1       1.663   6.042  -6.313  0.00  0.00    -0.273 N 
ATOM     41  C   UNL     1       1.350   4.780  -7.223  0.00  0.00    +0.134 C 
ATOM     42  C   UNL     1      -0.210   4.634  -6.704  0.00  0.00    +0.029 C 
ATOM     43  C   UNL     1      -0.610   5.962  -6.311  0.00  0.00    +0.024 C 
ATOM     44  C   UNL     1       0.502   6.884  -6.465  0.00  0.00    +0.094 C 
ATOM     45  O   UNL     1       2.995   7.153  -7.762  0.00  0.00    -0.273 OA
BRANCH  39  46
ATOM     46  C   UNL     1       4.123   5.452  -6.431  0.00  0.00    +0.175 C 
BRANCH  46  48
ATOM     47  C   UNL     1       5.509   5.197  -8.462  0.00  0.00    +0.422 C 
ATOM     48  N   UNL     1       5.150   6.121  -7.435  0.00  0.00    -0.161 NA
ATOM     49  O   UNL     1       4.727   4.278  -8.839  0.00  0.00    -0.225 OA
BRANCH  47  51
ATOM     50  C   UNL     1       6.767   5.886 -10.320  0.00  0.00    +0.257 C 
ATOM     51  O   UNL     1       6.675   5.331  -9.220  0.00  0.00    -0.429 OA
ENDBRANCH  47  51
ENDBRANCH  46  48
BRANCH  46  52
ATOM     52  C   UNL     1       4.774   6.247  -5.138  0.00  0.00    +0.029 C 
ATOM     53  C   UNL     1       4.822   5.186  -4.061  0.00  0.00    +0.002 C 
ATOM     54  C   UNL     1       3.776   7.291  -4.737  0.00  0.00    +0.002 C 
ENDBRANCH  46  52
ENDBRANCH  39  46
ENDBRANCH  34  41
ENDBRANCH   1  36
TORSDOF 13
ENDMDL
MODEL 7
REMARK VINA RESULT:      -7.9      7.435     12.246
REMARK  Name = 
REMARK  13 active torsions:
REMARK  status: ('A' for Active; 'I' for Inactive)
REMARK    1  A    between atoms: O_2  and  C_3
REMARK    2  A    between atoms: N_5  and  C_6
REMARK    3  A    between atoms: C_6  and  C_7
REMARK    4  A    between atoms: C_6  and  C_52
REMARK    5  A    between atoms: C_13  and  C_14
REMARK    6  A    between atoms: C_17  and  C_18
REMARK    7  A    between atoms: C_21  and  C_22
REMARK    8  A    between atoms: C_25  and  C_26
REMARK    9  A    between atoms: C_29  and  C_30
REMARK   10  A    between atoms: C_35  and  C_37
REMARK   11  A    between atoms: C_37  and  N_38
REMARK   12  A    between atoms: C_37  and  C_43
REMARK   13  A    between atoms: C_39  and  O_41
REMARK                            x       y       z     vdW  Elec       q    Type
REMARK                         _______ _______ _______ _____ _____    ______ ____
ROOT
ATOM      1  C   UNL     1       1.312   6.570 -14.460  0.00  0.00    +0.019 A 
ATOM      2  C   UNL     1       0.030   6.519 -15.007  0.00  0.00    +0.002 A 
ATOM      3  C   UNL     1      -0.338   7.353 -16.063  0.00  0.00    +0.000 A 
ATOM      4  C   UNL     1       0.607   8.169 -16.684  0.00  0.00    +0.000 A 
ATOM      5  C   UNL     1       1.900   7.666 -16.547  0.00  0.00    +0.000 A 
ATOM      6  C   UNL     1       2.251   6.879 -15.442  0.00  0.00    +0.002 A 
ENDROOT
BRANCH   4   7
ATOM      7  C   UNL     1       0.340   9.603 -16.885  0.00  0.00    +0.000 A 
ATOM      8  C   UNL     1       0.633  10.209 -18.104  0.00  0.00    +0.000 A 
ATOM      9  C   UNL     1       0.977  11.554 -18.182  0.00  0.00    +0.002 A 
ATOM     10  C   UNL     1       0.501  12.403 -17.189  0.00  0.00    +0.019 A 
ATOM     11  C   UNL     1       0.377  11.786 -15.948  0.00  0.00    +0.002 A 
ATOM     12  C   UNL     1       0.595  10.420 -15.787  0.00  0.00    +0.000 A 
BRANCH  10  13
ATOM     13  C   UNL     1      -0.342  13.573 -17.490  0.00  0.00    +0.102 A 
ATOM     14  N   UNL     1      -1.103  14.279 -16.616  0.00  0.00    -0.227 NA
ATOM     15  C   UNL     1      -2.210  14.742 -17.251  0.00  0.00    +0.157 A 
ATOM     16  N   UNL     1      -2.253  14.226 -18.470  0.00  0.00    -0.226 NA
ATOM     17  C   UNL     1      -1.005  13.751 -18.699  0.00  0.00    +0.119 A 
BRANCH  15  18
ATOM     18  C   UNL     1      -3.544  14.914 -16.342  0.00  0.00    +0.134 C 
ATOM     19  N   UNL     1      -2.885  16.071 -15.493  0.00  0.00    -0.273 N 
ATOM     20  C   UNL     1      -3.056  16.099 -14.077  0.00  0.00    +0.246 C 
ATOM     21  O   UNL     1      -2.237  16.734 -13.423  0.00  0.00    -0.273 OA
ATOM     22  C   UNL     1      -2.212  16.913 -16.408  0.00  0.00    +0.094 C 
ATOM     23  C   UNL     1      -3.082  16.917 -17.632  0.00  0.00    +0.024 C 
ATOM     24  C   UNL     1      -4.239  16.015 -17.358  0.00  0.00    +0.029 C 
BRANCH  20  25
ATOM     25  C   UNL     1      -4.633  16.396 -13.845  0.00  0.00    +0.175 C 
BRANCH  25  26
ATOM     26  N   UNL     1      -4.965  14.923 -13.364  0.00  0.00    -0.161 NA
ATOM     27  C   UNL     1      -6.101  14.478 -14.116  0.00  0.00    +0.422 C 
ATOM     28  O   UNL     1      -7.155  15.175 -14.019  0.00  0.00    -0.225 OA
BRANCH  27  29
ATOM     29  O   UNL     1      -6.178  13.199 -14.676  0.00  0.00    -0.429 OA
ATOM     30  C   UNL     1      -7.041  12.986 -15.788  0.00  0.00    +0.257 C 
ENDBRANCH  27  29
ENDBRANCH  25  26
BRANCH  25  31
ATOM     31  C   UNL     1      -4.380  16.994 -12.329  0.00  0.00    +0.029 C 
ATOM     32  C   UNL     1      -5.677  17.748 -12.061  0.00  0.00    +0.002 C 
ATOM     33  C   UNL     1      -4.132  15.917 -11.380  0.00  0.00    +0.002 C 
ENDBRANCH  25  31
ENDBRANCH  20  25
ENDBRANCH  15  18
ENDBRANCH  10  13
ENDBRANCH   4   7
BRANCH   1  36
ATOM     34  C   UNL     1       2.039   6.201 -10.985  0.00  0.00    +0.157 A 
ATOM     35  N   UNL     1       2.437   6.211 -12.287  0.00  0.00    -0.227 NA
ATOM     36  C   UNL     1       1.534   6.895 -13.036  0.00  0.00    +0.102 A 
ATOM     37  C   UNL     1       0.565   7.211 -12.084  0.00  0.00    +0.119 A 
ATOM     38  N   UNL     1       0.749   6.389 -11.018  0.00  0.00    -0.226 NA
BRANCH  34  41
ATOM     39  C   UNL     1       4.697   6.767 -10.188  0.00  0.00    +0.246 C 
ATOM     40  N   UNL     1       3.659   6.227  -9.339  0.00  0.00    -0.273 N 
ATOM     41  C   UNL     1       2.848   5.104 -10.113  0.00  0.00    +0.134 C 
ATOM     42  C   UNL     1       1.713   4.928  -8.928  0.00  0.00    +0.029 C 
ATOM     43  C   UNL     1       1.660   6.201  -8.254  0.00  0.00    +0.024 C 
ATOM     44  C   UNL     1       2.640   7.109  -8.826  0.00  0.00    +0.094 C 
ATOM     45  O   UNL     1       4.235   7.488 -11.124  0.00  0.00    -0.273 OA
BRANCH  39  46
ATOM     46  C   UNL     1       5.711   5.600 -10.683  0.00  0.00    +0.175 C 
BRANCH  46  48
ATOM     47  C   UNL     1       6.248   5.610 -13.097  0.00  0.00    +0.422 C 
ATOM     48  N   UNL     1       6.276   6.416 -11.918  0.00  0.00    -0.161 NA
ATOM     49  O   UNL     1       5.403   4.682 -13.254  0.00  0.00    -0.225 OA
BRANCH  47  51
ATOM     50  C   UNL     1       6.664   6.387 -15.272  0.00  0.00    +0.257 C 
ATOM     51  O   UNL     1       7.045   5.880 -14.211  0.00  0.00    -0.429 OA
ENDBRANCH  47  51
ENDBRANCH  46  48
BRANCH  46  52
ATOM     52  C   UNL     1       6.925   6.133  -9.698  0.00  0.00    +0.029 C 
ATOM     53  C   UNL     1       7.498   7.311 -10.452  0.00  0.00    +0.002 C 
ATOM     54  C   UNL     1       7.952   5.042  -9.663  0.00  0.00    +0.002 C 
ENDBRANCH  46  52
ENDBRANCH  39  46
ENDBRANCH  34  41
ENDBRANCH   1  36
TORSDOF 13
ENDMDL
MODEL 8
REMARK VINA RESULT:      -7.9      6.434     11.328
REMARK  Name = 
REMARK  13 active torsions:
REMARK  status: ('A' for Active; 'I' for Inactive)
REMARK    1  A    between atoms: O_2  and  C_3
REMARK    2  A    between atoms: N_5  and  C_6
REMARK    3  A    between atoms: C_6  and  C_7
REMARK    4  A    between atoms: C_6  and  C_52
REMARK    5  A    between atoms: C_13  and  C_14
REMARK    6  A    between atoms: C_17  and  C_18
REMARK    7  A    between atoms: C_21  and  C_22
REMARK    8  A    between atoms: C_25  and  C_26
REMARK    9  A    between atoms: C_29  and  C_30
REMARK   10  A    between atoms: C_35  and  C_37
REMARK   11  A    between atoms: C_37  and  N_38
REMARK   12  A    between atoms: C_37  and  C_43
REMARK   13  A    between atoms: C_39  and  O_41
REMARK                            x       y       z     vdW  Elec       q    Type
REMARK                         _______ _______ _______ _____ _____    ______ ____
ROOT
ATOM      1  C   UNL     1       1.655   4.877 -12.948  0.00  0.00    +0.019 A 
ATOM      2  C   UNL     1       0.645   5.582 -12.293  0.00  0.00    +0.002 A 
ATOM      3  C   UNL     1      -0.191   6.457 -12.985  0.00  0.00    +0.000 A 
ATOM      4  C   UNL     1      -0.123   6.552 -14.374  0.00  0.00    +0.000 A 
ATOM      5  C   UNL     1       0.379   5.387 -14.953  0.00  0.00    +0.000 A 
ATOM      6  C   UNL     1       1.265   4.560 -14.248  0.00  0.00    +0.002 A 
ENDROOT
BRANCH   4   7
ATOM      7  C   UNL     1      -0.007   7.866 -15.030  0.00  0.00    +0.000 A 
ATOM      8  C   UNL     1      -0.007   7.962 -16.419  0.00  0.00    +0.000 A 
ATOM      9  C   UNL     1       0.667   8.985 -17.077  0.00  0.00    +0.002 A 
ATOM     10  C   UNL     1       0.856  10.181 -16.392  0.00  0.00    +0.019 A 
ATOM     11  C   UNL     1       1.010  10.013 -15.019  0.00  0.00    +0.002 A 
ATOM     12  C   UNL     1       0.856   8.769 -14.415  0.00  0.00    +0.000 A 
BRANCH  10  13
ATOM     13  C   UNL     1       0.348  11.467 -16.900  0.00  0.00    +0.102 A 
ATOM     14  N   UNL     1      -0.199  12.475 -16.174  0.00  0.00    -0.227 NA
ATOM     15  C   UNL     1      -1.148  13.103 -16.914  0.00  0.00    +0.157 A 
ATOM     16  N   UNL     1      -1.328  12.431 -18.040  0.00  0.00    -0.226 NA
ATOM     17  C   UNL     1      -0.249  11.619 -18.147  0.00  0.00    +0.119 A 
BRANCH  15  18
ATOM     18  C   UNL     1      -2.387  13.755 -16.094  0.00  0.00    +0.134 C 
ATOM     19  N   UNL     1      -1.437  14.786 -15.367  0.00  0.00    -0.273 N 
ATOM     20  C   UNL     1      -1.605  15.048 -13.974  0.00  0.00    +0.246 C 
ATOM     21  O   UNL     1      -0.645  15.511 -13.368  0.00  0.00    -0.273 OA
ATOM     22  C   UNL     1      -0.548  15.282 -16.348  0.00  0.00    +0.094 C 
ATOM     23  C   UNL     1      -1.373  15.365 -17.601  0.00  0.00    +0.024 C 
ATOM     24  C   UNL     1      -2.737  14.862 -17.269  0.00  0.00    +0.029 C 
BRANCH  20  25
ATOM     25  C   UNL     1      -3.037  15.797 -13.851  0.00  0.00    +0.175 C 
BRANCH  25  26
ATOM     26  N   UNL     1      -3.782  14.537 -13.244  0.00  0.00    -0.161 NA
ATOM     27  C   UNL     1      -5.059  14.448 -13.889  0.00  0.00    +0.422 C 
ATOM     28  O   UNL     1      -5.823  15.453 -13.779  0.00  0.00    -0.225 OA
BRANCH  27  29
ATOM     29  O   UNL     1      -5.587  13.237 -14.348  0.00  0.00    -0.429 OA
ATOM     30  C   UNL     1      -6.329  13.227 -15.563  0.00  0.00    +0.257 C 
ENDBRANCH  27  29
ENDBRANCH  25  26
BRANCH  25  31
ATOM     31  C   UNL     1      -2.655  16.461 -12.391  0.00  0.00    +0.029 C 
ATOM     32  C   UNL     1      -3.469  17.750 -12.401  0.00  0.00    +0.002 C 
ATOM     33  C   UNL     1      -3.010  15.562 -11.301  0.00  0.00    +0.002 C 
ENDBRANCH  25  31
ENDBRANCH  20  25
ENDBRANCH  15  18
ENDBRANCH  10  13
ENDBRANCH   4   7
BRANCH   1  36
ATOM     34  C   UNL     1       4.673   6.267 -11.647  0.00  0.00    +0.157 A 
ATOM     35  N   UNL     1       3.443   5.715 -11.461  0.00  0.00    -0.227 NA
ATOM     36  C   UNL     1       3.075   5.030 -12.573  0.00  0.00    +0.102 A 
ATOM     37  C   UNL     1       4.148   5.289 -13.427  0.00  0.00    +0.119 A 
ATOM     38  N   UNL     1       4.812   6.369 -12.939  0.00  0.00    -0.226 NA
BRANCH  34  41
ATOM     39  C   UNL     1       4.904   5.490  -8.933  0.00  0.00    +0.246 C 
ATOM     40  N   UNL     1       5.816   6.359  -9.642  0.00  0.00    -0.273 N 
ATOM     41  C   UNL     1       5.007   7.393 -10.533  0.00  0.00    +0.134 C 
ATOM     42  C   UNL     1       6.351   8.001 -11.273  0.00  0.00    +0.029 C 
ATOM     43  C   UNL     1       7.319   6.933 -11.250  0.00  0.00    +0.024 C 
ATOM     44  C   UNL     1       6.774   5.781 -10.552  0.00  0.00    +0.094 C 
ATOM     45  O   UNL     1       4.328   4.659  -9.700  0.00  0.00    -0.273 OA
BRANCH  39  46
ATOM     46  C   UNL     1       3.891   6.346  -7.997  0.00  0.00    +0.175 C 
BRANCH  46  48
ATOM     47  C   UNL     1       1.476   6.142  -8.483  0.00  0.00    +0.422 C 
ATOM     48  N   UNL     1       2.652   5.381  -8.207  0.00  0.00    -0.161 NA
ATOM     49  O   UNL     1       1.527   7.275  -9.042  0.00  0.00    -0.225 OA
BRANCH  47  51
ATOM     50  C   UNL     1      -0.399   5.522  -7.215  0.00  0.00    +0.257 C 
ATOM     51  O   UNL     1       0.189   5.631  -8.296  0.00  0.00    -0.429 OA
ENDBRANCH  47  51
ENDBRANCH  46  48
BRANCH  46  52
ATOM     52  C   UNL     1       4.361   5.547  -6.630  0.00  0.00    +0.029 C 
ATOM     53  C   UNL     1       3.167   4.677  -6.305  0.00  0.00    +0.002 C 
ATOM     54  C   UNL     1       4.500   6.586  -5.559  0.00  0.00    +0.002 C 
ENDBRANCH  46  52
ENDBRANCH  39  46
ENDBRANCH  34  41
ENDBRANCH   1  36
TORSDOF 13
ENDMDL
MODEL 9
REMARK VINA RESULT:      -7.9      3.087     12.538
REMARK  Name = 
REMARK  13 active torsions:
REMARK  status: ('A' for Active; 'I' for Inactive)
REMARK    1  A    between atoms: O_2  and  C_3
REMARK    2  A    between atoms: N_5  and  C_6
REMARK    3  A    between atoms: C_6  and  C_7
REMARK    4  A    between atoms: C_6  and  C_52
REMARK    5  A    between atoms: C_13  and  C_14
REMARK    6  A    between atoms: C_17  and  C_18
REMARK    7  A    between atoms: C_21  and  C_22
REMARK    8  A    between atoms: C_25  and  C_26
REMARK    9  A    between atoms: C_29  and  C_30
REMARK   10  A    between atoms: C_35  and  C_37
REMARK   11  A    between atoms: C_37  and  N_38
REMARK   12  A    between atoms: C_37  and  C_43
REMARK   13  A    between atoms: C_39  and  O_41
REMARK                            x       y       z     vdW  Elec       q    Type
REMARK                         _______ _______ _______ _____ _____    ______ ____
ROOT
ATOM      1  C   UNL     1       4.131   5.583  -2.863  0.00  0.00    +0.019 A 
ATOM      2  C   UNL     1       4.748   4.544  -3.561  0.00  0.00    +0.002 A 
ATOM      3  C   UNL     1       5.068   4.673  -4.912  0.00  0.00    +0.000 A 
ATOM      4  C   UNL     1       4.896   5.890  -5.568  0.00  0.00    +0.000 A 
ATOM      5  C   UNL     1       4.942   6.969  -4.687  0.00  0.00    +0.000 A 
ATOM      6  C   UNL     1       4.557   6.818  -3.347  0.00  0.00    +0.002 A 
ENDROOT
BRANCH   4   7
ATOM      7  C   UNL     1       4.172   5.954  -6.849  0.00  0.00    +0.000 A 
ATOM      8  C   UNL     1       4.836   5.702  -8.047  0.00  0.00    +0.000 A 
ATOM      9  C   UNL     1       4.437   6.297  -9.238  0.00  0.00    +0.002 A 
ATOM     10  C   UNL     1       3.103   6.674  -9.358  0.00  0.00    +0.019 A 
ATOM     11  C   UNL     1       2.530   7.071  -8.154  0.00  0.00    +0.002 A 
ATOM     12  C   UNL     1       3.219   6.964  -6.949  0.00  0.00    +0.000 A 
BRANCH  10  13
ATOM     13  C   UNL     1       2.231   6.152 -10.424  0.00  0.00    +0.102 A 
ATOM     14  N   UNL     1       2.447   6.215 -11.763  0.00  0.00    -0.227 NA
ATOM     15  C   UNL     1       1.258   6.330 -12.409  0.00  0.00    +0.157 A 
ATOM     16  N   UNL     1       0.297   6.492 -11.513  0.00  0.00    -0.226 NA
ATOM     17  C   UNL     1       0.843   6.114 -10.332  0.00  0.00    +0.119 A 
BRANCH  15  18
ATOM     18  C   UNL     1       1.276   7.148 -13.811  0.00  0.00    +0.134 C 
ATOM     19  N   UNL     1       2.516   6.325 -14.340  0.00  0.00    -0.273 N 
ATOM     20  C   UNL     1       3.576   6.995 -15.021  0.00  0.00    +0.246 C 
ATOM     21  O   UNL     1       4.666   6.435 -15.056  0.00  0.00    -0.273 OA
ATOM     22  C   UNL     1       2.279   4.972 -14.003  0.00  0.00    +0.094 C 
ATOM     23  C   UNL     1       0.796   4.795 -14.160  0.00  0.00    +0.024 C 
ATOM     24  C   UNL     1       0.231   6.115 -14.564  0.00  0.00    +0.029 C 
BRANCH  20  25
ATOM     25  C   UNL     1       2.926   7.518 -16.411  0.00  0.00    +0.175 C 
BRANCH  25  26
ATOM     26  N   UNL     1       2.786   9.019 -15.923  0.00  0.00    -0.161 NA
ATOM     27  C   UNL     1       1.510   9.493 -16.371  0.00  0.00    +0.422 C 
ATOM     28  O   UNL     1       1.297   9.459 -17.620  0.00  0.00    -0.225 OA
BRANCH  27  29
ATOM     29  O   UNL     1       0.656  10.240 -15.554  0.00  0.00    -0.429 OA
ATOM     30  C   UNL     1       1.059  11.544 -15.147  0.00  0.00    +0.257 C 
ENDBRANCH  27  29
ENDBRANCH  25  26
BRANCH  25  31
ATOM     31  C   UNL     1       4.402   7.728 -17.115  0.00  0.00    +0.029 C 
ATOM     32  C   UNL     1       4.112   7.394 -18.574  0.00  0.00    +0.002 C 
ATOM     33  C   UNL     1       4.883   9.088 -16.919  0.00  0.00    +0.002 C 
ENDBRANCH  25  31
ENDBRANCH  20  25
ENDBRANCH  15  18
ENDBRANCH  10  13
ENDBRANCH   4   7
BRANCH   1  36
ATOM     34  C   UNL     1       0.977   6.326  -1.366  0.00  0.00    +0.157 A 
ATOM     35  N   UNL     1       1.790   6.267  -2.457  0.00  0.00    -0.227 NA
ATOM     36  C   UNL     1       2.813   5.407  -2.220  0.00  0.00    +0.102 A 
ATOM     37  C   UNL     1       2.564   5.036  -0.898  0.00  0.00    +0.119 A 
ATOM     38  N   UNL     1       1.723   5.959  -0.362  0.00  0.00    -0.226 NA
BRANCH  34  41
ATOM     39  C   UNL     1      -1.658   5.941  -2.329  0.00  0.00    +0.246 C 
ATOM     40  N   UNL     1      -1.295   6.678  -1.140  0.00  0.00    -0.273 N 
ATOM     41  C   UNL     1      -0.029   7.592  -1.428  0.00  0.00    +0.134 C 
ATOM     42  C   UNL     1       0.152   8.058   0.145  0.00  0.00    +0.029 C 
ATOM     43  C   UNL     1      -0.401   6.982   0.930  0.00  0.00    +0.024 C 
ATOM     44  C   UNL     1      -0.943   5.955   0.056  0.00  0.00    +0.094 C 
ATOM     45  O   UNL     1      -0.828   5.022  -2.605  0.00  0.00    -0.273 OA
BRANCH  39  46
ATOM     46  C   UNL     1      -1.977   6.946  -3.564  0.00  0.00    +0.175 C 
BRANCH  46  48
ATOM     47  C   UNL     1      -0.611   6.549  -5.586  0.00  0.00    +0.422 C 
ATOM     48  N   UNL     1      -1.536   5.927  -4.695  0.00  0.00    -0.161 NA
ATOM     49  O   UNL     1       0.153   7.486  -5.213  0.00  0.00    -0.225 OA
BRANCH  47  51
ATOM     50  C   UNL     1      -0.880   5.065  -7.384  0.00  0.00    +0.257 C 
ATOM     51  O   UNL     1      -0.378   6.075  -6.879  0.00  0.00    -0.429 OA
ENDBRANCH  47  51
ENDBRANCH  46  48
BRANCH  46  52
ATOM     52  C   UNL     1      -3.552   6.458  -3.652  0.00  0.00    +0.029 C 
ATOM     53  C   UNL     1      -4.027   6.545  -2.219  0.00  0.00    +0.002 C 
ATOM     54  C   UNL     1      -3.526   5.016  -4.061  0.00  0.00    +0.002 C 
ENDBRANCH  46  52
ENDBRANCH  39  46
ENDBRANCH  34  41
ENDBRANCH   1  36
TORSDOF 13
ENDMDL
