MODEL 1
REMARK VINA RESULT:      -7.5      0.000      0.000
REMARK  Name = 
REMARK  4 active torsions:
REMARK  status: ('A' for Active; 'I' for Inactive)
REMARK    1  A    between atoms: N_11  and  C_12
REMARK    2  A    between atoms: C_14  and  C_15
REMARK    3  A    between atoms: C_15  and  O_16
REMARK    4  A    between atoms: O_16  and  P_17
REMARK                            x       y       z     vdW  Elec       q    Type
REMARK                         _______ _______ _______ _____ _____    ______ ____
ROOT
ATOM      1  C   UNL     1       0.857   5.286  -6.542  0.00  0.00    +0.241 C 
ATOM      2  C   UNL     1       1.306   5.827  -8.110  0.00  0.00    +0.234 C 
ATOM      3  O   UNL     1       1.606   7.256  -7.771  0.00  0.00    -0.216 OA
ATOM      4  C   UNL     1       2.894   5.332  -7.821  0.00  0.00    +0.216 C 
ATOM      5  O   UNL     1       2.452   3.899  -7.955  0.00  0.00    -0.218 OA
ATOM      6  C   UNL     1       2.751   5.216  -6.120  0.00  0.00    +0.180 C 
ATOM      7  O   UNL     1       1.758   6.346  -5.938  0.00  0.00    -0.331 OA
ENDROOT
BRANCH   1  13
ATOM      8  N   UNL     1      -3.208   5.015  -3.248  0.00  0.00    -0.105 NA
ATOM      9  C   UNL     1      -2.721   5.982  -3.868  0.00  0.00    +0.194 A 
ATOM     10  C   UNL     1      -2.160   5.735  -5.123  0.00  0.00    +0.152 A 
ATOM     11  N   UNL     1      -2.367   4.907  -6.132  0.00  0.00    -0.219 NA
ATOM     12  C   UNL     1      -1.502   5.256  -7.121  0.00  0.00    +0.182 A 
ATOM     13  N   UNL     1      -0.511   6.067  -6.646  0.00  0.00    -0.269 N 
ATOM     14  C   UNL     1      -0.964   6.391  -5.410  0.00  0.00    +0.171 A 
ATOM     15  N   UNL     1      -0.693   7.546  -4.786  0.00  0.00    -0.182 NA
ATOM     16  C   UNL     1      -1.676   8.118  -4.033  0.00  0.00    +0.313 A 
ATOM     17  F   UNL     1      -2.073   9.420  -4.211  0.00  0.00    -0.161 F 
ATOM     18  N   UNL     1      -2.522   7.250  -3.414  0.00  0.00    -0.181 NA
ENDBRANCH   1  13
BRANCH   6  19
ATOM     19  C   UNL     1       4.117   6.117  -6.046  0.00  0.00    +0.186 C 
BRANCH  19  20
ATOM     20  O   UNL     1       4.046   7.085  -5.205  0.00  0.00    -0.268 OA
BRANCH  20  21
ATOM     21  P   UNL     1       4.582   7.008  -3.664  0.00  0.00    +0.533 P 
ATOM     22  O   UNL     1       6.228   7.397  -3.892  0.00  0.00    -0.115 OA
ATOM     23  O   UNL     1       3.752   8.232  -2.836  0.00  0.00    -0.115 OA
ATOM     24  O   UNL     1       4.498   5.715  -2.936  0.00  0.00    -0.222 OA
ENDBRANCH  20  21
ENDBRANCH  19  20
ENDBRANCH   6  19
TORSDOF 4
ENDMDL
MODEL 2
REMARK VINA RESULT:      -7.5      5.020      7.104
REMARK  Name = 
REMARK  4 active torsions:
REMARK  status: ('A' for Active; 'I' for Inactive)
REMARK    1  A    between atoms: N_11  and  C_12
REMARK    2  A    between atoms: C_14  and  C_15
REMARK    3  A    between atoms: C_15  and  O_16
REMARK    4  A    between atoms: O_16  and  P_17
REMARK                            x       y       z     vdW  Elec       q    Type
REMARK                         _______ _______ _______ _____ _____    ______ ____
ROOT
ATOM      1  C   UNL     1       2.651   6.061  -9.570  0.00  0.00    +0.241 C 
ATOM      2  C   UNL     1       2.142   4.549  -8.930  0.00  0.00    +0.234 C 
ATOM      3  O   UNL     1       3.251   4.343  -7.942  0.00  0.00    -0.216 OA
ATOM      4  C   UNL     1       1.172   5.355  -7.808  0.00  0.00    +0.216 C 
ATOM      5  O   UNL     1       0.218   5.713  -8.917  0.00  0.00    -0.218 OA
ATOM      6  C   UNL     1       1.927   6.883  -7.966  0.00  0.00    +0.180 C 
ATOM      7  O   UNL     1       3.326   6.372  -8.247  0.00  0.00    -0.331 OA
ENDROOT
BRANCH   1  13
ATOM      8  N   UNL     1       6.658   8.363 -12.037  0.00  0.00    -0.105 NA
ATOM      9  C   UNL     1       6.606   7.315 -11.364  0.00  0.00    +0.194 A 
ATOM     10  C   UNL     1       5.424   6.573 -11.404  0.00  0.00    +0.152 A 
ATOM     11  N   UNL     1       4.466   6.321 -12.279  0.00  0.00    -0.219 NA
ATOM     12  C   UNL     1       3.622   5.425 -11.704  0.00  0.00    +0.182 A 
ATOM     13  N   UNL     1       3.824   5.353 -10.354  0.00  0.00    -0.269 N 
ATOM     14  C   UNL     1       4.980   6.041 -10.194  0.00  0.00    +0.171 A 
ATOM     15  N   UNL     1       5.877   5.795  -9.228  0.00  0.00    -0.182 NA
ATOM     16  C   UNL     1       7.201   5.908  -9.533  0.00  0.00    +0.313 A 
ATOM     17  F   UNL     1       8.099   4.898  -9.293  0.00  0.00    -0.161 F 
ATOM     18  N   UNL     1       7.513   6.859 -10.455  0.00  0.00    -0.181 NA
ENDBRANCH   1  13
BRANCH   6  19
ATOM     19  C   UNL     1       2.026   6.889  -6.331  0.00  0.00    +0.186 C 
BRANCH  19  20
ATOM     20  O   UNL     1       3.110   7.412  -5.886  0.00  0.00    -0.268 OA
BRANCH  20  21
ATOM     21  P   UNL     1       3.858   6.954  -4.508  0.00  0.00    +0.533 P 
ATOM     22  O   UNL     1       4.425   5.411  -4.965  0.00  0.00    -0.115 OA
ATOM     23  O   UNL     1       5.127   8.058  -4.295  0.00  0.00    -0.115 OA
ATOM     24  O   UNL     1       3.054   6.813  -3.265  0.00  0.00    -0.222 OA
ENDBRANCH  20  21
ENDBRANCH  19  20
ENDBRANCH   6  19
TORSDOF 4
ENDMDL
MODEL 3
REMARK VINA RESULT:      -7.4      4.622      6.163
REMARK  Name = 
REMARK  4 active torsions:
REMARK  status: ('A' for Active; 'I' for Inactive)
REMARK    1  A    between atoms: N_11  and  C_12
REMARK    2  A    between atoms: C_14  and  C_15
REMARK    3  A    between atoms: C_15  and  O_16
REMARK    4  A    between atoms: O_16  and  P_17
REMARK                            x       y       z     vdW  Elec       q    Type
REMARK                         _______ _______ _______ _____ _____    ______ ____
ROOT
ATOM      1  C   UNL     1       2.585   6.789  -4.935  0.00  0.00    +0.241 C 
ATOM      2  C   UNL     1       2.847   5.682  -6.224  0.00  0.00    +0.234 C 
ATOM      3  O   UNL     1       2.475   4.419  -5.507  0.00  0.00    -0.216 OA
ATOM      4  C   UNL     1       1.270   5.945  -6.765  0.00  0.00    +0.216 C 
ATOM      5  O   UNL     1       1.686   7.307  -7.257  0.00  0.00    -0.218 OA
ATOM      6  C   UNL     1       0.687   6.648  -5.317  0.00  0.00    +0.180 C 
ATOM      7  O   UNL     1       1.546   5.845  -4.361  0.00  0.00    -0.331 OA
ENDROOT
BRANCH   1  13
ATOM      8  N   UNL     1       4.318   8.166  -0.187  0.00  0.00    -0.105 NA
ATOM      9  C   UNL     1       4.336   7.067  -0.777  0.00  0.00    +0.194 A 
ATOM     10  C   UNL     1       4.474   7.077  -2.166  0.00  0.00    +0.152 A 
ATOM     11  N   UNL     1       5.070   7.826  -3.077  0.00  0.00    -0.219 NA
ATOM     12  C   UNL     1       4.884   7.221  -4.280  0.00  0.00    +0.182 A 
ATOM     13  N   UNL     1       3.894   6.283  -4.211  0.00  0.00    -0.269 N 
ATOM     14  C   UNL     1       3.683   6.176  -2.877  0.00  0.00    +0.171 A 
ATOM     15  N   UNL     1       3.269   5.056  -2.267  0.00  0.00    -0.182 NA
ATOM     16  C   UNL     1       3.785   4.762  -1.039  0.00  0.00    +0.313 A 
ATOM     17  F   UNL     1       4.368   3.552  -0.757  0.00  0.00    -0.161 F 
ATOM     18  N   UNL     1       4.084   5.834  -0.255  0.00  0.00    -0.181 NA
ENDBRANCH   1  13
BRANCH   6  19
ATOM     19  C   UNL     1      -0.558   5.588  -5.427  0.00  0.00    +0.186 C 
BRANCH  19  20
ATOM     20  O   UNL     1      -1.630   5.997  -4.850  0.00  0.00    -0.268 OA
BRANCH  20  21
ATOM     21  P   UNL     1      -1.972   5.767  -3.269  0.00  0.00    +0.533 P 
ATOM     22  O   UNL     1      -2.107   7.386  -2.746  0.00  0.00    -0.115 OA
ATOM     23  O   UNL     1      -3.466   4.967  -3.243  0.00  0.00    -0.115 OA
ATOM     24  O   UNL     1      -0.976   5.074  -2.410  0.00  0.00    -0.222 OA
ENDBRANCH  20  21
ENDBRANCH  19  20
ENDBRANCH   6  19
TORSDOF 4
ENDMDL
MODEL 4
REMARK VINA RESULT:      -7.2      2.673      4.425
REMARK  Name = 
REMARK  4 active torsions:
REMARK  status: ('A' for Active; 'I' for Inactive)
REMARK    1  A    between atoms: N_11  and  C_12
REMARK    2  A    between atoms: C_14  and  C_15
REMARK    3  A    between atoms: C_15  and  O_16
REMARK    4  A    between atoms: O_16  and  P_17
REMARK                            x       y       z     vdW  Elec       q    Type
REMARK                         _______ _______ _______ _____ _____    ______ ____
ROOT
ATOM      1  C   UNL     1       2.055   6.228  -5.327  0.00  0.00    +0.241 C 
ATOM      2  C   UNL     1       2.871   4.816  -5.871  0.00  0.00    +0.234 C 
ATOM      3  O   UNL     1       1.911   4.409  -6.948  0.00  0.00    -0.216 OA
ATOM      4  C   UNL     1       3.792   5.760  -6.925  0.00  0.00    +0.216 C 
ATOM      5  O   UNL     1       4.563   6.292  -5.746  0.00  0.00    -0.218 OA
ATOM      6  C   UNL     1       2.778   7.138  -6.883  0.00  0.00    +0.180 C 
ATOM      7  O   UNL     1       1.466   6.399  -6.714  0.00  0.00    -0.331 OA
ENDROOT
BRANCH   1  13
ATOM      8  N   UNL     1      -2.072   7.896  -2.566  0.00  0.00    -0.105 NA
ATOM      9  C   UNL     1      -1.953   6.946  -3.366  0.00  0.00    +0.194 A 
ATOM     10  C   UNL     1      -0.719   6.296  -3.426  0.00  0.00    +0.152 A 
ATOM     11  N   UNL     1       0.269   6.011  -2.596  0.00  0.00    -0.219 NA
ATOM     12  C   UNL     1       1.168   5.259  -3.284  0.00  0.00    +0.182 A 
ATOM     13  N   UNL     1       0.950   5.342  -4.630  0.00  0.00    -0.269 N 
ATOM     14  C   UNL     1      -0.256   5.955  -4.696  0.00  0.00    +0.171 A 
ATOM     15  N   UNL     1      -1.147   5.764  -5.680  0.00  0.00    -0.182 NA
ATOM     16  C   UNL     1      -2.471   5.738  -5.354  0.00  0.00    +0.313 A 
ATOM     17  F   UNL     1      -3.295   4.701  -5.714  0.00  0.00    -0.161 F 
ATOM     18  N   UNL     1      -2.838   6.541  -4.319  0.00  0.00    -0.181 NA
ENDBRANCH   1  13
BRANCH   6  19
ATOM     19  C   UNL     1       2.835   7.102  -8.520  0.00  0.00    +0.186 C 
BRANCH  19  20
ATOM     20  O   UNL     1       1.699   7.326  -9.076  0.00  0.00    -0.268 OA
BRANCH  20  21
ATOM     21  P   UNL     1       1.056   6.406 -10.263  0.00  0.00    +0.533 P 
ATOM     22  O   UNL     1      -0.121   7.478 -10.879  0.00  0.00    -0.115 OA
ATOM     23  O   UNL     1       2.317   6.149 -11.368  0.00  0.00    -0.115 OA
ATOM     24  O   UNL     1       0.389   5.128  -9.903  0.00  0.00    -0.222 OA
ENDBRANCH  20  21
ENDBRANCH  19  20
ENDBRANCH   6  19
TORSDOF 4
ENDMDL
MODEL 5
REMARK VINA RESULT:      -7.1      4.200      6.245
REMARK  Name = 
REMARK  4 active torsions:
REMARK  status: ('A' for Active; 'I' for Inactive)
REMARK    1  A    between atoms: N_11  and  C_12
REMARK    2  A    between atoms: C_14  and  C_15
REMARK    3  A    between atoms: C_15  and  O_16
REMARK    4  A    between atoms: O_16  and  P_17
REMARK                            x       y       z     vdW  Elec       q    Type
REMARK                         _______ _______ _______ _____ _____    ______ ____
ROOT
ATOM      1  C   UNL     1       2.827   5.683  -8.232  0.00  0.00    +0.241 C 
ATOM      2  C   UNL     1       3.200   6.903  -7.079  0.00  0.00    +0.234 C 
ATOM      3  O   UNL     1       1.844   7.535  -6.982  0.00  0.00    -0.216 OA
ATOM      4  C   UNL     1       2.879   5.813  -5.830  0.00  0.00    +0.216 C 
ATOM      5  O   UNL     1       4.164   5.096  -6.149  0.00  0.00    -0.218 OA
ATOM      6  C   UNL     1       2.013   4.683  -6.780  0.00  0.00    +0.180 C 
ATOM      7  O   UNL     1       1.393   5.680  -7.738  0.00  0.00    -0.331 OA
ENDROOT
BRANCH   1  13
ATOM      8  N   UNL     1       1.883   4.857 -13.318  0.00  0.00    -0.105 NA
ATOM      9  C   UNL     1       1.523   5.779 -12.559  0.00  0.00    +0.194 A 
ATOM     10  C   UNL     1       2.393   6.156 -11.534  0.00  0.00    +0.152 A 
ATOM     11  N   UNL     1       3.700   6.208 -11.341  0.00  0.00    -0.219 NA
ATOM     12  C   UNL     1       3.903   6.770 -10.120  0.00  0.00    +0.182 A 
ATOM     13  N   UNL     1       2.755   6.766  -9.379  0.00  0.00    -0.269 N 
ATOM     14  C   UNL     1       1.817   6.422 -10.293  0.00  0.00    +0.171 A 
ATOM     15  N   UNL     1       0.536   6.819 -10.246  0.00  0.00    -0.182 NA
ATOM     16  C   UNL     1      -0.090   7.115 -11.421  0.00  0.00    +0.313 A 
ATOM     17  F   UNL     1      -0.732   8.310 -11.629  0.00  0.00    -0.161 F 
ATOM     18  N   UNL     1       0.304   6.383 -12.498  0.00  0.00    -0.181 NA
ENDBRANCH   1  13
BRANCH   6  19
ATOM     19  C   UNL     1       0.856   4.751  -5.622  0.00  0.00    +0.186 C 
BRANCH  19  20
ATOM     20  O   UNL     1      -0.317   4.992  -6.084  0.00  0.00    -0.268 OA
BRANCH  20  21
ATOM     21  P   UNL     1      -1.448   5.881  -5.311  0.00  0.00    +0.533 P 
ATOM     22  O   UNL     1      -0.566   7.311  -5.016  0.00  0.00    -0.115 OA
ATOM     23  O   UNL     1      -2.685   6.123  -6.445  0.00  0.00    -0.115 OA
ATOM     24  O   UNL     1      -1.994   5.387  -4.020  0.00  0.00    -0.222 OA
ENDBRANCH  20  21
ENDBRANCH  19  20
ENDBRANCH   6  19
TORSDOF 4
ENDMDL
MODEL 6
REMARK VINA RESULT:      -7.1      5.383      7.518
REMARK  Name = 
REMARK  4 active torsions:
REMARK  status: ('A' for Active; 'I' for Inactive)
REMARK    1  A    between atoms: N_11  and  C_12
REMARK    2  A    between atoms: C_14  and  C_15
REMARK    3  A    between atoms: C_15  and  O_16
REMARK    4  A    between atoms: O_16  and  P_17
REMARK                            x       y       z     vdW  Elec       q    Type
REMARK                         _______ _______ _______ _____ _____    ______ ____
ROOT
ATOM      1  C   UNL     1       2.467   6.091  -9.751  0.00  0.00    +0.241 C 
ATOM      2  C   UNL     1       1.638   4.586  -9.715  0.00  0.00    +0.234 C 
ATOM      3  O   UNL     1       2.461   3.907  -8.661  0.00  0.00    -0.216 OA
ATOM      4  C   UNL     1       0.551   5.216  -8.587  0.00  0.00    +0.216 C 
ATOM      5  O   UNL     1      -0.075   6.042  -9.680  0.00  0.00    -0.218 OA
ATOM      6  C   UNL     1       1.511   6.556  -8.126  0.00  0.00    +0.180 C 
ATOM      7  O   UNL     1       2.860   5.888  -8.300  0.00  0.00    -0.331 OA
ENDROOT
BRANCH   1  13
ATOM      8  N   UNL     1       6.641   8.501 -11.802  0.00  0.00    -0.105 NA
ATOM      9  C   UNL     1       6.539   7.415 -11.199  0.00  0.00    +0.194 A 
ATOM     10  C   UNL     1       5.359   6.687 -11.362  0.00  0.00    +0.152 A 
ATOM     11  N   UNL     1       4.460   6.497 -12.313  0.00  0.00    -0.219 NA
ATOM     12  C   UNL     1       3.575   5.575 -11.850  0.00  0.00    +0.182 A 
ATOM     13  N   UNL     1       3.686   5.422 -10.497  0.00  0.00    -0.269 N 
ATOM     14  C   UNL     1       4.833   6.088 -10.219  0.00  0.00    +0.171 A 
ATOM     15  N   UNL     1       5.661   5.776  -9.212  0.00  0.00    -0.182 NA
ATOM     16  C   UNL     1       7.004   5.896  -9.421  0.00  0.00    +0.313 A 
ATOM     17  F   UNL     1       7.878   4.865  -9.182  0.00  0.00    -0.161 F 
ATOM     18  N   UNL     1       7.381   6.898 -10.261  0.00  0.00    -0.181 NA
ENDBRANCH   1  13
BRANCH   6  19
ATOM     19  C   UNL     1       1.238   6.087  -6.580  0.00  0.00    +0.186 C 
BRANCH  19  20
ATOM     20  O   UNL     1       0.600   6.959  -5.886  0.00  0.00    -0.268 OA
BRANCH  20  21
ATOM     21  P   UNL     1      -0.756   6.644  -5.031  0.00  0.00    +0.533 P 
ATOM     22  O   UNL     1      -1.332   8.230  -4.776  0.00  0.00    -0.115 OA
ATOM     23  O   UNL     1      -1.758   5.768  -6.081  0.00  0.00    -0.115 OA
ATOM     24  O   UNL     1      -0.636   5.967  -3.713  0.00  0.00    -0.222 OA
ENDBRANCH  20  21
ENDBRANCH  19  20
ENDBRANCH   6  19
TORSDOF 4
ENDMDL
MODEL 7
REMARK VINA RESULT:      -7.1      2.921      4.249
REMARK  Name = 
REMARK  4 active torsions:
REMARK  status: ('A' for Active; 'I' for Inactive)
REMARK    1  A    between atoms: N_11  and  C_12
REMARK    2  A    between atoms: C_14  and  C_15
REMARK    3  A    between atoms: C_15  and  O_16
REMARK    4  A    between atoms: O_16  and  P_17
REMARK                            x       y       z     vdW  Elec       q    Type
REMARK                         _______ _______ _______ _____ _____    ______ ____
ROOT
ATOM      1  C   UNL     1       2.180   6.110  -5.902  0.00  0.00    +0.241 C 
ATOM      2  C   UNL     1       3.038   4.627  -5.765  0.00  0.00    +0.234 C 
ATOM      3  O   UNL     1       2.270   3.834  -6.779  0.00  0.00    -0.216 OA
ATOM      4  C   UNL     1       4.156   5.173  -6.906  0.00  0.00    +0.216 C 
ATOM      5  O   UNL     1       4.723   6.112  -5.875  0.00  0.00    -0.218 OA
ATOM      6  C   UNL     1       3.189   6.441  -7.528  0.00  0.00    +0.180 C 
ATOM      7  O   UNL     1       1.848   5.762  -7.341  0.00  0.00    -0.331 OA
ENDROOT
BRANCH   1  13
ATOM      8  N   UNL     1      -2.008   8.645  -4.039  0.00  0.00    -0.105 NA
ATOM      9  C   UNL     1      -1.904   7.529  -4.585  0.00  0.00    +0.194 A 
ATOM     10  C   UNL     1      -0.731   6.804  -4.367  0.00  0.00    +0.152 A 
ATOM     11  N   UNL     1       0.152   6.657  -3.395  0.00  0.00    -0.219 NA
ATOM     12  C   UNL     1       1.038   5.708  -3.796  0.00  0.00    +0.182 A 
ATOM     13  N   UNL     1       0.946   5.486  -5.141  0.00  0.00    -0.269 N 
ATOM     14  C   UNL     1      -0.192   6.144  -5.470  0.00  0.00    +0.171 A 
ATOM     15  N   UNL     1      -1.008   5.786  -6.473  0.00  0.00    -0.182 NA
ATOM     16  C   UNL     1      -2.352   5.923  -6.290  0.00  0.00    +0.313 A 
ATOM     17  F   UNL     1      -3.230   4.887  -6.488  0.00  0.00    -0.161 F 
ATOM     18  N   UNL     1      -2.735   6.969  -5.508  0.00  0.00    -0.181 NA
ENDBRANCH   1  13
BRANCH   6  19
ATOM     19  C   UNL     1       3.531   5.835  -9.012  0.00  0.00    +0.186 C 
BRANCH  19  20
ATOM     20  O   UNL     1       4.075   6.689  -9.800  0.00  0.00    -0.268 OA
BRANCH  20  21
ATOM     21  P   UNL     1       5.498   6.459 -10.568  0.00  0.00    +0.533 P 
ATOM     22  O   UNL     1       5.017   5.362 -11.784  0.00  0.00    -0.115 OA
ATOM     23  O   UNL     1       5.915   7.972 -11.209  0.00  0.00    -0.115 OA
ATOM     24  O   UNL     1       6.634   5.863  -9.817  0.00  0.00    -0.222 OA
ENDBRANCH  20  21
ENDBRANCH  19  20
ENDBRANCH   6  19
TORSDOF 4
ENDMDL
MODEL 8
REMARK VINA RESULT:      -7.0      6.181      8.961
REMARK  Name = 
REMARK  4 active torsions:
REMARK  status: ('A' for Active; 'I' for Inactive)
REMARK    1  A    between atoms: N_11  and  C_12
REMARK    2  A    between atoms: C_14  and  C_15
REMARK    3  A    between atoms: C_15  and  O_16
REMARK    4  A    between atoms: O_16  and  P_17
REMARK                            x       y       z     vdW  Elec       q    Type
REMARK                         _______ _______ _______ _____ _____    ______ ____
ROOT
ATOM      1  C   UNL     1       3.080   5.376  -9.787  0.00  0.00    +0.241 C 
ATOM      2  C   UNL     1       2.003   6.184  -8.718  0.00  0.00    +0.234 C 
ATOM      3  O   UNL     1       1.934   7.502  -9.429  0.00  0.00    -0.216 OA
ATOM      4  C   UNL     1       0.690   5.554  -9.571  0.00  0.00    +0.216 C 
ATOM      5  O   UNL     1       0.976   4.200  -8.976  0.00  0.00    -0.218 OA
ATOM      6  C   UNL     1       1.566   5.119 -10.976  0.00  0.00    +0.180 C 
ATOM      7  O   UNL     1       2.576   6.248 -10.922  0.00  0.00    -0.331 OA
ENDROOT
BRANCH   1  13
ATOM      8  N   UNL     1       8.122   4.972 -11.151  0.00  0.00    -0.105 NA
ATOM      9  C   UNL     1       7.421   5.972 -10.898  0.00  0.00    +0.194 A 
ATOM     10  C   UNL     1       6.409   5.834  -9.946  0.00  0.00    +0.152 A 
ATOM     11  N   UNL     1       6.203   5.135  -8.843  0.00  0.00    -0.219 NA
ATOM     12  C   UNL     1       5.014   5.542  -8.326  0.00  0.00    +0.182 A 
ATOM     13  N   UNL     1       4.288   6.239  -9.249  0.00  0.00    -0.269 N 
ATOM     14  C   UNL     1       5.193   6.450 -10.236  0.00  0.00    +0.171 A 
ATOM     15  N   UNL     1       5.184   7.513 -11.053  0.00  0.00    -0.182 NA
ATOM     16  C   UNL     1       6.381   8.052 -11.422  0.00  0.00    +0.313 A 
ATOM     17  F   UNL     1       6.666   9.386 -11.264  0.00  0.00    -0.161 F 
ATOM     18  N   UNL     1       7.410   7.170 -11.545  0.00  0.00    -0.181 NA
ENDBRANCH   1  13
BRANCH   6  19
ATOM     19  C   UNL     1       0.406   5.911 -11.819  0.00  0.00    +0.186 C 
BRANCH  19  20
ATOM     20  O   UNL     1       0.783   6.272 -12.992  0.00  0.00    -0.268 OA
BRANCH  20  21
ATOM     21  P   UNL     1       1.076   5.240 -14.224  0.00  0.00    +0.533 P 
ATOM     22  O   UNL     1       0.393   6.112 -15.523  0.00  0.00    -0.115 OA
ATOM     23  O   UNL     1       2.765   5.148 -14.343  0.00  0.00    -0.115 OA
ATOM     24  O   UNL     1       0.465   3.886 -14.191  0.00  0.00    -0.222 OA
ENDBRANCH  20  21
ENDBRANCH  19  20
ENDBRANCH   6  19
TORSDOF 4
ENDMDL
MODEL 9
REMARK VINA RESULT:      -6.9      4.253      5.704
REMARK  Name = 
REMARK  4 active torsions:
REMARK  status: ('A' for Active; 'I' for Inactive)
REMARK    1  A    between atoms: N_11  and  C_12
REMARK    2  A    between atoms: C_14  and  C_15
REMARK    3  A    between atoms: C_15  and  O_16
REMARK    4  A    between atoms: O_16  and  P_17
REMARK                            x       y       z     vdW  Elec       q    Type
REMARK                         _______ _______ _______ _____ _____    ______ ____
ROOT
ATOM      1  C   UNL     1       2.587   5.371  -7.768  0.00  0.00    +0.241 C 
ATOM      2  C   UNL     1       1.558   6.339  -8.748  0.00  0.00    +0.234 C 
ATOM      3  O   UNL     1       2.466   7.519  -8.922  0.00  0.00    -0.216 OA
ATOM      4  C   UNL     1       2.151   5.566 -10.126  0.00  0.00    +0.216 C 
ATOM      5  O   UNL     1       1.374   4.333  -9.747  0.00  0.00    -0.218 OA
ATOM      6  C   UNL     1       3.549   4.909  -9.390  0.00  0.00    +0.180 C 
ATOM      7  O   UNL     1       3.791   6.037  -8.407  0.00  0.00    -0.331 OA
ENDROOT
BRANCH   1  13
ATOM      8  N   UNL     1       3.837   4.467  -2.762  0.00  0.00    -0.105 NA
ATOM      9  C   UNL     1       3.870   5.515  -3.436  0.00  0.00    +0.194 A 
ATOM     10  C   UNL     1       2.907   5.679  -4.434  0.00  0.00    +0.152 A 
ATOM     11  N   UNL     1       1.649   5.328  -4.634  0.00  0.00    -0.219 NA
ATOM     12  C   UNL     1       1.255   5.895  -5.805  0.00  0.00    +0.182 A 
ATOM     13  N   UNL     1       2.331   6.320  -6.532  0.00  0.00    -0.269 N 
ATOM     14  C   UNL     1       3.346   6.218  -5.641  0.00  0.00    +0.171 A 
ATOM     15  N   UNL     1       4.432   7.006  -5.642  0.00  0.00    -0.182 NA
ATOM     16  C   UNL     1       4.952   7.387  -4.441  0.00  0.00    +0.313 A 
ATOM     17  F   UNL     1       5.184   8.703  -4.125  0.00  0.00    -0.161 F 
ATOM     18  N   UNL     1       4.832   6.480  -3.433  0.00  0.00    -0.181 NA
ENDBRANCH   1  13
BRANCH   6  19
ATOM     19  C   UNL     1       4.384   5.541 -10.650  0.00  0.00    +0.186 C 
BRANCH  19  20
ATOM     20  O   UNL     1       5.653   5.370 -10.560  0.00  0.00    -0.268 OA
BRANCH  20  21
ATOM     21  P   UNL     1       6.746   6.007 -11.594  0.00  0.00    +0.533 P 
ATOM     22  O   UNL     1       7.828   6.730 -10.491  0.00  0.00    -0.115 OA
ATOM     23  O   UNL     1       7.443   4.681 -12.387  0.00  0.00    -0.115 OA
ATOM     24  O   UNL     1       6.301   7.040 -12.565  0.00  0.00    -0.222 OA
ENDBRANCH  20  21
ENDBRANCH  19  20
ENDBRANCH   6  19
TORSDOF 4
ENDMDL
