MODEL 1
REMARK VINA RESULT:      -8.5      0.000      0.000
REMARK  Name = 
REMARK  0 active torsions:
REMARK  status: ('A' for Active; 'I' for Inactive)
REMARK                            x       y       z     vdW  Elec       q    Type
REMARK                         _______ _______ _______ _____ _____    ______ ____
ROOT
ATOM      1  N   UNL     1       3.663   7.353  -5.913  0.00  0.00    +0.144 NA
ATOM      2  C   UNL     1       2.766   6.511  -5.268  0.00  0.00    +0.447 C 
ATOM      3  N   UNL     1       1.488   6.199  -5.777  0.00  0.00    -0.169 N 
ATOM      4  C   UNL     1       0.889   5.220  -4.655  0.00  0.00    +0.204 C 
ATOM      5  C   UNL     1      -0.579   5.937  -4.760  0.00  0.00    +0.012 A 
ATOM      6  C   UNL     1      -1.354   5.808  -5.889  0.00  0.00    -0.019 A 
ATOM      7  C   UNL     1      -1.140   5.089  -7.182  0.00  0.00    +0.055 C 
ATOM      8  C   UNL     1       0.148   5.549  -7.782  0.00  0.00    +0.011 A 
ATOM      9  C   UNL     1       0.150   5.559  -9.169  0.00  0.00    -0.001 A 
ATOM     10  C   UNL     1       1.366   5.412  -9.824  0.00  0.00    -0.000 A 
ATOM     11  C   UNL     1       2.541   5.816  -9.223  0.00  0.00    +0.003 A 
ATOM     12  C   UNL     1       2.485   6.199  -7.889  0.00  0.00    +0.031 A 
ATOM     13  C   UNL     1      -2.586   6.453  -5.820  0.00  0.00    -0.004 A 
ATOM     14  C   UNL     1      -2.656   7.587  -5.016  0.00  0.00    -0.000 A 
ATOM     15  C   UNL     1      -1.932   7.540  -3.827  0.00  0.00    -0.000 A 
ATOM     16  C   UNL     1      -0.854   6.666  -3.683  0.00  0.00    -0.001 A 
ATOM     17  C   UNL     1       1.471   6.217  -3.438  0.00  0.00    +0.262 C 
ATOM     18  C   UNL     1       1.350   5.867  -7.160  0.00  0.00    +0.109 A 
ATOM     19  N   UNL     1       2.801   6.350  -3.978  0.00  0.00    -0.092 NA
ENDROOT
TORSDOF 0
ENDMDL
MODEL 2
REMARK VINA RESULT:      -8.4      1.769      4.749
REMARK  Name = 
REMARK  0 active torsions:
REMARK  status: ('A' for Active; 'I' for Inactive)
REMARK                            x       y       z     vdW  Elec       q    Type
REMARK                         _______ _______ _______ _____ _____    ______ ____
ROOT
ATOM      1  N   UNL     1       0.158   5.751  -9.136  0.00  0.00    +0.144 NA
ATOM      2  C   UNL     1       1.010   5.008  -8.328  0.00  0.00    +0.447 C 
ATOM      3  N   UNL     1       1.112   5.189  -6.932  0.00  0.00    -0.169 N 
ATOM      4  C   UNL     1       2.220   4.105  -6.516  0.00  0.00    +0.204 C 
ATOM      5  C   UNL     1       2.920   5.162  -5.482  0.00  0.00    +0.012 A 
ATOM      6  C   UNL     1       2.276   5.568  -4.336  0.00  0.00    -0.019 A 
ATOM      7  C   UNL     1       0.939   5.230  -3.758  0.00  0.00    +0.055 C 
ATOM      8  C   UNL     1      -0.112   5.510  -4.780  0.00  0.00    +0.011 A 
ATOM      9  C   UNL     1      -1.322   5.926  -4.243  0.00  0.00    -0.001 A 
ATOM     10  C   UNL     1      -2.481   5.680  -4.968  0.00  0.00    -0.000 A 
ATOM     11  C   UNL     1      -2.442   5.583  -6.344  0.00  0.00    +0.003 A 
ATOM     12  C   UNL     1      -1.194   5.560  -6.954  0.00  0.00    +0.031 A 
ATOM     13  C   UNL     1       3.007   6.449  -3.544  0.00  0.00    -0.004 A 
ATOM     14  C   UNL     1       3.913   7.278  -4.200  0.00  0.00    -0.000 A 
ATOM     15  C   UNL     1       4.607   6.705  -5.263  0.00  0.00    -0.000 A 
ATOM     16  C   UNL     1       4.098   5.587  -5.927  0.00  0.00    -0.001 A 
ATOM     17  C   UNL     1       3.163   4.523  -7.840  0.00  0.00    +0.262 C 
ATOM     18  C   UNL     1      -0.081   5.322  -6.157  0.00  0.00    +0.109 A 
ATOM     19  N   UNL     1       2.094   4.473  -8.805  0.00  0.00    -0.092 NA
ENDROOT
TORSDOF 0
ENDMDL
MODEL 3
REMARK VINA RESULT:      -8.1      3.452      7.265
REMARK  Name = 
REMARK  0 active torsions:
REMARK  status: ('A' for Active; 'I' for Inactive)
REMARK                            x       y       z     vdW  Elec       q    Type
REMARK                         _______ _______ _______ _____ _____    ______ ____
ROOT
ATOM      1  N   UNL     1       0.962   7.197  -9.507  0.00  0.00    +0.144 NA
ATOM      2  C   UNL     1       1.851   6.361 -10.172  0.00  0.00    +0.447 C 
ATOM      3  N   UNL     1       3.161   6.100  -9.716  0.00  0.00    -0.169 N 
ATOM      4  C   UNL     1       3.733   5.106 -10.839  0.00  0.00    +0.204 C 
ATOM      5  C   UNL     1       5.183   5.866 -10.825  0.00  0.00    +0.012 A 
ATOM      6  C   UNL     1       6.014   5.791  -9.732  0.00  0.00    -0.019 A 
ATOM      7  C   UNL     1       5.883   5.103  -8.411  0.00  0.00    +0.055 C 
ATOM      8  C   UNL     1       4.612   5.544  -7.762  0.00  0.00    +0.011 A 
ATOM      9  C   UNL     1       4.676   5.593  -6.377  0.00  0.00    -0.001 A 
ATOM     10  C   UNL     1       3.497   5.431  -5.660  0.00  0.00    -0.000 A 
ATOM     11  C   UNL     1       2.284   5.785  -6.214  0.00  0.00    +0.003 A 
ATOM     12  C   UNL     1       2.265   6.132  -7.559  0.00  0.00    +0.031 A 
ATOM     13  C   UNL     1       7.222   6.467  -9.878  0.00  0.00    -0.004 A 
ATOM     14  C   UNL     1       7.222   7.580 -10.714  0.00  0.00    -0.000 A 
ATOM     15  C   UNL     1       6.444   7.479 -11.866  0.00  0.00    -0.000 A 
ATOM     16  C   UNL     1       5.385   6.571 -11.933  0.00  0.00    -0.001 A 
ATOM     17  C   UNL     1       3.065   6.052 -12.053  0.00  0.00    +0.262 C 
ATOM     18  C   UNL     1       3.373   5.811  -8.333  0.00  0.00    +0.109 A 
ATOM     19  N   UNL     1       1.760   6.163 -11.453  0.00  0.00    -0.092 NA
ENDROOT
TORSDOF 0
ENDMDL
MODEL 4
REMARK VINA RESULT:      -8.0      2.229      3.799
REMARK  Name = 
REMARK  0 active torsions:
REMARK  status: ('A' for Active; 'I' for Inactive)
REMARK                            x       y       z     vdW  Elec       q    Type
REMARK                         _______ _______ _______ _____ _____    ______ ____
ROOT
ATOM      1  N   UNL     1       2.397   6.536  -4.829  0.00  0.00    +0.144 NA
ATOM      2  C   UNL     1       1.942   5.835  -3.719  0.00  0.00    +0.447 C 
ATOM      3  N   UNL     1       0.596   5.841  -3.294  0.00  0.00    -0.169 N 
ATOM      4  C   UNL     1       0.632   4.900  -1.995  0.00  0.00    +0.204 C 
ATOM      5  C   UNL     1      -0.379   5.907  -1.192  0.00  0.00    +0.012 A 
ATOM      6  C   UNL     1      -1.692   6.048  -1.573  0.00  0.00    -0.019 A 
ATOM      7  C   UNL     1      -2.495   5.430  -2.673  0.00  0.00    +0.055 C 
ATOM      8  C   UNL     1      -1.801   5.675  -3.972  0.00  0.00    +0.011 A 
ATOM      9  C   UNL     1      -2.663   5.818  -5.050  0.00  0.00    -0.001 A 
ATOM     10  C   UNL     1      -2.190   5.492  -6.316  0.00  0.00    -0.000 A 
ATOM     11  C   UNL     1      -0.845   5.588  -6.609  0.00  0.00    +0.003 A 
ATOM     12  C   UNL     1       0.028   5.843  -5.560  0.00  0.00    +0.031 A 
ATOM     13  C   UNL     1      -2.433   6.920  -0.780  0.00  0.00    -0.004 A 
ATOM     14  C   UNL     1      -1.737   7.962  -0.174  0.00  0.00    -0.000 A 
ATOM     15  C   UNL     1      -0.463   7.653   0.297  0.00  0.00    -0.000 A 
ATOM     16  C   UNL     1       0.246   6.568  -0.222  0.00  0.00    -0.001 A 
ATOM     17  C   UNL     1       2.045   5.635  -1.470  0.00  0.00    +0.262 C 
ATOM     18  C   UNL     1      -0.442   5.680  -4.263  0.00  0.00    +0.109 A 
ATOM     19  N   UNL     1       2.736   5.546  -2.731  0.00  0.00    -0.092 NA
ENDROOT
TORSDOF 0
ENDMDL
MODEL 5
REMARK VINA RESULT:      -7.9      2.491      3.624
REMARK  Name = 
REMARK  0 active torsions:
REMARK  status: ('A' for Active; 'I' for Inactive)
REMARK                            x       y       z     vdW  Elec       q    Type
REMARK                         _______ _______ _______ _____ _____    ______ ____
ROOT
ATOM      1  N   UNL     1       3.195   7.082  -0.806  0.00  0.00    +0.144 NA
ATOM      2  C   UNL     1       2.078   6.288  -1.035  0.00  0.00    +0.447 C 
ATOM      3  N   UNL     1       1.566   6.020  -2.322  0.00  0.00    -0.169 N 
ATOM      4  C   UNL     1       0.299   5.086  -2.009  0.00  0.00    +0.204 C 
ATOM      5  C   UNL     1      -0.597   5.859  -3.141  0.00  0.00    +0.012 A 
ATOM      6  C   UNL     1      -0.307   5.741  -4.480  0.00  0.00    -0.019 A 
ATOM      7  C   UNL     1       0.755   4.991  -5.219  0.00  0.00    +0.055 C 
ATOM      8  C   UNL     1       2.089   5.388  -4.680  0.00  0.00    +0.011 A 
ATOM      9  C   UNL     1       3.104   5.372  -5.626  0.00  0.00    -0.001 A 
ATOM     10  C   UNL     1       4.406   5.165  -5.188  0.00  0.00    -0.000 A 
ATOM     11  C   UNL     1       4.785   5.532  -3.913  0.00  0.00    +0.003 A 
ATOM     12  C   UNL     1       3.789   5.941  -3.036  0.00  0.00    +0.031 A 
ATOM     13  C   UNL     1      -1.171   6.436  -5.321  0.00  0.00    -0.004 A 
ATOM     14  C   UNL     1      -1.760   7.587  -4.805  0.00  0.00    -0.000 A 
ATOM     15  C   UNL     1      -2.137   7.532  -3.464  0.00  0.00    -0.000 A 
ATOM     16  C   UNL     1      -1.541   6.617  -2.593  0.00  0.00    -0.001 A 
ATOM     17  C   UNL     1      -0.153   6.080  -0.736  0.00  0.00    +0.262 C 
ATOM     18  C   UNL     1       2.468   5.669  -3.372  0.00  0.00    +0.109 A 
ATOM     19  N   UNL     1       1.154   6.150  -0.132  0.00  0.00    -0.092 NA
ENDROOT
TORSDOF 0
ENDMDL
MODEL 6
REMARK VINA RESULT:      -7.9      1.267      4.540
REMARK  Name = 
REMARK  0 active torsions:
REMARK  status: ('A' for Active; 'I' for Inactive)
REMARK                            x       y       z     vdW  Elec       q    Type
REMARK                         _______ _______ _______ _____ _____    ______ ____
ROOT
ATOM      1  N   UNL     1       1.652   5.783  -3.121  0.00  0.00    +0.144 NA
ATOM      2  C   UNL     1       2.150   6.485  -4.212  0.00  0.00    +0.447 C 
ATOM      3  N   UNL     1       1.782   6.212  -5.546  0.00  0.00    -0.169 N 
ATOM      4  C   UNL     1       2.638   7.286  -6.376  0.00  0.00    +0.204 C 
ATOM      5  C   UNL     1       2.990   6.173  -7.524  0.00  0.00    +0.012 A 
ATOM      6  C   UNL     1       2.015   5.678  -8.357  0.00  0.00    -0.019 A 
ATOM      7  C   UNL     1       0.548   5.950  -8.465  0.00  0.00    +0.055 C 
ATOM      8  C   UNL     1      -0.084   5.720  -7.132  0.00  0.00    +0.011 A 
ATOM      9  C   UNL     1      -1.385   5.246  -7.201  0.00  0.00    -0.001 A 
ATOM     10  C   UNL     1      -2.241   5.519  -6.141  0.00  0.00    -0.000 A 
ATOM     11  C   UNL     1      -1.742   5.710  -4.868  0.00  0.00    +0.003 A 
ATOM     12  C   UNL     1      -0.364   5.799  -4.721  0.00  0.00    +0.031 A 
ATOM     13  C   UNL     1       2.470   4.759  -9.297  0.00  0.00    -0.004 A 
ATOM     14  C   UNL     1       3.578   3.994  -8.942  0.00  0.00    -0.000 A 
ATOM     15  C   UNL     1       4.566   4.651  -8.213  0.00  0.00    -0.000 A 
ATOM     16  C   UNL     1       4.266   5.802  -7.482  0.00  0.00    -0.001 A 
ATOM     17  C   UNL     1       3.989   6.977  -5.430  0.00  0.00    +0.262 C 
ATOM     18  C   UNL     1       0.404   6.003  -5.861  0.00  0.00    +0.109 A 
ATOM     19  N   UNL     1       3.308   7.073  -4.164  0.00  0.00    -0.092 NA
ENDROOT
TORSDOF 0
ENDMDL
MODEL 7
REMARK VINA RESULT:      -7.8      4.565      8.124
REMARK  Name = 
REMARK  0 active torsions:
REMARK  status: ('A' for Active; 'I' for Inactive)
REMARK                            x       y       z     vdW  Elec       q    Type
REMARK                         _______ _______ _______ _____ _____    ______ ____
ROOT
ATOM      1  N   UNL     1       0.922   7.258 -13.563  0.00  0.00    +0.144 NA
ATOM      2  C   UNL     1       1.996   6.377 -13.592  0.00  0.00    +0.447 C 
ATOM      3  N   UNL     1       2.800   6.095 -12.467  0.00  0.00    -0.169 N 
ATOM      4  C   UNL     1       3.869   5.049 -13.050  0.00  0.00    +0.204 C 
ATOM      5  C   UNL     1       5.081   5.768 -12.218  0.00  0.00    +0.012 A 
ATOM      6  C   UNL     1       5.136   5.705 -10.845  0.00  0.00    -0.019 A 
ATOM      7  C   UNL     1       4.246   5.064  -9.829  0.00  0.00    +0.055 C 
ATOM      8  C   UNL     1       2.852   5.562 -10.028  0.00  0.00    +0.011 A 
ATOM      9  C   UNL     1       2.116   5.654  -8.855  0.00  0.00    -0.001 A 
ATOM     10  C   UNL     1       0.733   5.549  -8.939  0.00  0.00    -0.000 A 
ATOM     11  C   UNL     1       0.069   5.918 -10.091  0.00  0.00    +0.003 A 
ATOM     12  C   UNL     1       0.835   6.221 -11.209  0.00  0.00    +0.031 A 
ATOM     13  C   UNL     1       6.238   6.342 -10.282  0.00  0.00    -0.004 A 
ATOM     14  C   UNL     1       6.761   7.427 -10.980  0.00  0.00    -0.000 A 
ATOM     15  C   UNL     1       6.776   7.310 -12.369  0.00  0.00    -0.000 A 
ATOM     16  C   UNL     1       5.909   6.431 -13.020  0.00  0.00    -0.001 A 
ATOM     17  C   UNL     1       4.053   5.974 -14.438  0.00  0.00    +0.262 C 
ATOM     18  C   UNL     1       2.173   5.845 -11.207  0.00  0.00    +0.109 A 
ATOM     19  N   UNL     1       2.645   6.140 -14.693  0.00  0.00    -0.092 NA
ENDROOT
TORSDOF 0
ENDMDL
MODEL 8
REMARK VINA RESULT:      -7.7      6.462      9.557
REMARK  Name = 
REMARK  0 active torsions:
REMARK  status: ('A' for Active; 'I' for Inactive)
REMARK                            x       y       z     vdW  Elec       q    Type
REMARK                         _______ _______ _______ _____ _____    ______ ____
ROOT
ATOM      1  N   UNL     1       3.055   6.700 -10.433  0.00  0.00    +0.144 NA
ATOM      2  C   UNL     1       3.292   5.963 -11.587  0.00  0.00    +0.447 C 
ATOM      3  N   UNL     1       4.547   5.907 -12.229  0.00  0.00    -0.169 N 
ATOM      4  C   UNL     1       4.260   4.947 -13.482  0.00  0.00    +0.204 C 
ATOM      5  C   UNL     1       5.160   5.898 -14.465  0.00  0.00    +0.012 A 
ATOM      6  C   UNL     1       6.523   5.992 -14.310  0.00  0.00    -0.019 A 
ATOM      7  C   UNL     1       7.474   5.359 -13.345  0.00  0.00    +0.055 C 
ATOM      8  C   UNL     1       7.016   5.654 -11.954  0.00  0.00    +0.011 A 
ATOM      9  C   UNL     1       8.050   5.780 -11.038  0.00  0.00    -0.001 A 
ATOM     10  C   UNL     1       7.783   5.494  -9.704  0.00  0.00    -0.000 A 
ATOM     11  C   UNL     1       6.510   5.650  -9.194  0.00  0.00    +0.003 A 
ATOM     12  C   UNL     1       5.484   5.923 -10.089  0.00  0.00    +0.031 A 
ATOM     13  C   UNL     1       7.153   6.819 -15.235  0.00  0.00    -0.004 A 
ATOM     14  C   UNL     1       6.406   7.879 -15.742  0.00  0.00    -0.000 A 
ATOM     15  C   UNL     1       5.060   7.614 -15.987  0.00  0.00    -0.000 A 
ATOM     16  C   UNL     1       4.408   6.568 -15.332  0.00  0.00    -0.001 A 
ATOM     17  C   UNL     1       2.807   5.730 -13.782  0.00  0.00    +0.262 C 
ATOM     18  C   UNL     1       5.725   5.720 -11.443  0.00  0.00    +0.109 A 
ATOM     19  N   UNL     1       2.334   5.691 -12.422  0.00  0.00    -0.092 NA
ENDROOT
TORSDOF 0
ENDMDL
MODEL 9
REMARK VINA RESULT:      -7.6      3.409      5.778
REMARK  Name = 
REMARK  0 active torsions:
REMARK  status: ('A' for Active; 'I' for Inactive)
REMARK                            x       y       z     vdW  Elec       q    Type
REMARK                         _______ _______ _______ _____ _____    ______ ____
ROOT
ATOM      1  N   UNL     1       3.391   6.537  -7.419  0.00  0.00    +0.144 NA
ATOM      2  C   UNL     1       2.527   5.798  -8.218  0.00  0.00    +0.447 C 
ATOM      3  N   UNL     1       2.554   5.831  -9.629  0.00  0.00    -0.169 N 
ATOM      4  C   UNL     1       1.369   4.825 -10.028  0.00  0.00    +0.204 C 
ATOM      5  C   UNL     1       0.872   5.825 -11.224  0.00  0.00    +0.012 A 
ATOM      6  C   UNL     1       1.644   6.033 -12.344  0.00  0.00    -0.019 A 
ATOM      7  C   UNL     1       2.977   5.499 -12.762  0.00  0.00    +0.055 C 
ATOM      8  C   UNL     1       3.970   5.783 -11.685  0.00  0.00    +0.011 A 
ATOM      9  C   UNL     1       5.256   6.011 -12.152  0.00  0.00    -0.001 A 
ATOM     10  C   UNL     1       6.322   5.732 -11.305  0.00  0.00    -0.000 A 
ATOM     11  C   UNL     1       6.165   5.794  -9.936  0.00  0.00    +0.003 A 
ATOM     12  C   UNL     1       4.879   5.966  -9.440  0.00  0.00    +0.031 A 
ATOM     13  C   UNL     1       1.079   6.890 -13.284  0.00  0.00    -0.004 A 
ATOM     14  C   UNL     1       0.222   7.874 -12.801  0.00  0.00    -0.000 A 
ATOM     15  C   UNL     1      -0.612   7.497 -11.750  0.00  0.00    -0.000 A 
ATOM     16  C   UNL     1      -0.282   6.415 -10.932  0.00  0.00    -0.001 A 
ATOM     17  C   UNL     1       0.378   5.482  -8.844  0.00  0.00    +0.262 C 
ATOM     18  C   UNL     1       3.811   5.755 -10.304  0.00  0.00    +0.109 A 
ATOM     19  N   UNL     1       1.357   5.432  -7.787  0.00  0.00    -0.092 NA
ENDROOT
TORSDOF 0
ENDMDL
