MODEL 1
REMARK VINA RESULT:      -4.4      0.000      0.000
REMARK  Name = 
REMARK  4 active torsions:
REMARK  status: ('A' for Active; 'I' for Inactive)
REMARK    1  A    between atoms: C_2  and  O_4
REMARK    2  A    between atoms: O_4  and  C_5
REMARK    3  A    between atoms: C_5  and  C_7
REMARK    4  A    between atoms: C_7  and  N_8
REMARK                            x       y       z     vdW  Elec       q    Type
REMARK                         _______ _______ _______ _____ _____    ______ ____
ROOT
ATOM      1  C   UNL     1      -1.658   5.458  -4.933  0.00  0.00    +0.223 C 
ATOM      2  C   UNL     1      -2.381   5.896  -6.380  0.00  0.00    +0.054 C 
ENDROOT
BRANCH   1   3
ATOM      3  O   UNL     1      -2.542   6.484  -4.146  0.00  0.00    -0.446 OA
BRANCH   3   5
ATOM      4  C   UNL     1      -2.756   6.798  -1.688  0.00  0.00    +0.121 C 
ATOM      5  C   UNL     1      -2.914   5.967  -2.921  0.00  0.00    +0.318 C 
ATOM      6  O   UNL     1      -2.892   4.725  -2.733  0.00  0.00    -0.250 OA
ENDBRANCH   3   5
ENDBRANCH   1   3
BRANCH   1   7
ATOM      7  C   UNL     1      -0.449   6.600  -5.139  0.00  0.00    +0.153 C 
BRANCH   7   8
ATOM      8  N   UNL     1       0.708   5.825  -4.737  0.00  0.00    +0.313 N 
ATOM      9  C   UNL     1       1.855   6.691  -4.914  0.00  0.00    +0.171 C 
ATOM     10  C   UNL     1       0.634   5.366  -3.374  0.00  0.00    +0.171 C 
ATOM     11  C   UNL     1       0.874   4.700  -5.647  0.00  0.00    +0.171 C 
ENDBRANCH   7   8
ENDBRANCH   1   7
TORSDOF 4
ENDMDL
MODEL 2
REMARK VINA RESULT:      -4.3      1.430      2.063
REMARK  Name = 
REMARK  4 active torsions:
REMARK  status: ('A' for Active; 'I' for Inactive)
REMARK    1  A    between atoms: C_2  and  O_4
REMARK    2  A    between atoms: O_4  and  C_5
REMARK    3  A    between atoms: C_5  and  C_7
REMARK    4  A    between atoms: C_7  and  N_8
REMARK                            x       y       z     vdW  Elec       q    Type
REMARK                         _______ _______ _______ _____ _____    ______ ____
ROOT
ATOM      1  C   UNL     1      -1.483   6.156  -4.822  0.00  0.00    +0.223 C 
ATOM      2  C   UNL     1      -1.758   7.756  -4.406  0.00  0.00    +0.054 C 
ENDROOT
BRANCH   1   3
ATOM      3  O   UNL     1      -0.976   5.836  -3.375  0.00  0.00    -0.446 OA
BRANCH   3   5
ATOM      4  C   UNL     1      -1.929   5.914  -1.080  0.00  0.00    +0.121 C 
ATOM      5  C   UNL     1      -2.039   5.578  -2.532  0.00  0.00    +0.318 C 
ATOM      6  O   UNL     1      -2.844   4.653  -2.806  0.00  0.00    -0.250 OA
ENDBRANCH   3   5
ENDBRANCH   1   3
BRANCH   1   7
ATOM      7  C   UNL     1       0.074   6.509  -5.331  0.00  0.00    +0.153 C 
BRANCH   7   8
ATOM      8  N   UNL     1       0.193   5.594  -6.448  0.00  0.00    +0.313 N 
ATOM      9  C   UNL     1       0.932   4.451  -5.956  0.00  0.00    +0.171 C 
ATOM     10  C   UNL     1      -1.080   5.178  -6.975  0.00  0.00    +0.171 C 
ATOM     11  C   UNL     1       1.002   6.211  -7.492  0.00  0.00    +0.171 C 
ENDBRANCH   7   8
ENDBRANCH   1   7
TORSDOF 4
ENDMDL
MODEL 3
REMARK VINA RESULT:      -4.3      8.187     10.164
REMARK  Name = 
REMARK  4 active torsions:
REMARK  status: ('A' for Active; 'I' for Inactive)
REMARK    1  A    between atoms: C_2  and  O_4
REMARK    2  A    between atoms: O_4  and  C_5
REMARK    3  A    between atoms: C_5  and  C_7
REMARK    4  A    between atoms: C_7  and  N_8
REMARK                            x       y       z     vdW  Elec       q    Type
REMARK                         _______ _______ _______ _____ _____    ______ ____
ROOT
ATOM      1  C   UNL     1       5.916   5.950 -10.602  0.00  0.00    +0.223 C 
ATOM      2  C   UNL     1       5.843   7.529 -11.160  0.00  0.00    +0.054 C 
ENDROOT
BRANCH   1   3
ATOM      3  O   UNL     1       5.690   5.396 -12.049  0.00  0.00    -0.446 OA
BRANCH   3   5
ATOM      4  C   UNL     1       6.908   5.749 -14.189  0.00  0.00    +0.121 C 
ATOM      5  C   UNL     1       6.882   5.357 -12.747  0.00  0.00    +0.318 C 
ATOM      6  O   UNL     1       7.786   4.559 -12.395  0.00  0.00    -0.250 OA
ENDBRANCH   3   5
ENDBRANCH   1   3
BRANCH   1   7
ATOM      7  C   UNL     1       4.269   5.934 -10.298  0.00  0.00    +0.153 C 
BRANCH   7   8
ATOM      8  N   UNL     1       4.262   5.418  -8.943  0.00  0.00    +0.313 N 
ATOM      9  C   UNL     1       3.511   4.181  -8.986  0.00  0.00    +0.171 C 
ATOM     10  C   UNL     1       5.583   5.183  -8.422  0.00  0.00    +0.171 C 
ATOM     11  C   UNL     1       3.529   6.337  -8.082  0.00  0.00    +0.171 C 
ENDBRANCH   7   8
ENDBRANCH   1   7
TORSDOF 4
ENDMDL
MODEL 4
REMARK VINA RESULT:      -4.3      1.016      1.309
REMARK  Name = 
REMARK  4 active torsions:
REMARK  status: ('A' for Active; 'I' for Inactive)
REMARK    1  A    between atoms: C_2  and  O_4
REMARK    2  A    between atoms: O_4  and  C_5
REMARK    3  A    between atoms: C_5  and  C_7
REMARK    4  A    between atoms: C_7  and  N_8
REMARK                            x       y       z     vdW  Elec       q    Type
REMARK                         _______ _______ _______ _____ _____    ______ ____
ROOT
ATOM      1  C   UNL     1      -0.828   5.568  -4.777  0.00  0.00    +0.223 C 
ATOM      2  C   UNL     1      -2.042   5.881  -5.889  0.00  0.00    +0.054 C 
ENDROOT
BRANCH   1   3
ATOM      3  O   UNL     1      -1.533   6.470  -3.708  0.00  0.00    -0.446 OA
BRANCH   3   5
ATOM      4  C   UNL     1      -3.770   6.558  -2.626  0.00  0.00    +0.121 C 
ATOM      5  C   UNL     1      -2.582   5.795  -3.116  0.00  0.00    +0.318 C 
ATOM      6  O   UNL     1      -2.374   4.702  -2.533  0.00  0.00    -0.250 OA
ENDBRANCH   3   5
ENDBRANCH   1   3
BRANCH   1   7
ATOM      7  C   UNL     1       0.077   6.864  -5.331  0.00  0.00    +0.153 C 
BRANCH   7   8
ATOM      8  N   UNL     1       1.408   6.297  -5.263  0.00  0.00    +0.313 N 
ATOM      9  C   UNL     1       1.962   6.717  -3.994  0.00  0.00    +0.171 C 
ATOM     10  C   UNL     1       1.416   4.861  -5.361  0.00  0.00    +0.171 C 
ATOM     11  C   UNL     1       2.236   6.885  -6.309  0.00  0.00    +0.171 C 
ENDBRANCH   7   8
ENDBRANCH   1   7
TORSDOF 4
ENDMDL
MODEL 5
REMARK VINA RESULT:      -4.2      4.731      6.092
REMARK  Name = 
REMARK  4 active torsions:
REMARK  status: ('A' for Active; 'I' for Inactive)
REMARK    1  A    between atoms: C_2  and  O_4
REMARK    2  A    between atoms: O_4  and  C_5
REMARK    3  A    between atoms: C_5  and  C_7
REMARK    4  A    between atoms: C_7  and  N_8
REMARK                            x       y       z     vdW  Elec       q    Type
REMARK                         _______ _______ _______ _____ _____    ______ ____
ROOT
ATOM      1  C   UNL     1       3.666   5.302  -7.724  0.00  0.00    +0.223 C 
ATOM      2  C   UNL     1       5.209   5.062  -8.332  0.00  0.00    +0.054 C 
ENDROOT
BRANCH   1   3
ATOM      3  O   UNL     1       3.612   6.738  -8.348  0.00  0.00    -0.446 OA
BRANCH   3   5
ATOM      4  C   UNL     1       1.338   6.744  -9.356  0.00  0.00    +0.121 C 
ATOM      5  C   UNL     1       2.320   7.226  -8.337  0.00  0.00    +0.318 C 
ATOM      6  O   UNL     1       2.088   8.370  -7.872  0.00  0.00    -0.250 OA
ENDBRANCH   3   5
ENDBRANCH   1   3
BRANCH   1   7
ATOM      7  C   UNL     1       4.277   5.908  -6.287  0.00  0.00    +0.153 C 
BRANCH   7   8
ATOM      8  N   UNL     1       3.365   5.296  -5.341  0.00  0.00    +0.313 N 
ATOM      9  C   UNL     1       2.627   6.381  -4.732  0.00  0.00    +0.171 C 
ATOM     10  C   UNL     1       2.461   4.358  -5.955  0.00  0.00    +0.171 C 
ATOM     11  C   UNL     1       4.131   4.649  -4.283  0.00  0.00    +0.171 C 
ENDBRANCH   7   8
ENDBRANCH   1   7
TORSDOF 4
ENDMDL
MODEL 6
REMARK VINA RESULT:      -4.1      5.802      7.320
REMARK  Name = 
REMARK  4 active torsions:
REMARK  status: ('A' for Active; 'I' for Inactive)
REMARK    1  A    between atoms: C_2  and  O_4
REMARK    2  A    between atoms: O_4  and  C_5
REMARK    3  A    between atoms: C_5  and  C_7
REMARK    4  A    between atoms: C_7  and  N_8
REMARK                            x       y       z     vdW  Elec       q    Type
REMARK                         _______ _______ _______ _____ _____    ______ ____
ROOT
ATOM      1  C   UNL     1       3.933   5.358  -8.677  0.00  0.00    +0.223 C 
ATOM      2  C   UNL     1       2.997   3.967  -8.680  0.00  0.00    +0.054 C 
ENDROOT
BRANCH   1   3
ATOM      3  O   UNL     1       2.651   6.257  -8.671  0.00  0.00    -0.446 OA
BRANCH   3   5
ATOM      4  C   UNL     1       3.172   6.957  -6.342  0.00  0.00    +0.121 C 
ATOM      5  C   UNL     1       2.775   7.276  -7.747  0.00  0.00    +0.318 C 
ATOM      6  O   UNL     1       2.105   8.330  -7.885  0.00  0.00    -0.250 OA
ENDBRANCH   3   5
ENDBRANCH   1   3
BRANCH   1   7
ATOM      7  C   UNL     1       3.987   5.380 -10.351  0.00  0.00    +0.153 C 
BRANCH   7   8
ATOM      8  N   UNL     1       5.310   5.932 -10.559  0.00  0.00    +0.313 N 
ATOM      9  C   UNL     1       5.127   7.353 -10.768  0.00  0.00    +0.171 C 
ATOM     10  C   UNL     1       6.199   5.700  -9.451  0.00  0.00    +0.171 C 
ATOM     11  C   UNL     1       5.872   5.386 -11.788  0.00  0.00    +0.171 C 
ENDBRANCH   7   8
ENDBRANCH   1   7
TORSDOF 4
ENDMDL
MODEL 7
REMARK VINA RESULT:      -4.1      2.440      3.010
REMARK  Name = 
REMARK  4 active torsions:
REMARK  status: ('A' for Active; 'I' for Inactive)
REMARK    1  A    between atoms: C_2  and  O_4
REMARK    2  A    between atoms: O_4  and  C_5
REMARK    3  A    between atoms: C_5  and  C_7
REMARK    4  A    between atoms: C_7  and  N_8
REMARK                            x       y       z     vdW  Elec       q    Type
REMARK                         _______ _______ _______ _____ _____    ______ ____
ROOT
ATOM      1  C   UNL     1       0.201   5.232  -6.132  0.00  0.00    +0.223 C 
ATOM      2  C   UNL     1      -1.276   5.191  -6.924  0.00  0.00    +0.054 C 
ENDROOT
BRANCH   1   3
ATOM      3  O   UNL     1       0.029   6.760  -5.830  0.00  0.00    -0.446 OA
BRANCH   3   5
ATOM      4  C   UNL     1      -1.672   8.109  -4.617  0.00  0.00    +0.121 C 
ATOM      5  C   UNL     1      -0.733   6.949  -4.694  0.00  0.00    +0.318 C 
ATOM      6  O   UNL     1      -0.320   6.523  -3.586  0.00  0.00    -0.250 OA
ENDBRANCH   3   5
ENDBRANCH   1   3
BRANCH   1   7
ATOM      7  C   UNL     1       1.009   5.567  -7.561  0.00  0.00    +0.153 C 
BRANCH   7   8
ATOM      8  N   UNL     1       2.198   4.760  -7.380  0.00  0.00    +0.313 N 
ATOM      9  C   UNL     1       3.284   5.688  -7.144  0.00  0.00    +0.171 C 
ATOM     10  C   UNL     1       2.089   3.831  -6.285  0.00  0.00    +0.171 C 
ATOM     11  C   UNL     1       2.496   4.055  -8.620  0.00  0.00    +0.171 C 
ENDBRANCH   7   8
ENDBRANCH   1   7
TORSDOF 4
ENDMDL
MODEL 8
REMARK VINA RESULT:      -4.1      5.500      6.768
REMARK  Name = 
REMARK  4 active torsions:
REMARK  status: ('A' for Active; 'I' for Inactive)
REMARK    1  A    between atoms: C_2  and  O_4
REMARK    2  A    between atoms: O_4  and  C_5
REMARK    3  A    between atoms: C_5  and  C_7
REMARK    4  A    between atoms: C_7  and  N_8
REMARK                            x       y       z     vdW  Elec       q    Type
REMARK                         _______ _______ _______ _____ _____    ______ ____
ROOT
ATOM      1  C   UNL     1       2.489   5.416  -9.299  0.00  0.00    +0.223 C 
ATOM      2  C   UNL     1       2.680   3.943  -8.523  0.00  0.00    +0.054 C 
ENDROOT
BRANCH   1   3
ATOM      3  O   UNL     1       1.781   6.021  -8.039  0.00  0.00    -0.446 OA
BRANCH   3   5
ATOM      4  C   UNL     1       3.211   7.025  -6.269  0.00  0.00    +0.121 C 
ATOM      5  C   UNL     1       2.477   7.117  -7.568  0.00  0.00    +0.318 C 
ATOM      6  O   UNL     1       2.116   8.275  -7.895  0.00  0.00    -0.250 OA
ENDBRANCH   3   5
ENDBRANCH   1   3
BRANCH   1   7
ATOM      7  C   UNL     1       1.018   4.938  -9.942  0.00  0.00    +0.153 C 
BRANCH   7   8
ATOM      8  N   UNL     1       0.983   5.753 -11.140  0.00  0.00    +0.313 N 
ATOM      9  C   UNL     1       0.507   4.891 -12.201  0.00  0.00    +0.171 C 
ATOM     10  C   UNL     1       0.131   6.906 -11.012  0.00  0.00    +0.171 C 
ATOM     11  C   UNL     1       2.340   6.156 -11.488  0.00  0.00    +0.171 C 
ENDBRANCH   7   8
ENDBRANCH   1   7
TORSDOF 4
ENDMDL
MODEL 9
REMARK VINA RESULT:      -4.0      1.371      2.614
REMARK  Name = 
REMARK  4 active torsions:
REMARK  status: ('A' for Active; 'I' for Inactive)
REMARK    1  A    between atoms: C_2  and  O_4
REMARK    2  A    between atoms: O_4  and  C_5
REMARK    3  A    between atoms: C_5  and  C_7
REMARK    4  A    between atoms: C_7  and  N_8
REMARK                            x       y       z     vdW  Elec       q    Type
REMARK                         _______ _______ _______ _____ _____    ______ ____
ROOT
ATOM      1  C   UNL     1       0.241   6.153  -3.111  0.00  0.00    +0.223 C 
ATOM      2  C   UNL     1       1.580   5.567  -2.289  0.00  0.00    +0.054 C 
ENDROOT
BRANCH   1   3
ATOM      3  O   UNL     1      -0.675   5.066  -2.453  0.00  0.00    -0.446 OA
BRANCH   3   5
ATOM      4  C   UNL     1      -2.456   6.621  -1.680  0.00  0.00    +0.121 C 
ATOM      5  C   UNL     1      -1.999   5.455  -2.496  0.00  0.00    +0.318 C 
ATOM      6  O   UNL     1      -2.890   4.610  -2.763  0.00  0.00    -0.250 OA
ENDBRANCH   3   5
ENDBRANCH   1   3
BRANCH   1   7
ATOM      7  C   UNL     1       0.551   5.155  -4.420  0.00  0.00    +0.153 C 
BRANCH   7   8
ATOM      8  N   UNL     1       0.325   6.082  -5.510  0.00  0.00    +0.313 N 
ATOM      9  C   UNL     1      -0.411   5.347  -6.518  0.00  0.00    +0.171 C 
ATOM     10  C   UNL     1      -0.409   7.254  -5.111  0.00  0.00    +0.171 C 
ATOM     11  C   UNL     1       1.604   6.455  -6.098  0.00  0.00    +0.171 C 
ENDBRANCH   7   8
ENDBRANCH   1   7
TORSDOF 4
ENDMDL
