MODEL 1
REMARK VINA RESULT:      -4.7      0.000      0.000
REMARK  Name = 
REMARK  28 active torsions:
REMARK  status: ('A' for Active; 'I' for Inactive)
REMARK    1  A    between atoms: C_2  and  C_4
REMARK    2  A    between atoms: C_4  and  O_5
REMARK    3  A    between atoms: O_5  and  C_6
REMARK    4  A    between atoms: C_6  and  C_7
REMARK    5  A    between atoms: C_9  and  O_10
REMARK    6  A    between atoms: O_10  and  C_11
REMARK    7  A    between atoms: C_11  and  C_12
REMARK    8  A    between atoms: C_15  and  O_16
REMARK    9  A    between atoms: O_16  and  C_17
REMARK   10  A    between atoms: C_17  and  C_18
REMARK   11  A    between atoms: C_21  and  O_22
REMARK   12  A    between atoms: O_22  and  C_23
REMARK   13  A    between atoms: C_23  and  C_24
REMARK   14  A    between atoms: C_27  and  O_28
REMARK   15  A    between atoms: O_28  and  C_29
REMARK   16  A    between atoms: C_31  and  C_32
REMARK   17  A    between atoms: C_32  and  O_33
REMARK   18  A    between atoms: O_33  and  C_34
REMARK   19  A    between atoms: C_34  and  C_35
REMARK   20  A    between atoms: C_38  and  O_39
REMARK   21  A    between atoms: O_39  and  C_40
REMARK   22  A    between atoms: C_40  and  C_41
REMARK   23  A    between atoms: C_44  and  O_45
REMARK   24  A    between atoms: O_45  and  C_46
REMARK   25  A    between atoms: C_46  and  C_47
REMARK   26  A    between atoms: C_50  and  O_51
REMARK   27  A    between atoms: O_51  and  C_52
REMARK   28  A    between atoms: C_52  and  C_53
REMARK                            x       y       z     vdW  Elec       q    Type
REMARK                         _______ _______ _______ _____ _____    ______ ____
ROOT
ATOM      1  O   UNL     1       1.745   6.105  -3.740  0.00  0.00    -0.326 OA
ENDROOT
BRANCH   1   2
ATOM      2  C   UNL     1       1.736   5.547  -2.299  0.00  0.00    +0.266 C 
ATOM      3  C   UNL     1       0.996   6.959  -1.649  0.00  0.00    +0.201 C 
ATOM      4  C   UNL     1       1.455   6.364  -0.125  0.00  0.00    +0.177 C 
ATOM      5  C   UNL     1       2.764   7.426  -0.005  0.00  0.00    +0.174 C 
ATOM      6  C   UNL     1       3.671   7.075  -1.419  0.00  0.00    +0.177 C 
ATOM      7  O   UNL     1       3.120   5.817  -1.883  0.00  0.00    -0.326 OA
BRANCH   4   8
ATOM      8  O   UNL     1       0.715   7.464   0.572  0.00  0.00    -0.348 OA
BRANCH   8   9
ATOM      9  C   UNL     1       0.615   7.527   1.817  0.00  0.00    +0.175 C 
BRANCH   9  10
ATOM     10  C   UNL     1       0.188   9.020   2.368  0.00  0.00    +0.181 C 
ATOM     11  O   UNL     1      -0.549   9.367   1.077  0.00  0.00    -0.220 OA
ATOM     12  C   UNL     1      -1.220   8.460   3.033  0.00  0.00    +0.038 C 
ENDBRANCH   9  10
ENDBRANCH   8   9
ENDBRANCH   4   8
BRANCH   5  13
ATOM     13  O   UNL     1       3.600   6.484   0.810  0.00  0.00    -0.348 OA
BRANCH  13  14
ATOM     14  C   UNL     1       4.668   7.259   1.345  0.00  0.00    +0.175 C 
BRANCH  14  15
ATOM     15  C   UNL     1       3.996   7.995   2.662  0.00  0.00    +0.181 C 
ATOM     16  O   UNL     1       4.288   6.813   3.570  0.00  0.00    -0.220 OA
ATOM     17  C   UNL     1       5.418   8.755   3.044  0.00  0.00    +0.038 C 
ENDBRANCH  14  15
ENDBRANCH  13  14
ENDBRANCH   5  13
BRANCH   3  18
ATOM     18  O   UNL     1      -0.319   6.271  -1.731  0.00  0.00    -0.346 OA
BRANCH  18  19
ATOM     19  C   UNL     1      -1.313   7.212  -1.647  0.00  0.00    +0.175 C 
BRANCH  19  20
ATOM     20  C   UNL     1      -2.684   6.381  -1.325  0.00  0.00    +0.181 C 
ATOM     21  O   UNL     1      -1.981   5.054  -1.564  0.00  0.00    -0.220 OA
ATOM     22  C   UNL     1      -2.307   6.347   0.296  0.00  0.00    +0.038 C 
ENDBRANCH  19  20
ENDBRANCH  18  19
ENDBRANCH   3  18
BRANCH   6  23
ATOM     23  C   UNL     1       2.843   8.174  -2.346  0.00  0.00    +0.174 C 
BRANCH  23  24
ATOM     24  O   UNL     1       3.747   9.242  -2.170  0.00  0.00    -0.348 OA
BRANCH  24  25
ATOM     25  C   UNL     1       3.746   9.632  -0.878  0.00  0.00    +0.175 C 
BRANCH  25  26
ATOM     26  C   UNL     1       3.411  11.238  -0.752  0.00  0.00    +0.181 C 
ATOM     27  O   UNL     1       2.310  10.977   0.275  0.00  0.00    -0.220 OA
ATOM     28  C   UNL     1       4.490  11.587   0.455  0.00  0.00    +0.038 C 
ENDBRANCH  25  26
ENDBRANCH  24  25
ENDBRANCH  23  24
ENDBRANCH   6  23
ENDBRANCH   1   2
BRANCH   1  30
ATOM     29  C   UNL     1       2.918   4.739  -5.432  0.00  0.00    +0.177 C 
ATOM     30  C   UNL     1       1.684   4.692  -4.249  0.00  0.00    +0.177 C 
ATOM     31  C   UNL     1       0.456   4.815  -5.429  0.00  0.00    +0.177 C 
ATOM     32  C   UNL     1       1.370   5.437  -6.721  0.00  0.00    +0.201 C 
ATOM     33  C   UNL     1       1.974   6.850  -5.970  0.00  0.00    +0.266 C 
ATOM     34  O   UNL     1       3.216   6.203  -5.378  0.00  0.00    -0.326 OA
BRANCH  31  35
ATOM     35  O   UNL     1      -0.192   6.081  -4.965  0.00  0.00    -0.348 OA
BRANCH  35  36
ATOM     36  C   UNL     1      -1.503   5.637  -4.924  0.00  0.00    +0.175 C 
BRANCH  36  37
ATOM     37  C   UNL     1      -2.508   6.793  -5.506  0.00  0.00    +0.181 C 
ATOM     38  O   UNL     1      -3.402   6.800  -4.279  0.00  0.00    -0.220 OA
ATOM     39  C   UNL     1      -1.567   7.987  -4.851  0.00  0.00    +0.038 C 
ENDBRANCH  36  37
ENDBRANCH  35  36
ENDBRANCH  31  35
BRANCH  32  40
ATOM     40  O   UNL     1       0.172   6.112  -7.314  0.00  0.00    -0.346 OA
BRANCH  40  41
ATOM     41  C   UNL     1      -0.176   5.560  -8.479  0.00  0.00    +0.175 C 
BRANCH  41  42
ATOM     42  C   UNL     1       0.789   6.041  -9.707  0.00  0.00    +0.181 C 
ATOM     43  O   UNL     1       0.793   4.653 -10.334  0.00  0.00    -0.220 OA
ATOM     44  C   UNL     1      -0.493   6.513 -10.633  0.00  0.00    +0.038 C 
ENDBRANCH  41  42
ENDBRANCH  40  41
ENDBRANCH  32  40
BRANCH  29  45
ATOM     45  C   UNL     1       4.094   4.379  -4.349  0.00  0.00    +0.174 C 
BRANCH  45  46
ATOM     46  O   UNL     1       4.902   5.546  -4.457  0.00  0.00    -0.348 OA
BRANCH  46  47
ATOM     47  C   UNL     1       5.963   5.532  -3.564  0.00  0.00    +0.175 C 
BRANCH  47  49
ATOM     48  C   UNL     1       5.569   7.640  -4.576  0.00  0.00    +0.038 C 
ATOM     49  C   UNL     1       6.193   7.109  -3.147  0.00  0.00    +0.181 C 
ATOM     50  O   UNL     1       7.604   7.107  -3.699  0.00  0.00    -0.220 OA
ENDBRANCH  47  49
ENDBRANCH  46  47
ENDBRANCH  45  46
ENDBRANCH  29  45
BRANCH  33  51
ATOM     51  O   UNL     1       2.720   7.164  -7.267  0.00  0.00    -0.326 OA
BRANCH  51  52
ATOM     52  C   UNL     1       3.794   6.333  -7.343  0.00  0.00    +0.178 C 
BRANCH  52  53
ATOM     53  C   UNL     1       4.218   6.159  -8.911  0.00  0.00    +0.182 C 
ATOM     54  O   UNL     1       5.676   5.968  -8.525  0.00  0.00    -0.220 OA
ATOM     55  C   UNL     1       3.973   4.526  -8.900  0.00  0.00    +0.038 C 
ENDBRANCH  52  53
ENDBRANCH  51  52
ENDBRANCH  33  51
ENDBRANCH   1  30
TORSDOF 28
ENDMDL
MODEL 2
REMARK VINA RESULT:      -4.6      2.045      4.825
REMARK  Name = 
REMARK  28 active torsions:
REMARK  status: ('A' for Active; 'I' for Inactive)
REMARK    1  A    between atoms: C_2  and  C_4
REMARK    2  A    between atoms: C_4  and  O_5
REMARK    3  A    between atoms: O_5  and  C_6
REMARK    4  A    between atoms: C_6  and  C_7
REMARK    5  A    between atoms: C_9  and  O_10
REMARK    6  A    between atoms: O_10  and  C_11
REMARK    7  A    between atoms: C_11  and  C_12
REMARK    8  A    between atoms: C_15  and  O_16
REMARK    9  A    between atoms: O_16  and  C_17
REMARK   10  A    between atoms: C_17  and  C_18
REMARK   11  A    between atoms: C_21  and  O_22
REMARK   12  A    between atoms: O_22  and  C_23
REMARK   13  A    between atoms: C_23  and  C_24
REMARK   14  A    between atoms: C_27  and  O_28
REMARK   15  A    between atoms: O_28  and  C_29
REMARK   16  A    between atoms: C_31  and  C_32
REMARK   17  A    between atoms: C_32  and  O_33
REMARK   18  A    between atoms: O_33  and  C_34
REMARK   19  A    between atoms: C_34  and  C_35
REMARK   20  A    between atoms: C_38  and  O_39
REMARK   21  A    between atoms: O_39  and  C_40
REMARK   22  A    between atoms: C_40  and  C_41
REMARK   23  A    between atoms: C_44  and  O_45
REMARK   24  A    between atoms: O_45  and  C_46
REMARK   25  A    between atoms: C_46  and  C_47
REMARK   26  A    between atoms: C_50  and  O_51
REMARK   27  A    between atoms: O_51  and  C_52
REMARK   28  A    between atoms: C_52  and  C_53
REMARK                            x       y       z     vdW  Elec       q    Type
REMARK                         _______ _______ _______ _____ _____    ______ ____
ROOT
ATOM      1  O   UNL     1       1.147   7.125  -0.579  0.00  0.00    -0.326 OA
ENDROOT
BRANCH   1   2
ATOM      2  C   UNL     1       1.951   7.053   0.738  0.00  0.00    +0.266 C 
ATOM      3  C   UNL     1       2.135   8.762   0.838  0.00  0.00    +0.201 C 
ATOM      4  C   UNL     1       3.327   8.455   2.009  0.00  0.00    +0.177 C 
ATOM      5  C   UNL     1       4.592   8.738   0.925  0.00  0.00    +0.174 C 
ATOM      6  C   UNL     1       4.267   7.626  -0.341  0.00  0.00    +0.177 C 
ATOM      7  O   UNL     1       3.291   6.721   0.233  0.00  0.00    -0.326 OA
BRANCH   4   8
ATOM      8  O   UNL     1       3.474   9.917   2.301  0.00  0.00    -0.348 OA
BRANCH   8   9
ATOM      9  C   UNL     1       3.858  10.347   3.410  0.00  0.00    +0.175 C 
BRANCH   9  10
ATOM     10  C   UNL     1       3.961  11.990   3.478  0.00  0.00    +0.181 C 
ATOM     11  O   UNL     1       5.485  11.967   3.540  0.00  0.00    -0.220 OA
ATOM     12  C   UNL     1       4.021  12.134   1.830  0.00  0.00    +0.038 C 
ENDBRANCH   9  10
ENDBRANCH   8   9
ENDBRANCH   4   8
BRANCH   5  13
ATOM     13  O   UNL     1       5.527   7.769   1.585  0.00  0.00    -0.348 OA
BRANCH  13  14
ATOM     14  C   UNL     1       6.569   8.548   2.163  0.00  0.00    +0.175 C 
BRANCH  14  15
ATOM     15  C   UNL     1       6.640   8.011   3.724  0.00  0.00    +0.181 C 
ATOM     16  O   UNL     1       6.242   6.597   3.339  0.00  0.00    -0.220 OA
ATOM     17  C   UNL     1       8.260   7.685   3.608  0.00  0.00    +0.038 C 
ENDBRANCH  14  15
ENDBRANCH  13  14
ENDBRANCH   5  13
BRANCH   3  18
ATOM     18  O   UNL     1       0.971   8.803   1.761  0.00  0.00    -0.346 OA
BRANCH  18  19
ATOM     19  C   UNL     1       0.588  10.110   1.927  0.00  0.00    +0.175 C 
BRANCH  19  20
ATOM     20  C   UNL     1      -0.024  10.204   3.440  0.00  0.00    +0.181 C 
ATOM     21  O   UNL     1       0.487  11.627   3.599  0.00  0.00    -0.220 OA
ATOM     22  C   UNL     1      -1.481  10.741   2.840  0.00  0.00    +0.038 C 
ENDBRANCH  19  20
ENDBRANCH  18  19
ENDBRANCH   3  18
BRANCH   6  23
ATOM     23  C   UNL     1       3.299   8.692  -1.166  0.00  0.00    +0.174 C 
BRANCH  23  24
ATOM     24  O   UNL     1       3.563   8.181  -2.454  0.00  0.00    -0.348 OA
BRANCH  24  25
ATOM     25  C   UNL     1       4.889   7.981  -2.602  0.00  0.00    +0.175 C 
BRANCH  25  26
ATOM     26  C   UNL     1       5.370   8.354  -4.131  0.00  0.00    +0.181 C 
ATOM     27  O   UNL     1       6.482   7.308  -4.087  0.00  0.00    -0.220 OA
ATOM     28  C   UNL     1       4.374   7.300  -4.931  0.00  0.00    +0.038 C 
ENDBRANCH  25  26
ENDBRANCH  24  25
ENDBRANCH  23  24
ENDBRANCH   6  23
ENDBRANCH   1   2
BRANCH   1  30
ATOM     29  C   UNL     1       0.640   4.980  -1.694  0.00  0.00    +0.177 C 
ATOM     30  C   UNL     1       0.497   5.821  -0.213  0.00  0.00    +0.177 C 
ATOM     31  C   UNL     1      -1.149   6.175  -0.496  0.00  0.00    +0.177 C 
ATOM     32  C   UNL     1      -1.201   5.941  -2.179  0.00  0.00    +0.201 C 
ATOM     33  C   UNL     1       0.005   7.060  -2.647  0.00  0.00    +0.266 C 
ATOM     34  O   UNL     1       1.177   6.098  -2.529  0.00  0.00    -0.326 OA
BRANCH  31  35
ATOM     35  O   UNL     1      -1.077   7.670  -0.466  0.00  0.00    -0.348 OA
BRANCH  35  36
ATOM     36  C   UNL     1      -2.000   7.900   0.539  0.00  0.00    +0.175 C 
BRANCH  36  37
ATOM     37  C   UNL     1      -2.176   6.556   1.460  0.00  0.00    +0.181 C 
ATOM     38  O   UNL     1      -1.201   7.017   2.528  0.00  0.00    -0.220 OA
ATOM     39  C   UNL     1      -3.435   7.245   2.284  0.00  0.00    +0.038 C 
ENDBRANCH  36  37
ENDBRANCH  35  36
ENDBRANCH  31  35
BRANCH  32  40
ATOM     40  O   UNL     1      -2.335   6.906  -2.333  0.00  0.00    -0.346 OA
BRANCH  40  41
ATOM     41  C   UNL     1      -3.314   6.397  -3.085  0.00  0.00    +0.175 C 
BRANCH  41  42
ATOM     42  C   UNL     1      -2.746   5.422  -4.267  0.00  0.00    +0.181 C 
ATOM     43  O   UNL     1      -4.112   4.787  -4.490  0.00  0.00    -0.220 OA
ATOM     44  C   UNL     1      -3.021   6.551  -5.438  0.00  0.00    +0.038 C 
ENDBRANCH  41  42
ENDBRANCH  40  41
ENDBRANCH  32  40
BRANCH  29  45
ATOM     45  C   UNL     1       2.138   4.422  -1.337  0.00  0.00    +0.174 C 
BRANCH  45  46
ATOM     46  O   UNL     1       2.897   5.069  -2.352  0.00  0.00    -0.348 OA
BRANCH  46  47
ATOM     47  C   UNL     1       4.171   4.535  -2.474  0.00  0.00    +0.175 C 
BRANCH  47  49
ATOM     48  C   UNL     1       5.470   4.398  -4.453  0.00  0.00    +0.038 C 
ATOM     49  C   UNL     1       4.132   3.644  -3.859  0.00  0.00    +0.181 C 
ATOM     50  O   UNL     1       3.205   4.633  -4.536  0.00  0.00    -0.220 OA
ENDBRANCH  47  49
ENDBRANCH  46  47
ENDBRANCH  45  46
ENDBRANCH  29  45
BRANCH  33  51
ATOM     51  O   UNL     1      -0.233   6.639  -4.097  0.00  0.00    -0.326 OA
BRANCH  51  52
ATOM     52  C   UNL     1       0.903   6.901  -4.799  0.00  0.00    +0.178 C 
BRANCH  52  53
ATOM     53  C   UNL     1       0.518   7.075  -6.377  0.00  0.00    +0.182 C 
ATOM     54  O   UNL     1       1.975   7.329  -6.733  0.00  0.00    -0.220 OA
ATOM     55  C   UNL     1       0.692   5.465  -6.701  0.00  0.00    +0.038 C 
ENDBRANCH  52  53
ENDBRANCH  51  52
ENDBRANCH  33  51
ENDBRANCH   1  30
TORSDOF 28
ENDMDL
MODEL 3
REMARK VINA RESULT:      -4.3      1.749      8.991
REMARK  Name = 
REMARK  28 active torsions:
REMARK  status: ('A' for Active; 'I' for Inactive)
REMARK    1  A    between atoms: C_2  and  C_4
REMARK    2  A    between atoms: C_4  and  O_5
REMARK    3  A    between atoms: O_5  and  C_6
REMARK    4  A    between atoms: C_6  and  C_7
REMARK    5  A    between atoms: C_9  and  O_10
REMARK    6  A    between atoms: O_10  and  C_11
REMARK    7  A    between atoms: C_11  and  C_12
REMARK    8  A    between atoms: C_15  and  O_16
REMARK    9  A    between atoms: O_16  and  C_17
REMARK   10  A    between atoms: C_17  and  C_18
REMARK   11  A    between atoms: C_21  and  O_22
REMARK   12  A    between atoms: O_22  and  C_23
REMARK   13  A    between atoms: C_23  and  C_24
REMARK   14  A    between atoms: C_27  and  O_28
REMARK   15  A    between atoms: O_28  and  C_29
REMARK   16  A    between atoms: C_31  and  C_32
REMARK   17  A    between atoms: C_32  and  O_33
REMARK   18  A    between atoms: O_33  and  C_34
REMARK   19  A    between atoms: C_34  and  C_35
REMARK   20  A    between atoms: C_38  and  O_39
REMARK   21  A    between atoms: O_39  and  C_40
REMARK   22  A    between atoms: C_40  and  C_41
REMARK   23  A    between atoms: C_44  and  O_45
REMARK   24  A    between atoms: O_45  and  C_46
REMARK   25  A    between atoms: C_46  and  C_47
REMARK   26  A    between atoms: C_50  and  O_51
REMARK   27  A    between atoms: O_51  and  C_52
REMARK   28  A    between atoms: C_52  and  C_53
REMARK                            x       y       z     vdW  Elec       q    Type
REMARK                         _______ _______ _______ _____ _____    ______ ____
ROOT
ATOM      1  O   UNL     1       1.426   6.918  -1.648  0.00  0.00    -0.326 OA
ENDROOT
BRANCH   1   2
ATOM      2  C   UNL     1       1.726   5.787  -2.656  0.00  0.00    +0.266 C 
ATOM      3  C   UNL     1       1.947   6.878  -3.970  0.00  0.00    +0.201 C 
ATOM      4  C   UNL     1       1.830   5.516  -4.978  0.00  0.00    +0.177 C 
ATOM      5  C   UNL     1       0.238   5.867  -5.419  0.00  0.00    +0.174 C 
ATOM      6  C   UNL     1      -0.570   5.939  -3.906  0.00  0.00    +0.177 C 
ATOM      7  O   UNL     1       0.367   5.330  -2.982  0.00  0.00    -0.326 OA
BRANCH   4   8
ATOM      8  O   UNL     1       2.168   6.332  -6.188  0.00  0.00    -0.348 OA
BRANCH   8   9
ATOM      9  C   UNL     1       2.477   5.817  -7.284  0.00  0.00    +0.175 C 
BRANCH   9  10
ATOM     10  C   UNL     1       2.086   6.752  -8.583  0.00  0.00    +0.181 C 
ATOM     11  O   UNL     1       2.300   8.049  -7.807  0.00  0.00    -0.220 OA
ATOM     12  C   UNL     1       3.651   6.804  -9.119  0.00  0.00    +0.038 C 
ENDBRANCH   9  10
ENDBRANCH   8   9
ENDBRANCH   4   8
BRANCH   5  13
ATOM     13  O   UNL     1      -0.150   4.429  -5.598  0.00  0.00    -0.348 OA
BRANCH  13  14
ATOM     14  C   UNL     1      -0.866   4.359  -6.827  0.00  0.00    +0.175 C 
BRANCH  14  15
ATOM     15  C   UNL     1      -1.138   5.942  -7.213  0.00  0.00    +0.181 C 
ATOM     16  O   UNL     1      -1.140   5.658  -8.706  0.00  0.00    -0.220 OA
ATOM     17  C   UNL     1      -2.779   5.760  -7.084  0.00  0.00    +0.038 C 
ENDBRANCH  14  15
ENDBRANCH  13  14
ENDBRANCH   5  13
BRANCH   3  18
ATOM     18  O   UNL     1       3.414   6.814  -3.736  0.00  0.00    -0.346 OA
BRANCH  18  19
ATOM     19  C   UNL     1       3.901   8.093  -3.649  0.00  0.00    +0.175 C 
BRANCH  19  20
ATOM     20  C   UNL     1       5.433   8.023  -4.218  0.00  0.00    +0.181 C 
ATOM     21  O   UNL     1       5.926   7.402  -2.920  0.00  0.00    -0.220 OA
ATOM     22  C   UNL     1       5.139   6.526  -4.883  0.00  0.00    +0.038 C 
ENDBRANCH  19  20
ENDBRANCH  18  19
ENDBRANCH   3  18
BRANCH   6  23
ATOM     23  C   UNL     1      -0.253   7.555  -3.699  0.00  0.00    +0.174 C 
BRANCH  23  24
ATOM     24  O   UNL     1      -1.479   7.877  -3.080  0.00  0.00    -0.348 OA
BRANCH  24  25
ATOM     25  C   UNL     1      -2.480   7.182  -3.660  0.00  0.00    +0.175 C 
BRANCH  25  26
ATOM     26  C   UNL     1      -3.146   6.118  -2.597  0.00  0.00    +0.181 C 
ATOM     27  O   UNL     1      -4.520   6.774  -2.727  0.00  0.00    -0.220 OA
ATOM     28  C   UNL     1      -3.568   4.954  -3.696  0.00  0.00    +0.038 C 
ENDBRANCH  25  26
ENDBRANCH  24  25
ENDBRANCH  23  24
ENDBRANCH   6  23
ENDBRANCH   1   2
BRANCH   1  30
ATOM     29  C   UNL     1       0.243   6.804   0.518  0.00  0.00    +0.177 C 
ATOM     30  C   UNL     1       1.112   5.869  -0.619  0.00  0.00    +0.177 C 
ATOM     31  C   UNL     1       2.527   5.902   0.336  0.00  0.00    +0.177 C 
ATOM     32  C   UNL     1       2.169   7.240   1.322  0.00  0.00    +0.201 C 
ATOM     33  C   UNL     1       1.934   8.419   0.104  0.00  0.00    +0.266 C 
ATOM     34  O   UNL     1       0.452   8.150  -0.101  0.00  0.00    -0.326 OA
BRANCH  31  35
ATOM     35  O   UNL     1       3.452   6.563  -0.637  0.00  0.00    -0.348 OA
BRANCH  35  36
ATOM     36  C   UNL     1       4.475   5.631  -0.614  0.00  0.00    +0.175 C 
BRANCH  36  37
ATOM     37  C   UNL     1       3.918   4.172  -1.110  0.00  0.00    +0.181 C 
ATOM     38  O   UNL     1       4.603   4.239  -2.463  0.00  0.00    -0.220 OA
ATOM     39  C   UNL     1       5.235   3.411  -0.459  0.00  0.00    +0.038 C 
ENDBRANCH  36  37
ENDBRANCH  35  36
ENDBRANCH  31  35
BRANCH  32  40
ATOM     40  O   UNL     1       3.621   7.551   1.519  0.00  0.00    -0.346 OA
BRANCH  40  41
ATOM     41  C   UNL     1       3.931   7.642   2.814  0.00  0.00    +0.175 C 
BRANCH  41  42
ATOM     42  C   UNL     1       5.505   8.013   3.052  0.00  0.00    +0.181 C 
ATOM     43  O   UNL     1       5.886   6.554   3.262  0.00  0.00    -0.220 OA
ATOM     44  C   UNL     1       5.849   7.927   1.440  0.00  0.00    +0.038 C 
ENDBRANCH  41  42
ENDBRANCH  40  41
ENDBRANCH  32  40
BRANCH  29  45
ATOM     45  C   UNL     1      -1.185   6.583  -0.255  0.00  0.00    +0.174 C 
BRANCH  45  46
ATOM     46  O   UNL     1      -2.053   7.313   0.605  0.00  0.00    -0.348 OA
BRANCH  46  47
ATOM     47  C   UNL     1      -1.969   6.884   1.921  0.00  0.00    +0.175 C 
BRANCH  47  49
ATOM     48  C   UNL     1      -3.827   7.974   2.911  0.00  0.00    +0.038 C 
ATOM     49  C   UNL     1      -2.204   8.237   2.830  0.00  0.00    +0.181 C 
ATOM     50  O   UNL     1      -2.349   9.107   1.598  0.00  0.00    -0.220 OA
ENDBRANCH  47  49
ENDBRANCH  46  47
ENDBRANCH  45  46
ENDBRANCH  29  45
BRANCH  33  51
ATOM     51  O   UNL     1       1.627   9.431   1.209  0.00  0.00    -0.326 OA
BRANCH  51  52
ATOM     52  C   UNL     1       2.043  10.653   0.782  0.00  0.00    +0.178 C 
BRANCH  52  53
ATOM     53  C   UNL     1       3.452  10.478  -0.027  0.00  0.00    +0.182 C 
ATOM     54  O   UNL     1       3.206  11.771  -0.789  0.00  0.00    -0.220 OA
ATOM     55  C   UNL     1       4.326  11.287   1.117  0.00  0.00    +0.038 C 
ENDBRANCH  52  53
ENDBRANCH  51  52
ENDBRANCH  33  51
ENDBRANCH   1  30
TORSDOF 28
ENDMDL
MODEL 4
REMARK VINA RESULT:      -4.3      2.006      4.732
REMARK  Name = 
REMARK  28 active torsions:
REMARK  status: ('A' for Active; 'I' for Inactive)
REMARK    1  A    between atoms: C_2  and  C_4
REMARK    2  A    between atoms: C_4  and  O_5
REMARK    3  A    between atoms: O_5  and  C_6
REMARK    4  A    between atoms: C_6  and  C_7
REMARK    5  A    between atoms: C_9  and  O_10
REMARK    6  A    between atoms: O_10  and  C_11
REMARK    7  A    between atoms: C_11  and  C_12
REMARK    8  A    between atoms: C_15  and  O_16
REMARK    9  A    between atoms: O_16  and  C_17
REMARK   10  A    between atoms: C_17  and  C_18
REMARK   11  A    between atoms: C_21  and  O_22
REMARK   12  A    between atoms: O_22  and  C_23
REMARK   13  A    between atoms: C_23  and  C_24
REMARK   14  A    between atoms: C_27  and  O_28
REMARK   15  A    between atoms: O_28  and  C_29
REMARK   16  A    between atoms: C_31  and  C_32
REMARK   17  A    between atoms: C_32  and  O_33
REMARK   18  A    between atoms: O_33  and  C_34
REMARK   19  A    between atoms: C_34  and  C_35
REMARK   20  A    between atoms: C_38  and  O_39
REMARK   21  A    between atoms: O_39  and  C_40
REMARK   22  A    between atoms: C_40  and  C_41
REMARK   23  A    between atoms: C_44  and  O_45
REMARK   24  A    between atoms: O_45  and  C_46
REMARK   25  A    between atoms: C_46  and  C_47
REMARK   26  A    between atoms: C_50  and  O_51
REMARK   27  A    between atoms: O_51  and  C_52
REMARK   28  A    between atoms: C_52  and  C_53
REMARK                            x       y       z     vdW  Elec       q    Type
REMARK                         _______ _______ _______ _____ _____    ______ ____
ROOT
ATOM      1  O   UNL     1       1.236   7.088  -0.725  0.00  0.00    -0.326 OA
ENDROOT
BRANCH   1   2
ATOM      2  C   UNL     1       1.917   7.055   0.661  0.00  0.00    +0.266 C 
ATOM      3  C   UNL     1       2.157   8.760   0.697  0.00  0.00    +0.201 C 
ATOM      4  C   UNL     1       3.228   8.471   1.984  0.00  0.00    +0.177 C 
ATOM      5  C   UNL     1       4.594   8.657   1.007  0.00  0.00    +0.174 C 
ATOM      6  C   UNL     1       4.339   7.495  -0.231  0.00  0.00    +0.177 C 
ATOM      7  O   UNL     1       3.283   6.653   0.295  0.00  0.00    -0.326 OA
BRANCH   4   8
ATOM      8  O   UNL     1       3.404   9.940   2.220  0.00  0.00    -0.348 OA
BRANCH   8   9
ATOM      9  C   UNL     1       4.263  10.621   1.619  0.00  0.00    +0.175 C 
BRANCH   9  10
ATOM     10  C   UNL     1       4.465  12.129   2.251  0.00  0.00    +0.181 C 
ATOM     11  O   UNL     1       5.795  11.759   2.902  0.00  0.00    -0.220 OA
ATOM     12  C   UNL     1       5.264  12.672   0.907  0.00  0.00    +0.038 C 
ENDBRANCH   9  10
ENDBRANCH   8   9
ENDBRANCH   4   8
BRANCH   5  13
ATOM     13  O   UNL     1       5.429   7.690   1.793  0.00  0.00    -0.348 OA
BRANCH  13  14
ATOM     14  C   UNL     1       6.621   8.385   2.144  0.00  0.00    +0.175 C 
BRANCH  14  15
ATOM     15  C   UNL     1       6.813   8.047   3.750  0.00  0.00    +0.181 C 
ATOM     16  O   UNL     1       6.286   6.631   3.595  0.00  0.00    -0.220 OA
ATOM     17  C   UNL     1       8.388   7.581   3.531  0.00  0.00    +0.038 C 
ENDBRANCH  14  15
ENDBRANCH  13  14
ENDBRANCH   5  13
BRANCH   3  18
ATOM     18  O   UNL     1       0.918   8.886   1.509  0.00  0.00    -0.346 OA
BRANCH  18  19
ATOM     19  C   UNL     1       0.464  10.178   1.420  0.00  0.00    +0.175 C 
BRANCH  19  20
ATOM     20  C   UNL     1      -0.023  10.582   2.927  0.00  0.00    +0.181 C 
ATOM     21  O   UNL     1      -1.485  10.487   2.521  0.00  0.00    -0.220 OA
ATOM     22  C   UNL     1       0.006   8.982   3.387  0.00  0.00    +0.038 C 
ENDBRANCH  19  20
ENDBRANCH  18  19
ENDBRANCH   3  18
BRANCH   6  23
ATOM     23  C   UNL     1       3.489   8.551  -1.188  0.00  0.00    +0.174 C 
BRANCH  23  24
ATOM     24  O   UNL     1       3.636   7.826  -2.390  0.00  0.00    -0.348 OA
BRANCH  24  25
ATOM     25  C   UNL     1       4.947   7.650  -2.658  0.00  0.00    +0.175 C 
BRANCH  25  26
ATOM     26  C   UNL     1       5.233   7.763  -4.275  0.00  0.00    +0.181 C 
ATOM     27  O   UNL     1       6.721   7.476  -4.080  0.00  0.00    -0.220 OA
ATOM     28  C   UNL     1       4.950   6.176  -4.653  0.00  0.00    +0.038 C 
ENDBRANCH  25  26
ENDBRANCH  24  25
ENDBRANCH  23  24
ENDBRANCH   6  23
ENDBRANCH   1   2
BRANCH   1  30
ATOM     29  C   UNL     1       0.805   4.857  -1.694  0.00  0.00    +0.177 C 
ATOM     30  C   UNL     1       0.475   5.850  -0.342  0.00  0.00    +0.177 C 
ATOM     31  C   UNL     1      -1.088   6.227  -0.916  0.00  0.00    +0.177 C 
ATOM     32  C   UNL     1      -0.890   5.822  -2.556  0.00  0.00    +0.201 C 
ATOM     33  C   UNL     1       0.426   6.848  -2.932  0.00  0.00    +0.266 C 
ATOM     34  O   UNL     1       1.518   5.866  -2.537  0.00  0.00    -0.326 OA
BRANCH  31  35
ATOM     35  O   UNL     1      -0.950   7.714  -1.020  0.00  0.00    -0.348 OA
BRANCH  35  36
ATOM     36  C   UNL     1      -1.811   8.071   0.003  0.00  0.00    +0.175 C 
BRANCH  36  37
ATOM     37  C   UNL     1      -2.356   6.732   0.774  0.00  0.00    +0.181 C 
ATOM     38  O   UNL     1      -1.377   6.854   1.928  0.00  0.00    -0.220 OA
ATOM     39  C   UNL     1      -3.476   7.625   1.603  0.00  0.00    +0.038 C 
ENDBRANCH  36  37
ENDBRANCH  35  36
ENDBRANCH  31  35
BRANCH  32  40
ATOM     40  O   UNL     1      -1.939   6.802  -2.980  0.00  0.00    -0.346 OA
BRANCH  40  41
ATOM     41  C   UNL     1      -2.844   6.236  -3.782  0.00  0.00    +0.175 C 
BRANCH  41  42
ATOM     42  C   UNL     1      -3.227   7.186  -5.056  0.00  0.00    +0.181 C 
ATOM     43  O   UNL     1      -1.993   8.057  -4.861  0.00  0.00    -0.220 OA
ATOM     44  C   UNL     1      -2.434   6.208  -6.123  0.00  0.00    +0.038 C 
ENDBRANCH  41  42
ENDBRANCH  40  41
ENDBRANCH  32  40
BRANCH  29  45
ATOM     45  C   UNL     1       2.202   4.291  -1.051  0.00  0.00    +0.174 C 
BRANCH  45  46
ATOM     46  O   UNL     1       3.084   4.491  -2.150  0.00  0.00    -0.348 OA
BRANCH  46  47
ATOM     47  C   UNL     1       4.369   4.045  -1.877  0.00  0.00    +0.175 C 
BRANCH  47  49
ATOM     48  C   UNL     1       5.882   3.056  -0.342  0.00  0.00    +0.038 C 
ATOM     49  C   UNL     1       4.377   3.721  -0.262  0.00  0.00    +0.181 C 
ATOM     50  O   UNL     1       3.711   2.377  -0.471  0.00  0.00    -0.220 OA
ENDBRANCH  47  49
ENDBRANCH  46  47
ENDBRANCH  45  46
ENDBRANCH  29  45
BRANCH  33  51
ATOM     51  O   UNL     1       0.395   6.288  -4.354  0.00  0.00    -0.326 OA
BRANCH  51  52
ATOM     52  C   UNL     1       1.516   6.716  -4.995  0.00  0.00    +0.178 C 
BRANCH  52  53
ATOM     53  C   UNL     1       1.093   7.307  -6.458  0.00  0.00    +0.182 C 
ATOM     54  O   UNL     1       2.536   7.686  -6.753  0.00  0.00    -0.220 OA
ATOM     55  C   UNL     1       1.292   5.852  -7.215  0.00  0.00    +0.038 C 
ENDBRANCH  52  53
ENDBRANCH  51  52
ENDBRANCH  33  51
ENDBRANCH   1  30
TORSDOF 28
ENDMDL
MODEL 5
REMARK VINA RESULT:      -4.0      2.649      5.373
REMARK  Name = 
REMARK  28 active torsions:
REMARK  status: ('A' for Active; 'I' for Inactive)
REMARK    1  A    between atoms: C_2  and  C_4
REMARK    2  A    between atoms: C_4  and  O_5
REMARK    3  A    between atoms: O_5  and  C_6
REMARK    4  A    between atoms: C_6  and  C_7
REMARK    5  A    between atoms: C_9  and  O_10
REMARK    6  A    between atoms: O_10  and  C_11
REMARK    7  A    between atoms: C_11  and  C_12
REMARK    8  A    between atoms: C_15  and  O_16
REMARK    9  A    between atoms: O_16  and  C_17
REMARK   10  A    between atoms: C_17  and  C_18
REMARK   11  A    between atoms: C_21  and  O_22
REMARK   12  A    between atoms: O_22  and  C_23
REMARK   13  A    between atoms: C_23  and  C_24
REMARK   14  A    between atoms: C_27  and  O_28
REMARK   15  A    between atoms: O_28  and  C_29
REMARK   16  A    between atoms: C_31  and  C_32
REMARK   17  A    between atoms: C_32  and  O_33
REMARK   18  A    between atoms: O_33  and  C_34
REMARK   19  A    between atoms: C_34  and  C_35
REMARK   20  A    between atoms: C_38  and  O_39
REMARK   21  A    between atoms: O_39  and  C_40
REMARK   22  A    between atoms: C_40  and  C_41
REMARK   23  A    between atoms: C_44  and  O_45
REMARK   24  A    between atoms: O_45  and  C_46
REMARK   25  A    between atoms: C_46  and  C_47
REMARK   26  A    between atoms: C_50  and  O_51
REMARK   27  A    between atoms: O_51  and  C_52
REMARK   28  A    between atoms: C_52  and  C_53
REMARK                            x       y       z     vdW  Elec       q    Type
REMARK                         _______ _______ _______ _____ _____    ______ ____
ROOT
ATOM      1  O   UNL     1       2.984   5.563  -8.143  0.00  0.00    -0.326 OA
ENDROOT
BRANCH   1   2
ATOM      2  C   UNL     1       2.543   4.547  -7.067  0.00  0.00    +0.266 C 
ATOM      3  C   UNL     1       1.569   5.698  -6.235  0.00  0.00    +0.201 C 
ATOM      4  C   UNL     1       1.545   4.586  -4.950  0.00  0.00    +0.177 C 
ATOM      5  C   UNL     1       2.696   5.448  -4.064  0.00  0.00    +0.174 C 
ATOM      6  C   UNL     1       4.023   5.543  -5.150  0.00  0.00    +0.177 C 
ATOM      7  O   UNL     1       3.707   4.562  -6.169  0.00  0.00    -0.326 OA
BRANCH   4   8
ATOM      8  O   UNL     1       0.571   5.428  -4.186  0.00  0.00    -0.348 OA
BRANCH   8   9
ATOM      9  C   UNL     1      -0.030   5.011  -3.172  0.00  0.00    +0.175 C 
BRANCH   9  10
ATOM     10  C   UNL     1      -1.258   5.995  -2.685  0.00  0.00    +0.181 C 
ATOM     11  O   UNL     1      -2.264   4.848  -2.651  0.00  0.00    -0.220 OA
ATOM     12  C   UNL     1      -0.920   5.759  -1.082  0.00  0.00    +0.038 C 
ENDBRANCH   9  10
ENDBRANCH   8   9
ENDBRANCH   4   8
BRANCH   5  13
ATOM     13  O   UNL     1       3.273   4.229  -3.408  0.00  0.00    -0.348 OA
BRANCH  13  14
ATOM     14  C   UNL     1       3.820   4.663  -2.168  0.00  0.00    +0.175 C 
BRANCH  14  15
ATOM     15  C   UNL     1       2.526   4.640  -1.140  0.00  0.00    +0.181 C 
ATOM     16  O   UNL     1       3.118   3.525  -0.295  0.00  0.00    -0.220 OA
ATOM     17  C   UNL     1       3.179   5.830  -0.188  0.00  0.00    +0.038 C 
ENDBRANCH  14  15
ENDBRANCH  13  14
ENDBRANCH   5  13
BRANCH   3  18
ATOM     18  O   UNL     1       0.382   5.172  -6.960  0.00  0.00    -0.346 OA
BRANCH  18  19
ATOM     19  C   UNL     1      -0.481   6.211  -7.202  0.00  0.00    +0.175 C 
BRANCH  19  20
ATOM     20  C   UNL     1      -1.977   5.553  -7.205  0.00  0.00    +0.181 C 
ATOM     21  O   UNL     1      -1.522   4.421  -6.296  0.00  0.00    -0.220 OA
ATOM     22  C   UNL     1      -2.415   6.491  -5.902  0.00  0.00    +0.038 C 
ENDBRANCH  19  20
ENDBRANCH  18  19
ENDBRANCH   3  18
BRANCH   6  23
ATOM     23  C   UNL     1       3.482   6.947  -5.848  0.00  0.00    +0.174 C 
BRANCH  23  24
ATOM     24  O   UNL     1       4.536   7.766  -5.391  0.00  0.00    -0.348 OA
BRANCH  24  25
ATOM     25  C   UNL     1       4.950   7.342  -4.179  0.00  0.00    +0.175 C 
BRANCH  25  26
ATOM     26  C   UNL     1       4.700   8.500  -3.037  0.00  0.00    +0.181 C 
ATOM     27  O   UNL     1       3.273   8.014  -2.789  0.00  0.00    -0.220 OA
ATOM     28  C   UNL     1       5.247   7.637  -1.734  0.00  0.00    +0.038 C 
ENDBRANCH  25  26
ENDBRANCH  24  25
ENDBRANCH  23  24
ENDBRANCH   6  23
ENDBRANCH   1   2
BRANCH   1  30
ATOM     29  C   UNL     1       4.967   5.254  -9.585  0.00  0.00    +0.177 C 
ATOM     30  C   UNL     1       3.637   4.435  -8.891  0.00  0.00    +0.177 C 
ATOM     31  C   UNL     1       2.768   4.461 -10.361  0.00  0.00    +0.177 C 
ATOM     32  C   UNL     1       3.600   5.713 -11.156  0.00  0.00    +0.201 C 
ATOM     33  C   UNL     1       3.372   6.961 -10.008  0.00  0.00    +0.266 C 
ATOM     34  O   UNL     1       4.604   6.646  -9.175  0.00  0.00    -0.326 OA
BRANCH  31  35
ATOM     35  O   UNL     1       1.563   5.225  -9.909  0.00  0.00    -0.348 OA
BRANCH  35  36
ATOM     36  C   UNL     1       0.596   4.283 -10.219  0.00  0.00    +0.175 C 
BRANCH  36  37
ATOM     37  C   UNL     1      -0.773   5.028 -10.726  0.00  0.00    +0.181 C 
ATOM     38  O   UNL     1      -0.147   6.411 -10.765  0.00  0.00    -0.220 OA
ATOM     39  C   UNL     1      -0.363   4.777 -12.309  0.00  0.00    +0.038 C 
ENDBRANCH  36  37
ENDBRANCH  35  36
ENDBRANCH  31  35
BRANCH  32  40
ATOM     40  O   UNL     1       2.395   6.069 -11.971  0.00  0.00    -0.346 OA
BRANCH  40  41
ATOM     41  C   UNL     1       2.695   6.179 -13.267  0.00  0.00    +0.175 C 
BRANCH  41  42
ATOM     42  C   UNL     1       4.021   5.314 -13.673  0.00  0.00    +0.181 C 
ATOM     43  O   UNL     1       3.201   4.311 -14.474  0.00  0.00    -0.220 OA
ATOM     44  C   UNL     1       4.305   6.232 -15.014  0.00  0.00    +0.038 C 
ENDBRANCH  41  42
ENDBRANCH  40  41
ENDBRANCH  32  40
BRANCH  29  45
ATOM     45  C   UNL     1       5.911   5.028  -8.265  0.00  0.00    +0.174 C 
BRANCH  45  46
ATOM     46  O   UNL     1       7.119   4.605  -8.888  0.00  0.00    -0.348 OA
BRANCH  46  47
ATOM     47  C   UNL     1       7.518   5.468  -9.896  0.00  0.00    +0.175 C 
BRANCH  47  49
ATOM     48  C   UNL     1       9.147   5.850 -11.576  0.00  0.00    +0.038 C 
ATOM     49  C   UNL     1       8.383   4.536 -10.943  0.00  0.00    +0.181 C 
ATOM     50  O   UNL     1       7.290   4.597 -11.989  0.00  0.00    -0.220 OA
ENDBRANCH  47  49
ENDBRANCH  46  47
ENDBRANCH  45  46
ENDBRANCH  29  45
BRANCH  33  51
ATOM     51  O   UNL     1       4.186   7.882 -10.918  0.00  0.00    -0.326 OA
BRANCH  51  52
ATOM     52  C   UNL     1       5.500   7.726 -10.600  0.00  0.00    +0.178 C 
BRANCH  52  53
ATOM     53  C   UNL     1       6.371   8.859 -11.392  0.00  0.00    +0.182 C 
ATOM     54  O   UNL     1       7.636   8.437 -10.660  0.00  0.00    -0.220 OA
ATOM     55  C   UNL     1       6.730   7.848 -12.648  0.00  0.00    +0.038 C 
ENDBRANCH  52  53
ENDBRANCH  51  52
ENDBRANCH  33  51
ENDBRANCH   1  30
TORSDOF 28
ENDMDL
MODEL 6
REMARK VINA RESULT:      -4.0      1.710      2.571
REMARK  Name = 
REMARK  28 active torsions:
REMARK  status: ('A' for Active; 'I' for Inactive)
REMARK    1  A    between atoms: C_2  and  C_4
REMARK    2  A    between atoms: C_4  and  O_5
REMARK    3  A    between atoms: O_5  and  C_6
REMARK    4  A    between atoms: C_6  and  C_7
REMARK    5  A    between atoms: C_9  and  O_10
REMARK    6  A    between atoms: O_10  and  C_11
REMARK    7  A    between atoms: C_11  and  C_12
REMARK    8  A    between atoms: C_15  and  O_16
REMARK    9  A    between atoms: O_16  and  C_17
REMARK   10  A    between atoms: C_17  and  C_18
REMARK   11  A    between atoms: C_21  and  O_22
REMARK   12  A    between atoms: O_22  and  C_23
REMARK   13  A    between atoms: C_23  and  C_24
REMARK   14  A    between atoms: C_27  and  O_28
REMARK   15  A    between atoms: O_28  and  C_29
REMARK   16  A    between atoms: C_31  and  C_32
REMARK   17  A    between atoms: C_32  and  O_33
REMARK   18  A    between atoms: O_33  and  C_34
REMARK   19  A    between atoms: C_34  and  C_35
REMARK   20  A    between atoms: C_38  and  O_39
REMARK   21  A    between atoms: O_39  and  C_40
REMARK   22  A    between atoms: C_40  and  C_41
REMARK   23  A    between atoms: C_44  and  O_45
REMARK   24  A    between atoms: O_45  and  C_46
REMARK   25  A    between atoms: C_46  and  C_47
REMARK   26  A    between atoms: C_50  and  O_51
REMARK   27  A    between atoms: O_51  and  C_52
REMARK   28  A    between atoms: C_52  and  C_53
REMARK                            x       y       z     vdW  Elec       q    Type
REMARK                         _______ _______ _______ _____ _____    ______ ____
ROOT
ATOM      1  O   UNL     1       1.393   6.546  -1.785  0.00  0.00    -0.326 OA
ENDROOT
BRANCH   1   2
ATOM      2  C   UNL     1       1.538   6.238  -0.278  0.00  0.00    +0.266 C 
ATOM      3  C   UNL     1       1.003   7.805   0.196  0.00  0.00    +0.201 C 
ATOM      4  C   UNL     1       1.618   7.429   1.735  0.00  0.00    +0.177 C 
ATOM      5  C   UNL     1       3.008   8.362   1.506  0.00  0.00    +0.174 C 
ATOM      6  C   UNL     1       3.685   7.695   0.077  0.00  0.00    +0.177 C 
ATOM      7  O   UNL     1       2.982   6.437  -0.087  0.00  0.00    -0.326 OA
BRANCH   4   8
ATOM      8  O   UNL     1       1.065   8.696   2.310  0.00  0.00    -0.348 OA
BRANCH   8   9
ATOM      9  C   UNL     1       1.247   9.032   3.501  0.00  0.00    +0.175 C 
BRANCH   9  10
ATOM     10  C   UNL     1       1.135  10.657   3.750  0.00  0.00    +0.181 C 
ATOM     11  O   UNL     1       1.138  10.961   2.254  0.00  0.00    -0.220 OA
ATOM     12  C   UNL     1      -0.519  10.625   3.749  0.00  0.00    +0.038 C 
ENDBRANCH   9  10
ENDBRANCH   8   9
ENDBRANCH   4   8
BRANCH   5  13
ATOM     13  O   UNL     1       3.874   7.491   2.367  0.00  0.00    -0.348 OA
BRANCH  13  14
ATOM     14  C   UNL     1       4.383   8.329   3.398  0.00  0.00    +0.175 C 
BRANCH  14  15
ATOM     15  C   UNL     1       5.885   7.711   3.700  0.00  0.00    +0.181 C 
ATOM     16  O   UNL     1       5.672   6.530   2.769  0.00  0.00    -0.220 OA
ATOM     17  C   UNL     1       6.577   8.638   2.513  0.00  0.00    +0.038 C 
ENDBRANCH  14  15
ENDBRANCH  13  14
ENDBRANCH   5  13
BRANCH   3  18
ATOM     18  O   UNL     1      -0.359   7.244   0.397  0.00  0.00    -0.346 OA
BRANCH  18  19
ATOM     19  C   UNL     1      -1.202   8.261   0.770  0.00  0.00    +0.175 C 
BRANCH  19  20
ATOM     20  C   UNL     1      -1.855   7.796   2.195  0.00  0.00    +0.181 C 
ATOM     21  O   UNL     1      -3.127   8.578   1.911  0.00  0.00    -0.220 OA
ATOM     22  C   UNL     1      -2.478   6.425   1.486  0.00  0.00    +0.038 C 
ENDBRANCH  19  20
ENDBRANCH  18  19
ENDBRANCH   3  18
BRANCH   6  23
ATOM     23  C   UNL     1       2.824   8.700  -0.923  0.00  0.00    +0.174 C 
BRANCH  23  24
ATOM     24  O   UNL     1       3.846   9.655  -1.105  0.00  0.00    -0.348 OA
BRANCH  24  25
ATOM     25  C   UNL     1       4.021  10.358   0.034  0.00  0.00    +0.175 C 
BRANCH  25  26
ATOM     26  C   UNL     1       3.252  11.810  -0.051  0.00  0.00    +0.181 C 
ATOM     27  O   UNL     1       4.107  12.383   1.077  0.00  0.00    -0.220 OA
ATOM     28  C   UNL     1       4.235  12.507  -1.186  0.00  0.00    +0.038 C 
ENDBRANCH  25  26
ENDBRANCH  24  25
ENDBRANCH  23  24
ENDBRANCH   6  23
ENDBRANCH   1   2
BRANCH   1  30
ATOM     29  C   UNL     1       2.366   4.964  -3.415  0.00  0.00    +0.177 C 
ATOM     30  C   UNL     1       1.346   5.067  -2.046  0.00  0.00    +0.177 C 
ATOM     31  C   UNL     1      -0.062   4.940  -3.003  0.00  0.00    +0.177 C 
ATOM     32  C   UNL     1       0.585   5.373  -4.514  0.00  0.00    +0.201 C 
ATOM     33  C   UNL     1       1.206   6.916  -4.111  0.00  0.00    +0.266 C 
ATOM     34  O   UNL     1       2.569   6.428  -3.645  0.00  0.00    -0.326 OA
BRANCH  31  35
ATOM     35  O   UNL     1      -0.711   6.239  -2.641  0.00  0.00    -0.348 OA
BRANCH  35  36
ATOM     36  C   UNL     1      -1.925   5.744  -2.196  0.00  0.00    +0.175 C 
BRANCH  36  37
ATOM     37  C   UNL     1      -2.905   6.978  -1.744  0.00  0.00    +0.181 C 
ATOM     38  O   UNL     1      -2.413   7.921  -2.829  0.00  0.00    -0.220 OA
ATOM     39  C   UNL     1      -4.108   6.430  -2.739  0.00  0.00    +0.038 C 
ENDBRANCH  36  37
ENDBRANCH  35  36
ENDBRANCH  31  35
BRANCH  32  40
ATOM     40  O   UNL     1      -0.736   5.891  -4.993  0.00  0.00    -0.346 OA
BRANCH  40  41
ATOM     41  C   UNL     1      -1.057   5.387  -6.187  0.00  0.00    +0.175 C 
BRANCH  41  42
ATOM     42  C   UNL     1      -2.629   5.633  -6.562  0.00  0.00    +0.181 C 
ATOM     43  O   UNL     1      -3.109   4.825  -5.364  0.00  0.00    -0.220 OA
ATOM     44  C   UNL     1      -2.694   7.041  -5.706  0.00  0.00    +0.038 C 
ENDBRANCH  41  42
ENDBRANCH  40  41
ENDBRANCH  32  40
BRANCH  29  45
ATOM     45  C   UNL     1       3.724   4.839  -2.507  0.00  0.00    +0.174 C 
BRANCH  45  46
ATOM     46  O   UNL     1       4.703   4.711  -3.532  0.00  0.00    -0.348 OA
BRANCH  46  47
ATOM     47  C   UNL     1       5.787   5.552  -3.328  0.00  0.00    +0.175 C 
BRANCH  47  49
ATOM     48  C   UNL     1       5.955   7.682  -4.356  0.00  0.00    +0.038 C 
ATOM     49  C   UNL     1       5.133   7.044  -3.081  0.00  0.00    +0.181 C 
ATOM     50  O   UNL     1       6.230   7.425  -2.109  0.00  0.00    -0.220 OA
ENDBRANCH  47  49
ENDBRANCH  46  47
ENDBRANCH  45  46
ENDBRANCH  29  45
BRANCH  33  51
ATOM     51  O   UNL     1       1.709   7.037  -5.550  0.00  0.00    -0.326 OA
BRANCH  51  52
ATOM     52  C   UNL     1       2.699   6.122  -5.725  0.00  0.00    +0.178 C 
BRANCH  52  53
ATOM     53  C   UNL     1       2.668   5.600  -7.273  0.00  0.00    +0.182 C 
ATOM     54  O   UNL     1       2.121   6.939  -7.742  0.00  0.00    -0.220 OA
ATOM     55  C   UNL     1       4.214   6.095  -7.577  0.00  0.00    +0.038 C 
ENDBRANCH  52  53
ENDBRANCH  51  52
ENDBRANCH  33  51
ENDBRANCH   1  30
TORSDOF 28
ENDMDL
MODEL 7
REMARK VINA RESULT:      -3.9      2.138      8.461
REMARK  Name = 
REMARK  28 active torsions:
REMARK  status: ('A' for Active; 'I' for Inactive)
REMARK    1  A    between atoms: C_2  and  C_4
REMARK    2  A    between atoms: C_4  and  O_5
REMARK    3  A    between atoms: O_5  and  C_6
REMARK    4  A    between atoms: C_6  and  C_7
REMARK    5  A    between atoms: C_9  and  O_10
REMARK    6  A    between atoms: O_10  and  C_11
REMARK    7  A    between atoms: C_11  and  C_12
REMARK    8  A    between atoms: C_15  and  O_16
REMARK    9  A    between atoms: O_16  and  C_17
REMARK   10  A    between atoms: C_17  and  C_18
REMARK   11  A    between atoms: C_21  and  O_22
REMARK   12  A    between atoms: O_22  and  C_23
REMARK   13  A    between atoms: C_23  and  C_24
REMARK   14  A    between atoms: C_27  and  O_28
REMARK   15  A    between atoms: O_28  and  C_29
REMARK   16  A    between atoms: C_31  and  C_32
REMARK   17  A    between atoms: C_32  and  O_33
REMARK   18  A    between atoms: O_33  and  C_34
REMARK   19  A    between atoms: C_34  and  C_35
REMARK   20  A    between atoms: C_38  and  O_39
REMARK   21  A    between atoms: O_39  and  C_40
REMARK   22  A    between atoms: C_40  and  C_41
REMARK   23  A    between atoms: C_44  and  O_45
REMARK   24  A    between atoms: O_45  and  C_46
REMARK   25  A    between atoms: C_46  and  C_47
REMARK   26  A    between atoms: C_50  and  O_51
REMARK   27  A    between atoms: O_51  and  C_52
REMARK   28  A    between atoms: C_52  and  C_53
REMARK                            x       y       z     vdW  Elec       q    Type
REMARK                         _______ _______ _______ _____ _____    ______ ____
ROOT
ATOM      1  O   UNL     1       1.599   6.322  -6.171  0.00  0.00    -0.326 OA
ENDROOT
BRANCH   1   2
ATOM      2  C   UNL     1       2.357   7.069  -7.291  0.00  0.00    +0.266 C 
ATOM      3  C   UNL     1       2.060   5.835  -8.455  0.00  0.00    +0.201 C 
ATOM      4  C   UNL     1       3.260   6.585  -9.395  0.00  0.00    +0.177 C 
ATOM      5  C   UNL     1       4.425   5.431  -8.992  0.00  0.00    +0.174 C 
ATOM      6  C   UNL     1       4.452   5.497  -7.276  0.00  0.00    +0.177 C 
ATOM      7  O   UNL     1       3.750   6.727  -6.966  0.00  0.00    -0.326 OA
BRANCH   4   8
ATOM      8  O   UNL     1       2.990   5.666 -10.546  0.00  0.00    -0.348 OA
BRANCH   8   9
ATOM      9  C   UNL     1       3.188   5.998 -11.735  0.00  0.00    +0.175 C 
BRANCH   9  10
ATOM     10  C   UNL     1       3.691   4.752 -12.690  0.00  0.00    +0.181 C 
ATOM     11  O   UNL     1       2.671   5.077 -13.778  0.00  0.00    -0.220 OA
ATOM     12  C   UNL     1       4.820   5.689 -13.455  0.00  0.00    +0.038 C 
ENDBRANCH   9  10
ENDBRANCH   8   9
ENDBRANCH   4   8
BRANCH   5  13
ATOM     13  O   UNL     1       5.574   6.390  -9.084  0.00  0.00    -0.348 OA
BRANCH  13  14
ATOM     14  C   UNL     1       6.451   5.871 -10.077  0.00  0.00    +0.175 C 
BRANCH  14  15
ATOM     15  C   UNL     1       7.570   7.069 -10.278  0.00  0.00    +0.181 C 
ATOM     16  O   UNL     1       8.210   6.380 -11.471  0.00  0.00    -0.220 OA
ATOM     17  C   UNL     1       6.544   7.959 -11.227  0.00  0.00    +0.038 C 
ENDBRANCH  14  15
ENDBRANCH  13  14
ENDBRANCH   5  13
BRANCH   3  18
ATOM     18  O   UNL     1       0.906   6.627  -8.955  0.00  0.00    -0.346 OA
BRANCH  18  19
ATOM     19  C   UNL     1      -0.095   5.763  -9.321  0.00  0.00    +0.175 C 
BRANCH  19  20
ATOM     20  C   UNL     1      -0.845   6.466 -10.592  0.00  0.00    +0.181 C 
ATOM     21  O   UNL     1       0.324   7.415 -10.805  0.00  0.00    -0.220 OA
ATOM     22  C   UNL     1      -0.187   5.342 -11.629  0.00  0.00    +0.038 C 
ENDBRANCH  19  20
ENDBRANCH  18  19
ENDBRANCH   3  18
BRANCH   6  23
ATOM     23  C   UNL     1       3.249   4.366  -7.112  0.00  0.00    +0.174 C 
BRANCH  23  24
ATOM     24  O   UNL     1       3.585   3.969  -5.801  0.00  0.00    -0.348 OA
BRANCH  24  25
ATOM     25  C   UNL     1       4.815   4.428  -5.486  0.00  0.00    +0.175 C 
BRANCH  25  26
ATOM     26  C   UNL     1       5.033   4.445  -3.855  0.00  0.00    +0.181 C 
ATOM     27  O   UNL     1       6.273   3.560  -3.965  0.00  0.00    -0.220 OA
ATOM     28  C   UNL     1       5.977   5.803  -3.780  0.00  0.00    +0.038 C 
ENDBRANCH  25  26
ENDBRANCH  24  25
ENDBRANCH  23  24
ENDBRANCH   6  23
ENDBRANCH   1   2
BRANCH   1  30
ATOM     29  C   UNL     1       2.026   7.302  -3.944  0.00  0.00    +0.177 C 
ATOM     30  C   UNL     1       1.378   7.642  -5.489  0.00  0.00    +0.177 C 
ATOM     31  C   UNL     1      -0.226   7.465  -4.929  0.00  0.00    +0.177 C 
ATOM     32  C   UNL     1       0.070   6.573  -3.512  0.00  0.00    +0.201 C 
ATOM     33  C   UNL     1       0.886   5.235  -4.198  0.00  0.00    +0.266 C 
ATOM     34  O   UNL     1       2.279   5.840  -4.131  0.00  0.00    -0.326 OA
BRANCH  31  35
ATOM     35  O   UNL     1      -0.666   6.350  -5.825  0.00  0.00    -0.348 OA
BRANCH  35  36
ATOM     36  C   UNL     1      -1.963   6.775  -6.057  0.00  0.00    +0.175 C 
BRANCH  36  37
ATOM     37  C   UNL     1      -2.786   5.638  -6.903  0.00  0.00    +0.181 C 
ATOM     38  O   UNL     1      -1.659   4.621  -6.859  0.00  0.00    -0.220 OA
ATOM     39  C   UNL     1      -3.427   5.017  -5.510  0.00  0.00    +0.038 C 
ENDBRANCH  36  37
ENDBRANCH  35  36
ENDBRANCH  31  35
BRANCH  32  40
ATOM     40  O   UNL     1      -1.285   5.936  -3.566  0.00  0.00    -0.346 OA
BRANCH  40  41
ATOM     41  C   UNL     1      -1.973   6.151  -2.443  0.00  0.00    +0.175 C 
BRANCH  41  42
ATOM     42  C   UNL     1      -1.067   6.868  -1.287  0.00  0.00    +0.181 C 
ATOM     43  O   UNL     1      -1.968   8.095  -1.248  0.00  0.00    -0.220 OA
ATOM     44  C   UNL     1      -1.910   6.144  -0.067  0.00  0.00    +0.038 C 
ENDBRANCH  41  42
ENDBRANCH  40  41
ENDBRANCH  32  40
BRANCH  29  45
ATOM     45  C   UNL     1       3.549   7.703  -4.395  0.00  0.00    +0.174 C 
BRANCH  45  46
ATOM     46  O   UNL     1       4.096   8.078  -3.136  0.00  0.00    -0.348 OA
BRANCH  46  47
ATOM     47  C   UNL     1       3.111   8.382  -2.208  0.00  0.00    +0.175 C 
BRANCH  47  49
ATOM     48  C   UNL     1       2.614   8.508   0.107  0.00  0.00    +0.038 C 
ATOM     49  C   UNL     1       3.926   8.808  -0.841  0.00  0.00    +0.181 C 
ATOM     50  O   UNL     1       3.547  10.266  -1.002  0.00  0.00    -0.220 OA
ENDBRANCH  47  49
ENDBRANCH  46  47
ENDBRANCH  45  46
ENDBRANCH  29  45
BRANCH  33  51
ATOM     51  O   UNL     1       1.034   4.662  -2.789  0.00  0.00    -0.326 OA
BRANCH  51  52
ATOM     52  C   UNL     1       2.338   4.785  -2.423  0.00  0.00    +0.178 C 
BRANCH  52  53
ATOM     53  C   UNL     1       2.412   5.045  -0.812  0.00  0.00    +0.182 C 
ATOM     54  O   UNL     1       2.453   3.548  -0.545  0.00  0.00    -0.220 OA
ATOM     55  C   UNL     1       4.062   5.119  -0.799  0.00  0.00    +0.038 C 
ENDBRANCH  52  53
ENDBRANCH  51  52
ENDBRANCH  33  51
ENDBRANCH   1  30
TORSDOF 28
ENDMDL
MODEL 8
REMARK VINA RESULT:      -3.9      2.418      9.463
REMARK  Name = 
REMARK  28 active torsions:
REMARK  status: ('A' for Active; 'I' for Inactive)
REMARK    1  A    between atoms: C_2  and  C_4
REMARK    2  A    between atoms: C_4  and  O_5
REMARK    3  A    between atoms: O_5  and  C_6
REMARK    4  A    between atoms: C_6  and  C_7
REMARK    5  A    between atoms: C_9  and  O_10
REMARK    6  A    between atoms: O_10  and  C_11
REMARK    7  A    between atoms: C_11  and  C_12
REMARK    8  A    between atoms: C_15  and  O_16
REMARK    9  A    between atoms: O_16  and  C_17
REMARK   10  A    between atoms: C_17  and  C_18
REMARK   11  A    between atoms: C_21  and  O_22
REMARK   12  A    between atoms: O_22  and  C_23
REMARK   13  A    between atoms: C_23  and  C_24
REMARK   14  A    between atoms: C_27  and  O_28
REMARK   15  A    between atoms: O_28  and  C_29
REMARK   16  A    between atoms: C_31  and  C_32
REMARK   17  A    between atoms: C_32  and  O_33
REMARK   18  A    between atoms: O_33  and  C_34
REMARK   19  A    between atoms: C_34  and  C_35
REMARK   20  A    between atoms: C_38  and  O_39
REMARK   21  A    between atoms: O_39  and  C_40
REMARK   22  A    between atoms: C_40  and  C_41
REMARK   23  A    between atoms: C_44  and  O_45
REMARK   24  A    between atoms: O_45  and  C_46
REMARK   25  A    between atoms: C_46  and  C_47
REMARK   26  A    between atoms: C_50  and  O_51
REMARK   27  A    between atoms: O_51  and  C_52
REMARK   28  A    between atoms: C_52  and  C_53
REMARK                            x       y       z     vdW  Elec       q    Type
REMARK                         _______ _______ _______ _____ _____    ______ ____
ROOT
ATOM      1  O   UNL     1       2.307   5.726  -5.878  0.00  0.00    -0.326 OA
ENDROOT
BRANCH   1   2
ATOM      2  C   UNL     1       3.357   4.889  -6.641  0.00  0.00    +0.266 C 
ATOM      3  C   UNL     1       4.259   6.274  -7.123  0.00  0.00    +0.201 C 
ATOM      4  C   UNL     1       5.038   5.246  -8.229  0.00  0.00    +0.177 C 
ATOM      5  C   UNL     1       4.134   5.819  -9.536  0.00  0.00    +0.174 C 
ATOM      6  C   UNL     1       2.517   5.541  -9.034  0.00  0.00    +0.177 C 
ATOM      7  O   UNL     1       2.653   4.638  -7.907  0.00  0.00    -0.326 OA
BRANCH   4   8
ATOM      8  O   UNL     1       5.990   6.331  -8.628  0.00  0.00    -0.348 OA
BRANCH   8   9
ATOM      9  C   UNL     1       7.037   6.106  -9.273  0.00  0.00    +0.175 C 
BRANCH   9  10
ATOM     10  C   UNL     1       7.294   7.172 -10.503  0.00  0.00    +0.181 C 
ATOM     11  O   UNL     1       8.510   7.786  -9.816  0.00  0.00    -0.220 OA
ATOM     12  C   UNL     1       8.275   6.118 -11.319  0.00  0.00    +0.038 C 
ENDBRANCH   9  10
ENDBRANCH   8   9
ENDBRANCH   4   8
BRANCH   5  13
ATOM     13  O   UNL     1       4.167   4.516 -10.278  0.00  0.00    -0.348 OA
BRANCH  13  14
ATOM     14  C   UNL     1       4.772   4.787 -11.537  0.00  0.00    +0.175 C 
BRANCH  14  15
ATOM     15  C   UNL     1       4.112   6.233 -11.986  0.00  0.00    +0.181 C 
ATOM     16  O   UNL     1       5.158   6.466 -13.061  0.00  0.00    -0.220 OA
ATOM     17  C   UNL     1       3.062   5.502 -13.039  0.00  0.00    +0.038 C 
ENDBRANCH  14  15
ENDBRANCH  13  14
ENDBRANCH   5  13
BRANCH   3  18
ATOM     18  O   UNL     1       5.173   6.042  -5.974  0.00  0.00    -0.346 OA
BRANCH  18  19
ATOM     19  C   UNL     1       5.266   7.201  -5.246  0.00  0.00    +0.175 C 
BRANCH  19  20
ATOM     20  C   UNL     1       5.782   6.751  -3.761  0.00  0.00    +0.181 C 
ATOM     21  O   UNL     1       7.013   7.636  -3.879  0.00  0.00    -0.220 OA
ATOM     22  C   UNL     1       4.903   7.979  -3.062  0.00  0.00    +0.038 C 
ENDBRANCH  19  20
ENDBRANCH  18  19
ENDBRANCH   3  18
BRANCH   6  23
ATOM     23  C   UNL     1       2.390   7.013  -8.279  0.00  0.00    +0.174 C 
BRANCH  23  24
ATOM     24  O   UNL     1       1.198   7.414  -8.917  0.00  0.00    -0.348 OA
BRANCH  24  25
ATOM     25  C   UNL     1       1.177   6.946 -10.182  0.00  0.00    +0.175 C 
BRANCH  25  26
ATOM     26  C   UNL     1      -0.368   6.805 -10.729  0.00  0.00    +0.181 C 
ATOM     27  O   UNL     1       0.015   7.365 -12.098  0.00  0.00    -0.220 OA
ATOM     28  C   UNL     1      -0.253   5.256 -11.301  0.00  0.00    +0.038 C 
ENDBRANCH  25  26
ENDBRANCH  24  25
ENDBRANCH  23  24
ENDBRANCH   6  23
ENDBRANCH   1   2
BRANCH   1  30
ATOM     29  C   UNL     1      -0.052   5.058  -5.572  0.00  0.00    +0.177 C 
ATOM     30  C   UNL     1       1.548   4.458  -5.603  0.00  0.00    +0.177 C 
ATOM     31  C   UNL     1       1.625   4.384  -3.899  0.00  0.00    +0.177 C 
ATOM     32  C   UNL     1       0.354   5.446  -3.514  0.00  0.00    +0.201 C 
ATOM     33  C   UNL     1       0.909   6.841  -4.333  0.00  0.00    +0.266 C 
ATOM     34  O   UNL     1       0.261   6.517  -5.670  0.00  0.00    -0.326 OA
BRANCH  31  35
ATOM     35  O   UNL     1       2.782   5.306  -3.675  0.00  0.00    -0.348 OA
BRANCH  35  36
ATOM     36  C   UNL     1       3.572   4.463  -2.912  0.00  0.00    +0.175 C 
BRANCH  36  37
ATOM     37  C   UNL     1       3.602   4.976  -1.355  0.00  0.00    +0.181 C 
ATOM     38  O   UNL     1       2.886   3.751  -0.814  0.00  0.00    -0.220 OA
ATOM     39  C   UNL     1       5.069   4.251  -1.111  0.00  0.00    +0.038 C 
ENDBRANCH  36  37
ENDBRANCH  35  36
ENDBRANCH  31  35
BRANCH  32  40
ATOM     40  O   UNL     1       0.983   5.810  -2.205  0.00  0.00    -0.346 OA
BRANCH  40  41
ATOM     41  C   UNL     1       0.116   5.694  -1.196  0.00  0.00    +0.175 C 
BRANCH  41  42
ATOM     42  C   UNL     1       0.583   6.538   0.124  0.00  0.00    +0.181 C 
ATOM     43  O   UNL     1       1.486   7.449  -0.697  0.00  0.00    -0.220 OA
ATOM     44  C   UNL     1      -0.683   7.588  -0.003  0.00  0.00    +0.038 C 
ENDBRANCH  41  42
ENDBRANCH  40  41
ENDBRANCH  32  40
BRANCH  29  45
ATOM     45  C   UNL     1      -0.237   4.908  -7.193  0.00  0.00    +0.174 C 
BRANCH  45  46
ATOM     46  O   UNL     1      -1.654   4.983  -7.293  0.00  0.00    -0.348 OA
BRANCH  46  47
ATOM     47  C   UNL     1      -2.289   4.304  -6.264  0.00  0.00    +0.175 C 
BRANCH  47  49
ATOM     48  C   UNL     1      -3.173   4.951  -4.162  0.00  0.00    +0.038 C 
ATOM     49  C   UNL     1      -3.468   5.327  -5.737  0.00  0.00    +0.181 C 
ATOM     50  O   UNL     1      -4.530   4.253  -5.854  0.00  0.00    -0.220 OA
ENDBRANCH  47  49
ENDBRANCH  46  47
ENDBRANCH  45  46
ENDBRANCH  29  45
BRANCH  33  51
ATOM     51  O   UNL     1      -0.353   7.563  -3.861  0.00  0.00    -0.326 OA
BRANCH  51  52
ATOM     52  C   UNL     1      -0.940   8.131  -4.949  0.00  0.00    +0.178 C 
BRANCH  52  53
ATOM     53  C   UNL     1      -2.222   9.015  -4.455  0.00  0.00    +0.182 C 
ATOM     54  O   UNL     1      -3.164   8.173  -5.301  0.00  0.00    -0.220 OA
ATOM     55  C   UNL     1      -2.503   8.056  -3.140  0.00  0.00    +0.038 C 
ENDBRANCH  52  53
ENDBRANCH  51  52
ENDBRANCH  33  51
ENDBRANCH   1  30
TORSDOF 28
ENDMDL
MODEL 9
REMARK VINA RESULT:      -3.5      2.654      9.211
REMARK  Name = 
REMARK  28 active torsions:
REMARK  status: ('A' for Active; 'I' for Inactive)
REMARK    1  A    between atoms: C_2  and  C_4
REMARK    2  A    between atoms: C_4  and  O_5
REMARK    3  A    between atoms: O_5  and  C_6
REMARK    4  A    between atoms: C_6  and  C_7
REMARK    5  A    between atoms: C_9  and  O_10
REMARK    6  A    between atoms: O_10  and  C_11
REMARK    7  A    between atoms: C_11  and  C_12
REMARK    8  A    between atoms: C_15  and  O_16
REMARK    9  A    between atoms: O_16  and  C_17
REMARK   10  A    between atoms: C_17  and  C_18
REMARK   11  A    between atoms: C_21  and  O_22
REMARK   12  A    between atoms: O_22  and  C_23
REMARK   13  A    between atoms: C_23  and  C_24
REMARK   14  A    between atoms: C_27  and  O_28
REMARK   15  A    between atoms: O_28  and  C_29
REMARK   16  A    between atoms: C_31  and  C_32
REMARK   17  A    between atoms: C_32  and  O_33
REMARK   18  A    between atoms: O_33  and  C_34
REMARK   19  A    between atoms: C_34  and  C_35
REMARK   20  A    between atoms: C_38  and  O_39
REMARK   21  A    between atoms: O_39  and  C_40
REMARK   22  A    between atoms: C_40  and  C_41
REMARK   23  A    between atoms: C_44  and  O_45
REMARK   24  A    between atoms: O_45  and  C_46
REMARK   25  A    between atoms: C_46  and  C_47
REMARK   26  A    between atoms: C_50  and  O_51
REMARK   27  A    between atoms: O_51  and  C_52
REMARK   28  A    between atoms: C_52  and  C_53
REMARK                            x       y       z     vdW  Elec       q    Type
REMARK                         _______ _______ _______ _____ _____    ______ ____
ROOT
ATOM      1  O   UNL     1       2.724   6.050  -7.195  0.00  0.00    -0.326 OA
ENDROOT
BRANCH   1   2
ATOM      2  C   UNL     1       2.615   6.821  -8.529  0.00  0.00    +0.266 C 
ATOM      3  C   UNL     1       2.717   5.390  -9.482  0.00  0.00    +0.201 C 
ATOM      4  C   UNL     1       3.008   6.420 -10.801  0.00  0.00    +0.177 C 
ATOM      5  C   UNL     1       4.668   6.108 -10.794  0.00  0.00    +0.174 C 
ATOM      6  C   UNL     1       5.131   6.536  -9.198  0.00  0.00    +0.177 C 
ATOM      7  O   UNL     1       3.998   7.291  -8.698  0.00  0.00    -0.326 OA
BRANCH   4   8
ATOM      8  O   UNL     1       2.966   5.270 -11.760  0.00  0.00    -0.348 OA
BRANCH   8   9
ATOM      9  C   UNL     1       3.057   5.421 -12.997  0.00  0.00    +0.175 C 
BRANCH   9  10
ATOM     10  C   UNL     1       1.901   6.414 -13.625  0.00  0.00    +0.181 C 
ATOM     11  O   UNL     1       2.664   6.595 -14.935  0.00  0.00    -0.220 OA
ATOM     12  C   UNL     1       1.057   5.151 -14.280  0.00  0.00    +0.038 C 
ENDBRANCH   9  10
ENDBRANCH   8   9
ENDBRANCH   4   8
BRANCH   5  13
ATOM     13  O   UNL     1       5.042   7.467 -11.307  0.00  0.00    -0.348 OA
BRANCH  13  14
ATOM     14  C   UNL     1       6.273   7.307 -12.003  0.00  0.00    +0.175 C 
BRANCH  14  15
ATOM     15  C   UNL     1       5.823   6.636 -13.445  0.00  0.00    +0.181 C 
ATOM     16  O   UNL     1       6.261   7.855 -14.238  0.00  0.00    -0.220 OA
ATOM     17  C   UNL     1       7.286   5.881 -13.625  0.00  0.00    +0.038 C 
ENDBRANCH  14  15
ENDBRANCH  13  14
ENDBRANCH   5  13
BRANCH   3  18
ATOM     18  O   UNL     1       1.233   5.383  -9.573  0.00  0.00    -0.346 OA
BRANCH  18  19
ATOM     19  C   UNL     1       0.816   4.103  -9.843  0.00  0.00    +0.175 C 
BRANCH  19  20
ATOM     20  C   UNL     1       0.041   4.184 -11.280  0.00  0.00    +0.181 C 
ATOM     21  O   UNL     1      -1.203   3.539 -10.687  0.00  0.00    -0.220 OA
ATOM     22  C   UNL     1      -0.516   5.710 -10.917  0.00  0.00    +0.038 C 
ENDBRANCH  19  20
ENDBRANCH  18  19
ENDBRANCH   3  18
BRANCH   6  23
ATOM     23  C   UNL     1       4.826   5.021  -8.593  0.00  0.00    +0.174 C 
BRANCH  23  24
ATOM     24  O   UNL     1       6.175   4.637  -8.444  0.00  0.00    -0.348 OA
BRANCH  24  25
ATOM     25  C   UNL     1       6.981   5.676  -8.746  0.00  0.00    +0.175 C 
BRANCH  25  26
ATOM     26  C   UNL     1       8.383   5.150  -9.428  0.00  0.00    +0.181 C 
ATOM     27  O   UNL     1       7.640   4.597 -10.643  0.00  0.00    -0.220 OA
ATOM     28  C   UNL     1       8.754   6.537 -10.253  0.00  0.00    +0.038 C 
ENDBRANCH  25  26
ENDBRANCH  24  25
ENDBRANCH  23  24
ENDBRANCH   6  23
ENDBRANCH   1   2
BRANCH   1  30
ATOM     29  C   UNL     1       3.229   6.999  -4.970  0.00  0.00    +0.177 C 
ATOM     30  C   UNL     1       2.482   7.343  -6.469  0.00  0.00    +0.177 C 
ATOM     31  C   UNL     1       0.921   7.080  -5.828  0.00  0.00    +0.177 C 
ATOM     32  C   UNL     1       1.334   6.170  -4.451  0.00  0.00    +0.201 C 
ATOM     33  C   UNL     1       2.170   4.887  -5.214  0.00  0.00    +0.266 C 
ATOM     34  O   UNL     1       3.536   5.554  -5.207  0.00  0.00    -0.326 OA
BRANCH  31  35
ATOM     35  O   UNL     1       0.482   5.966  -6.726  0.00  0.00    -0.348 OA
BRANCH  35  36
ATOM     36  C   UNL     1      -0.722   6.505  -7.146  0.00  0.00    +0.175 C 
BRANCH  36  37
ATOM     37  C   UNL     1      -1.758   5.308  -7.568  0.00  0.00    +0.181 C 
ATOM     38  O   UNL     1      -1.228   4.326  -6.539  0.00  0.00    -0.220 OA
ATOM     39  C   UNL     1      -2.886   5.860  -6.490  0.00  0.00    +0.038 C 
ENDBRANCH  36  37
ENDBRANCH  35  36
ENDBRANCH  31  35
BRANCH  32  40
ATOM     40  O   UNL     1       0.008   5.473  -4.449  0.00  0.00    -0.346 OA
BRANCH  40  41
ATOM     41  C   UNL     1      -0.554   5.493  -3.238  0.00  0.00    +0.175 C 
BRANCH  41  42
ATOM     42  C   UNL     1      -2.184   5.386  -3.309  0.00  0.00    +0.181 C 
ATOM     43  O   UNL     1      -2.286   4.989  -1.842  0.00  0.00    -0.220 OA
ATOM     44  C   UNL     1      -2.383   6.983  -2.946  0.00  0.00    +0.038 C 
ENDBRANCH  41  42
ENDBRANCH  40  41
ENDBRANCH  32  40
BRANCH  29  45
ATOM     45  C   UNL     1       4.705   7.480  -5.493  0.00  0.00    +0.174 C 
BRANCH  45  46
ATOM     46  O   UNL     1       5.101   8.307  -4.404  0.00  0.00    -0.348 OA
BRANCH  46  47
ATOM     47  C   UNL     1       4.988   7.657  -3.184  0.00  0.00    +0.175 C 
BRANCH  47  49
ATOM     48  C   UNL     1       4.720   7.868  -0.838  0.00  0.00    +0.038 C 
ATOM     49  C   UNL     1       4.346   8.776  -2.160  0.00  0.00    +0.181 C 
ATOM     50  O   UNL     1       2.966   8.159  -2.262  0.00  0.00    -0.220 OA
ENDBRANCH  47  49
ENDBRANCH  46  47
ENDBRANCH  45  46
ENDBRANCH  29  45
BRANCH  33  51
ATOM     51  O   UNL     1       2.421   4.290  -3.830  0.00  0.00    -0.326 OA
BRANCH  51  52
ATOM     52  C   UNL     1       3.764   4.287  -3.614  0.00  0.00    +0.178 C 
BRANCH  52  53
ATOM     53  C   UNL     1       4.058   4.865  -2.114  0.00  0.00    +0.182 C 
ATOM     54  O   UNL     1       2.567   5.005  -1.846  0.00  0.00    -0.220 OA
ATOM     55  C   UNL     1       4.068   3.363  -1.428  0.00  0.00    +0.038 C 
ENDBRANCH  52  53
ENDBRANCH  51  52
ENDBRANCH  33  51
ENDBRANCH   1  30
TORSDOF 28
ENDMDL
