MODEL 1
REMARK VINA RESULT:      -5.4      0.000      0.000
REMARK  Name = 
REMARK  1 active torsions:
REMARK  status: ('A' for Active; 'I' for Inactive)
REMARK    1  A    between atoms: C_4  and  C_5
REMARK                            x       y       z     vdW  Elec       q    Type
REMARK                         _______ _______ _______ _____ _____    ______ ____
ROOT
ATOM      1  C   UNL     1       6.215   6.366 -10.320  0.00  0.00    -0.021 A 
ATOM      2  C   UNL     1       6.479   5.671  -9.185  0.00  0.00    -0.004 A 
ATOM      3  C   UNL     1       5.371   5.158  -8.517  0.00  0.00    -0.000 A 
ATOM      4  C   UNL     1       4.144   5.182  -9.170  0.00  0.00    -0.000 A 
ATOM      5  C   UNL     1       3.936   6.364  -9.874  0.00  0.00    -0.000 A 
ATOM      6  C   UNL     1       5.010   6.957 -10.535  0.00  0.00    -0.004 A 
ENDROOT
BRANCH   1   9
ATOM      7  N   UNL     1       9.290   5.900 -12.377  0.00  0.00    -0.133 NA
ATOM      8  C   UNL     1       7.992   5.356 -11.653  0.00  0.00    +0.096 C 
ATOM      9  C   UNL     1       7.470   6.923 -11.167  0.00  0.00    +0.041 C 
ATOM     10  C   UNL     1       6.922   6.252 -12.648  0.00  0.00    +0.025 C 
ENDBRANCH   1   9
TORSDOF 1
ENDMDL
MODEL 2
REMARK VINA RESULT:      -5.2      2.840      4.253
REMARK  Name = 
REMARK  1 active torsions:
REMARK  status: ('A' for Active; 'I' for Inactive)
REMARK    1  A    between atoms: C_4  and  C_5
REMARK                            x       y       z     vdW  Elec       q    Type
REMARK                         _______ _______ _______ _____ _____    ______ ____
ROOT
ATOM      1  C   UNL     1       5.241   6.142  -9.943  0.00  0.00    -0.021 A 
ATOM      2  C   UNL     1       6.463   5.637  -9.639  0.00  0.00    -0.004 A 
ATOM      3  C   UNL     1       7.552   6.384 -10.078  0.00  0.00    -0.000 A 
ATOM      4  C   UNL     1       7.316   7.667 -10.558  0.00  0.00    -0.000 A 
ATOM      5  C   UNL     1       6.172   7.740 -11.346  0.00  0.00    -0.000 A 
ATOM      6  C   UNL     1       5.054   6.989 -10.989  0.00  0.00    -0.004 A 
ENDROOT
BRANCH   1   9
ATOM      7  N   UNL     1       3.071   4.829  -7.208  0.00  0.00    -0.133 NA
ATOM      8  C   UNL     1       4.271   5.711  -7.745  0.00  0.00    +0.096 C 
ATOM      9  C   UNL     1       3.946   5.349  -9.397  0.00  0.00    +0.041 C 
ATOM     10  C   UNL     1       3.253   6.738  -8.666  0.00  0.00    +0.025 C 
ENDBRANCH   1   9
TORSDOF 1
ENDMDL
MODEL 3
REMARK VINA RESULT:      -5.2      2.628      4.284
REMARK  Name = 
REMARK  1 active torsions:
REMARK  status: ('A' for Active; 'I' for Inactive)
REMARK    1  A    between atoms: C_4  and  C_5
REMARK                            x       y       z     vdW  Elec       q    Type
REMARK                         _______ _______ _______ _____ _____    ______ ____
ROOT
ATOM      1  C   UNL     1       5.498   6.387 -10.031  0.00  0.00    -0.021 A 
ATOM      2  C   UNL     1       5.744   7.359 -10.945  0.00  0.00    -0.004 A 
ATOM      3  C   UNL     1       6.999   7.321 -11.545  0.00  0.00    -0.000 A 
ATOM      4  C   UNL     1       7.782   6.189 -11.355  0.00  0.00    -0.000 A 
ATOM      5  C   UNL     1       7.718   5.709 -10.050  0.00  0.00    -0.000 A 
ATOM      6  C   UNL     1       6.502   5.751  -9.372  0.00  0.00    -0.004 A 
ENDROOT
BRANCH   1   9
ATOM      7  N   UNL     1       1.830   5.720 -10.117  0.00  0.00    -0.133 NA
ATOM      8  C   UNL     1       3.284   5.642 -10.737  0.00  0.00    +0.096 C 
ATOM      9  C   UNL     1       4.033   6.347  -9.356  0.00  0.00    +0.041 C 
ATOM     10  C   UNL     1       3.889   4.642  -9.483  0.00  0.00    +0.025 C 
ENDBRANCH   1   9
TORSDOF 1
ENDMDL
MODEL 4
REMARK VINA RESULT:      -5.2      6.647      8.171
REMARK  Name = 
REMARK  1 active torsions:
REMARK  status: ('A' for Active; 'I' for Inactive)
REMARK    1  A    between atoms: C_4  and  C_5
REMARK                            x       y       z     vdW  Elec       q    Type
REMARK                         _______ _______ _______ _____ _____    ______ ____
ROOT
ATOM      1  C   UNL     1      -0.079   6.087  -5.994  0.00  0.00    -0.021 A 
ATOM      2  C   UNL     1      -0.321   7.158  -5.197  0.00  0.00    -0.004 A 
ATOM      3  C   UNL     1      -1.645   7.338  -4.811  0.00  0.00    -0.000 A 
ATOM      4  C   UNL     1      -2.545   6.307  -5.055  0.00  0.00    -0.000 A 
ATOM      5  C   UNL     1      -2.350   5.711  -6.296  0.00  0.00    -0.000 A 
ATOM      6  C   UNL     1      -1.050   5.533  -6.767  0.00  0.00    -0.004 A 
ENDROOT
BRANCH   1   9
ATOM      7  N   UNL     1       3.420   5.039  -5.239  0.00  0.00    -0.133 NA
ATOM      8  C   UNL     1       1.893   5.205  -4.858  0.00  0.00    +0.096 C 
ATOM      9  C   UNL     1       1.451   5.795  -6.413  0.00  0.00    +0.041 C 
ATOM     10  C   UNL     1       1.354   4.117  -6.068  0.00  0.00    +0.025 C 
ENDBRANCH   1   9
TORSDOF 1
ENDMDL
MODEL 5
REMARK VINA RESULT:      -5.1      8.455     10.424
REMARK  Name = 
REMARK  1 active torsions:
REMARK  status: ('A' for Active; 'I' for Inactive)
REMARK    1  A    between atoms: C_4  and  C_5
REMARK                            x       y       z     vdW  Elec       q    Type
REMARK                         _______ _______ _______ _____ _____    ______ ____
ROOT
ATOM      1  C   UNL     1      -1.439   6.621  -5.214  0.00  0.00    -0.021 A 
ATOM      2  C   UNL     1      -2.046   5.898  -6.189  0.00  0.00    -0.004 A 
ATOM      3  C   UNL     1      -1.197   5.248  -7.079  0.00  0.00    -0.000 A 
ATOM      4  C   UNL     1       0.157   5.186  -6.766  0.00  0.00    -0.000 A 
ATOM      5  C   UNL     1       0.635   6.376  -6.228  0.00  0.00    -0.000 A 
ATOM      6  C   UNL     1      -0.176   7.102  -5.359  0.00  0.00    -0.004 A 
ENDROOT
BRANCH   1   9
ATOM      7  N   UNL     1      -3.877   6.556  -2.393  0.00  0.00    -0.133 NA
ATOM      8  C   UNL     1      -2.861   5.855  -3.385  0.00  0.00    +0.096 C 
ATOM      9  C   UNL     1      -2.379   7.337  -4.116  0.00  0.00    +0.041 C 
ATOM     10  C   UNL     1      -1.504   6.710  -2.780  0.00  0.00    +0.025 C 
ENDBRANCH   1   9
TORSDOF 1
ENDMDL
MODEL 6
REMARK VINA RESULT:      -5.0      5.939      7.629
REMARK  Name = 
REMARK  1 active torsions:
REMARK  status: ('A' for Active; 'I' for Inactive)
REMARK    1  A    between atoms: C_4  and  C_5
REMARK                            x       y       z     vdW  Elec       q    Type
REMARK                         _______ _______ _______ _____ _____    ______ ____
ROOT
ATOM      1  C   UNL     1      -0.061   6.006  -6.331  0.00  0.00    -0.021 A 
ATOM      2  C   UNL     1      -1.118   5.266  -6.752  0.00  0.00    -0.004 A 
ATOM      3  C   UNL     1      -2.363   5.662  -6.275  0.00  0.00    -0.000 A 
ATOM      4  C   UNL     1      -2.457   6.889  -5.628  0.00  0.00    -0.000 A 
ATOM      5  C   UNL     1      -1.377   7.132  -4.785  0.00  0.00    -0.000 A 
ATOM      6  C   UNL     1      -0.104   6.726  -5.180  0.00  0.00    -0.004 A 
ENDROOT
BRANCH   1   9
ATOM      7  N   UNL     1       2.420   5.677  -9.096  0.00  0.00    -0.133 NA
ATOM      8  C   UNL     1       1.033   6.163  -8.506  0.00  0.00    +0.096 C 
ATOM      9  C   UNL     1       1.396   5.628  -6.911  0.00  0.00    +0.041 C 
ATOM     10  C   UNL     1       1.758   7.237  -7.384  0.00  0.00    +0.025 C 
ENDBRANCH   1   9
TORSDOF 1
ENDMDL
MODEL 7
REMARK VINA RESULT:      -4.9      7.686      9.629
REMARK  Name = 
REMARK  1 active torsions:
REMARK  status: ('A' for Active; 'I' for Inactive)
REMARK    1  A    between atoms: C_4  and  C_5
REMARK                            x       y       z     vdW  Elec       q    Type
REMARK                         _______ _______ _______ _____ _____    ______ ____
ROOT
ATOM      1  C   UNL     1      -1.036   5.600  -5.617  0.00  0.00    -0.021 A 
ATOM      2  C   UNL     1       0.185   5.190  -5.189  0.00  0.00    -0.004 A 
ATOM      3  C   UNL     1       1.166   5.085  -6.169  0.00  0.00    -0.000 A 
ATOM      4  C   UNL     1       0.901   5.627  -7.422  0.00  0.00    -0.000 A 
ATOM      5  C   UNL     1      -0.404   5.389  -7.841  0.00  0.00    -0.000 A 
ATOM      6  C   UNL     1      -1.436   5.438  -6.906  0.00  0.00    -0.004 A 
ENDROOT
BRANCH   1   9
ATOM      7  N   UNL     1      -2.487   7.270  -2.614  0.00  0.00    -0.133 NA
ATOM      8  C   UNL     1      -1.416   7.154  -3.774  0.00  0.00    +0.096 C 
ATOM      9  C   UNL     1      -2.190   5.802  -4.508  0.00  0.00    +0.041 C 
ATOM     10  C   UNL     1      -2.570   7.395  -5.019  0.00  0.00    +0.025 C 
ENDBRANCH   1   9
TORSDOF 1
ENDMDL
MODEL 8
REMARK VINA RESULT:      -4.8      7.670      9.328
REMARK  Name = 
REMARK  1 active torsions:
REMARK  status: ('A' for Active; 'I' for Inactive)
REMARK    1  A    between atoms: C_4  and  C_5
REMARK                            x       y       z     vdW  Elec       q    Type
REMARK                         _______ _______ _______ _____ _____    ______ ____
ROOT
ATOM      1  C   UNL     1      -1.018   6.184  -4.654  0.00  0.00    -0.021 A 
ATOM      2  C   UNL     1      -0.407   5.751  -3.523  0.00  0.00    -0.004 A 
ATOM      3  C   UNL     1      -1.241   5.511  -2.436  0.00  0.00    -0.000 A 
ATOM      4  C   UNL     1      -2.614   5.495  -2.656  0.00  0.00    -0.000 A 
ATOM      5  C   UNL     1      -3.027   6.495  -3.531  0.00  0.00    -0.000 A 
ATOM      6  C   UNL     1      -2.221   6.817  -4.621  0.00  0.00    -0.004 A 
ENDROOT
BRANCH   1   9
ATOM      7  N   UNL     1       1.329   4.999  -7.298  0.00  0.00    -0.133 NA
ATOM      8  C   UNL     1       0.334   4.750  -6.093  0.00  0.00    +0.096 C 
ATOM      9  C   UNL     1      -0.102   6.410  -5.962  0.00  0.00    +0.041 C 
ATOM     10  C   UNL     1      -1.028   5.349  -6.943  0.00  0.00    +0.025 C 
ENDBRANCH   1   9
TORSDOF 1
ENDMDL
MODEL 9
REMARK VINA RESULT:      -4.8      3.105      4.598
REMARK  Name = 
REMARK  1 active torsions:
REMARK  status: ('A' for Active; 'I' for Inactive)
REMARK    1  A    between atoms: C_4  and  C_5
REMARK                            x       y       z     vdW  Elec       q    Type
REMARK                         _______ _______ _______ _____ _____    ______ ____
ROOT
ATOM      1  C   UNL     1       4.839   5.769  -9.088  0.00  0.00    -0.021 A 
ATOM      2  C   UNL     1       6.081   5.234  -8.975  0.00  0.00    -0.004 A 
ATOM      3  C   UNL     1       7.076   5.850  -9.727  0.00  0.00    -0.000 A 
ATOM      4  C   UNL     1       6.785   7.073 -10.322  0.00  0.00    -0.000 A 
ATOM      5  C   UNL     1       5.503   7.113 -10.861  0.00  0.00    -0.000 A 
ATOM      6  C   UNL     1       4.462   6.483 -10.181  0.00  0.00    -0.004 A 
ENDROOT
BRANCH   1   9
ATOM      7  N   UNL     1       3.192   5.064  -5.817  0.00  0.00    -0.133 NA
ATOM      8  C   UNL     1       4.274   5.792  -6.714  0.00  0.00    +0.096 C 
ATOM      9  C   UNL     1       3.664   5.133  -8.183  0.00  0.00    +0.041 C 
ATOM     10  C   UNL     1       3.106   6.656  -7.623  0.00  0.00    +0.025 C 
ENDBRANCH   1   9
TORSDOF 1
ENDMDL
