MODEL 1
REMARK VINA RESULT:      -5.8      0.000      0.000
REMARK  Name = 
REMARK  2 active torsions:
REMARK  status: ('A' for Active; 'I' for Inactive)
REMARK    1  A    between atoms: C_2  and  C_3
REMARK    2  A    between atoms: C_6  and  S_7
REMARK                            x       y       z     vdW  Elec       q    Type
REMARK                         _______ _______ _______ _____ _____    ______ ____
ROOT
ATOM      1  C   UNL     1       7.431   6.259 -11.071  0.00  0.00    -0.003 A 
ATOM      2  C   UNL     1       6.459   7.157 -11.469  0.00  0.00    -0.001 A 
ATOM      3  C   UNL     1       5.244   7.188 -10.801  0.00  0.00    +0.020 A 
ATOM      4  C   UNL     1       4.979   6.391  -9.695  0.00  0.00    +0.125 A 
ATOM      5  C   UNL     1       6.049   5.614  -9.265  0.00  0.00    +0.020 A 
ATOM      6  C   UNL     1       7.322   5.788  -9.773  0.00  0.00    -0.001 A 
ENDROOT
BRANCH   4   7
ATOM      7  S   UNL     1       3.378   5.702  -9.434  0.00  0.00    +0.093 S 
ATOM      8  O   UNL     1       2.651   5.710 -10.744  0.00  0.00    -0.150 OA
ATOM      9  O   UNL     1       2.636   6.548  -8.427  0.00  0.00    -0.150 OA
ATOM     10  N   UNL     1       3.478   4.059  -8.921  0.00  0.00    +0.039 NA
ENDBRANCH   4   7
BRANCH   1  12
ATOM     11  N   UNL     1       7.947   4.828 -12.914  0.00  0.00    -0.126 NA
ATOM     12  C   UNL     1       8.512   5.783 -11.990  0.00  0.00    +0.136 C 
ENDBRANCH   1  12
TORSDOF 2
ENDMDL
MODEL 2
REMARK VINA RESULT:      -5.6      6.834      8.990
REMARK  Name = 
REMARK  2 active torsions:
REMARK  status: ('A' for Active; 'I' for Inactive)
REMARK    1  A    between atoms: C_2  and  C_3
REMARK    2  A    between atoms: C_6  and  S_7
REMARK                            x       y       z     vdW  Elec       q    Type
REMARK                         _______ _______ _______ _____ _____    ______ ____
ROOT
ATOM      1  C   UNL     1      -2.264   5.827  -4.693  0.00  0.00    -0.003 A 
ATOM      2  C   UNL     1      -1.179   6.626  -4.389  0.00  0.00    -0.001 A 
ATOM      3  C   UNL     1      -0.104   6.682  -5.264  0.00  0.00    +0.020 A 
ATOM      4  C   UNL     1      -0.097   6.012  -6.480  0.00  0.00    +0.125 A 
ATOM      5  C   UNL     1      -1.275   5.341  -6.785  0.00  0.00    +0.020 A 
ATOM      6  C   UNL     1      -2.422   5.511  -6.033  0.00  0.00    -0.001 A 
ENDROOT
BRANCH   4   7
ATOM      7  S   UNL     1       1.381   5.286  -7.108  0.00  0.00    +0.093 S 
ATOM      8  O   UNL     1       2.503   6.256  -6.890  0.00  0.00    -0.150 OA
ATOM      9  O   UNL     1       1.210   5.021  -8.586  0.00  0.00    -0.150 OA
ATOM     10  N   UNL     1       1.785   3.844  -6.255  0.00  0.00    +0.039 NA
ENDBRANCH   4   7
BRANCH   1  12
ATOM     11  N   UNL     1      -2.411   4.879  -2.505  0.00  0.00    -0.126 NA
ATOM     12  C   UNL     1      -3.191   5.295  -3.647  0.00  0.00    +0.136 C 
ENDBRANCH   1  12
TORSDOF 2
ENDMDL
MODEL 3
REMARK VINA RESULT:      -5.6      3.092      4.647
REMARK  Name = 
REMARK  2 active torsions:
REMARK  status: ('A' for Active; 'I' for Inactive)
REMARK    1  A    between atoms: C_2  and  C_3
REMARK    2  A    between atoms: C_6  and  S_7
REMARK                            x       y       z     vdW  Elec       q    Type
REMARK                         _______ _______ _______ _____ _____    ______ ____
ROOT
ATOM      1  C   UNL     1       4.471   5.668  -8.774  0.00  0.00    -0.003 A 
ATOM      2  C   UNL     1       5.824   5.391  -8.735  0.00  0.00    -0.001 A 
ATOM      3  C   UNL     1       6.599   5.604  -9.866  0.00  0.00    +0.020 A 
ATOM      4  C   UNL     1       6.081   6.152 -11.032  0.00  0.00    +0.125 A 
ATOM      5  C   UNL     1       4.747   6.536 -10.956  0.00  0.00    +0.020 A 
ATOM      6  C   UNL     1       4.068   6.562  -9.753  0.00  0.00    -0.001 A 
ENDROOT
BRANCH   4   7
ATOM      7  S   UNL     1       6.630   5.604 -12.615  0.00  0.00    +0.093 S 
ATOM      8  O   UNL     1       7.710   4.587 -12.404  0.00  0.00    -0.150 OA
ATOM      9  O   UNL     1       7.178   6.785 -13.382  0.00  0.00    -0.150 OA
ATOM     10  N   UNL     1       5.362   4.825 -13.484  0.00  0.00    +0.039 NA
ENDBRANCH   4   7
BRANCH   1  12
ATOM     11  N   UNL     1       2.922   3.867  -8.517  0.00  0.00    -0.126 NA
ATOM     12  C   UNL     1       3.489   5.017  -7.853  0.00  0.00    +0.136 C 
ENDBRANCH   1  12
TORSDOF 2
ENDMDL
MODEL 4
REMARK VINA RESULT:      -5.5      7.784      9.287
REMARK  Name = 
REMARK  2 active torsions:
REMARK  status: ('A' for Active; 'I' for Inactive)
REMARK    1  A    between atoms: C_2  and  C_3
REMARK    2  A    between atoms: C_6  and  S_7
REMARK                            x       y       z     vdW  Elec       q    Type
REMARK                         _______ _______ _______ _____ _____    ______ ____
ROOT
ATOM      1  C   UNL     1      -0.338   5.860  -6.284  0.00  0.00    -0.003 A 
ATOM      2  C   UNL     1      -1.651   5.441  -6.370  0.00  0.00    -0.001 A 
ATOM      3  C   UNL     1      -2.538   5.755  -5.350  0.00  0.00    +0.020 A 
ATOM      4  C   UNL     1      -2.176   6.537  -4.261  0.00  0.00    +0.125 A 
ATOM      5  C   UNL     1      -0.880   7.040  -4.308  0.00  0.00    +0.020 A 
ATOM      6  C   UNL     1      -0.104   6.939  -5.447  0.00  0.00    -0.001 A 
ENDROOT
BRANCH   4   7
ATOM      7  S   UNL     1      -2.809   6.202  -2.651  0.00  0.00    +0.093 S 
ATOM      8  O   UNL     1      -2.640   4.738  -2.383  0.00  0.00    -0.150 OA
ATOM      9  O   UNL     1      -4.274   6.569  -2.612  0.00  0.00    -0.150 OA
ATOM     10  N   UNL     1      -1.919   7.045  -1.439  0.00  0.00    +0.039 NA
ENDBRANCH   4   7
BRANCH   1  12
ATOM     11  N   UNL     1       1.338   4.163  -6.142  0.00  0.00    -0.126 NA
ATOM     12  C   UNL     1       0.776   5.172  -7.008  0.00  0.00    +0.136 C 
ENDBRANCH   1  12
TORSDOF 2
ENDMDL
MODEL 5
REMARK VINA RESULT:      -5.5      2.233      2.845
REMARK  Name = 
REMARK  2 active torsions:
REMARK  status: ('A' for Active; 'I' for Inactive)
REMARK    1  A    between atoms: C_2  and  C_3
REMARK    2  A    between atoms: C_6  and  S_7
REMARK                            x       y       z     vdW  Elec       q    Type
REMARK                         _______ _______ _______ _____ _____    ______ ____
ROOT
ATOM      1  C   UNL     1       6.042   6.142  -9.940  0.00  0.00    -0.003 A 
ATOM      2  C   UNL     1       5.907   5.372  -8.801  0.00  0.00    -0.001 A 
ATOM      3  C   UNL     1       4.731   5.435  -8.067  0.00  0.00    +0.020 A 
ATOM      4  C   UNL     1       3.643   6.199  -8.467  0.00  0.00    +0.125 A 
ATOM      5  C   UNL     1       3.795   6.838  -9.692  0.00  0.00    +0.020 A 
ATOM      6  C   UNL     1       4.858   6.556 -10.529  0.00  0.00    -0.001 A 
ENDROOT
BRANCH   4   7
ATOM      7  S   UNL     1       2.640   7.039  -7.286  0.00  0.00    +0.093 S 
ATOM      8  O   UNL     1       1.476   6.156  -6.956  0.00  0.00    -0.150 OA
ATOM      9  O   UNL     1       2.150   8.334  -7.889  0.00  0.00    -0.150 OA
ATOM     10  N   UNL     1       3.498   7.316  -5.817  0.00  0.00    +0.039 NA
ENDBRANCH   4   7
BRANCH   1  12
ATOM     11  N   UNL     1       8.066   5.365 -10.944  0.00  0.00    -0.126 NA
ATOM     12  C   UNL     1       7.374   6.547 -10.485  0.00  0.00    +0.136 C 
ENDBRANCH   1  12
TORSDOF 2
ENDMDL
MODEL 6
REMARK VINA RESULT:      -5.2      5.894      7.914
REMARK  Name = 
REMARK  2 active torsions:
REMARK  status: ('A' for Active; 'I' for Inactive)
REMARK    1  A    between atoms: C_2  and  C_3
REMARK    2  A    between atoms: C_6  and  S_7
REMARK                            x       y       z     vdW  Elec       q    Type
REMARK                         _______ _______ _______ _____ _____    ______ ____
ROOT
ATOM      1  C   UNL     1      -1.204   5.685  -5.537  0.00  0.00    -0.003 A 
ATOM      2  C   UNL     1      -1.469   5.335  -6.847  0.00  0.00    -0.001 A 
ATOM      3  C   UNL     1      -0.451   5.390  -7.788  0.00  0.00    +0.020 A 
ATOM      4  C   UNL     1       0.855   5.724  -7.456  0.00  0.00    +0.125 A 
ATOM      5  C   UNL     1       1.079   5.928  -6.099  0.00  0.00    +0.020 A 
ATOM      6  C   UNL     1       0.125   5.613  -5.151  0.00  0.00    -0.001 A 
ENDROOT
BRANCH   4   7
ATOM      7  S   UNL     1       1.855   6.679  -8.548  0.00  0.00    +0.093 S 
ATOM      8  O   UNL     1       1.087   6.884  -9.818  0.00  0.00    -0.150 OA
ATOM      9  O   UNL     1       3.132   5.924  -8.834  0.00  0.00    -0.150 OA
ATOM     10  N   UNL     1       2.182   8.241  -7.896  0.00  0.00    +0.039 NA
ENDBRANCH   4   7
BRANCH   1  12
ATOM     11  N   UNL     1      -2.618   7.515  -4.937  0.00  0.00    -0.126 NA
ATOM     12  C   UNL     1      -2.270   6.156  -4.598  0.00  0.00    +0.136 C 
ENDBRANCH   1  12
TORSDOF 2
ENDMDL
MODEL 7
REMARK VINA RESULT:      -5.1      6.589      7.813
REMARK  Name = 
REMARK  2 active torsions:
REMARK  status: ('A' for Active; 'I' for Inactive)
REMARK    1  A    between atoms: C_2  and  C_3
REMARK    2  A    between atoms: C_6  and  S_7
REMARK                            x       y       z     vdW  Elec       q    Type
REMARK                         _______ _______ _______ _____ _____    ______ ____
ROOT
ATOM      1  C   UNL     1       4.330   6.296  -5.210  0.00  0.00    -0.003 A 
ATOM      2  C   UNL     1       4.576   7.448  -4.489  0.00  0.00    -0.001 A 
ATOM      3  C   UNL     1       4.573   7.402  -3.102  0.00  0.00    +0.020 A 
ATOM      4  C   UNL     1       4.394   6.219  -2.396  0.00  0.00    +0.125 A 
ATOM      5  C   UNL     1       4.292   5.078  -3.184  0.00  0.00    +0.020 A 
ATOM      6  C   UNL     1       4.560   5.106  -4.539  0.00  0.00    -0.001 A 
ENDROOT
BRANCH   4   7
ATOM      7  S   UNL     1       3.486   6.191  -0.886  0.00  0.00    +0.093 S 
ATOM      8  O   UNL     1       2.837   4.847  -0.761  0.00  0.00    -0.150 OA
ATOM      9  O   UNL     1       2.431   7.272  -0.926  0.00  0.00    -0.150 OA
ATOM     10  N   UNL     1       4.526   6.380   0.476  0.00  0.00    +0.039 NA
ENDBRANCH   4   7
BRANCH   1  12
ATOM     11  N   UNL     1       2.916   7.446  -6.754  0.00  0.00    -0.126 NA
ATOM     12  C   UNL     1       3.806   6.319  -6.611  0.00  0.00    +0.136 C 
ENDBRANCH   1  12
TORSDOF 2
ENDMDL
MODEL 8
REMARK VINA RESULT:      -5.0      5.595      7.374
REMARK  Name = 
REMARK  2 active torsions:
REMARK  status: ('A' for Active; 'I' for Inactive)
REMARK    1  A    between atoms: C_2  and  C_3
REMARK    2  A    between atoms: C_6  and  S_7
REMARK                            x       y       z     vdW  Elec       q    Type
REMARK                         _______ _______ _______ _____ _____    ______ ____
ROOT
ATOM      1  C   UNL     1       4.413   6.427  -2.571  0.00  0.00    -0.003 A 
ATOM      2  C   UNL     1       4.437   5.162  -3.126  0.00  0.00    -0.001 A 
ATOM      3  C   UNL     1       4.415   5.019  -4.506  0.00  0.00    +0.020 A 
ATOM      4  C   UNL     1       4.434   6.107  -5.369  0.00  0.00    +0.125 A 
ATOM      5  C   UNL     1       4.550   7.345  -4.746  0.00  0.00    +0.020 A 
ATOM      6  C   UNL     1       4.836   7.455  -3.399  0.00  0.00    -0.001 A 
ENDROOT
BRANCH   4   7
ATOM      7  S   UNL     1       3.515   6.090  -6.872  0.00  0.00    +0.093 S 
ATOM      8  O   UNL     1       2.477   5.014  -6.768  0.00  0.00    -0.150 OA
ATOM      9  O   UNL     1       4.453   5.792  -8.019  0.00  0.00    -0.150 OA
ATOM     10  N   UNL     1       2.680   7.578  -7.115  0.00  0.00    +0.039 NA
ENDBRANCH   4   7
BRANCH   1  12
ATOM     11  N   UNL     1       4.110   5.496  -0.392  0.00  0.00    -0.126 NA
ATOM     12  C   UNL     1       3.922   6.689  -1.183  0.00  0.00    +0.136 C 
ENDBRANCH   1  12
TORSDOF 2
ENDMDL
MODEL 9
REMARK VINA RESULT:      -4.9      8.293     10.118
REMARK  Name = 
REMARK  2 active torsions:
REMARK  status: ('A' for Active; 'I' for Inactive)
REMARK    1  A    between atoms: C_2  and  C_3
REMARK    2  A    between atoms: C_6  and  S_7
REMARK                            x       y       z     vdW  Elec       q    Type
REMARK                         _______ _______ _______ _____ _____    ______ ____
ROOT
ATOM      1  C   UNL     1      -2.477   6.946  -2.854  0.00  0.00    -0.003 A 
ATOM      2  C   UNL     1      -1.963   7.985  -3.606  0.00  0.00    -0.001 A 
ATOM      3  C   UNL     1      -1.426   7.722  -4.858  0.00  0.00    +0.020 A 
ATOM      4  C   UNL     1      -1.440   6.455  -5.425  0.00  0.00    +0.125 A 
ATOM      5  C   UNL     1      -2.097   5.485  -4.674  0.00  0.00    +0.020 A 
ATOM      6  C   UNL     1      -2.850   5.816  -3.564  0.00  0.00    -0.001 A 
ENDROOT
BRANCH   4   7
ATOM      7  S   UNL     1      -0.090   5.881  -6.401  0.00  0.00    +0.093 S 
ATOM      8  O   UNL     1       0.909   6.992  -6.508  0.00  0.00    -0.150 OA
ATOM      9  O   UNL     1      -0.599   5.511  -7.775  0.00  0.00    -0.150 OA
ATOM     10  N   UNL     1       0.708   4.551  -5.649  0.00  0.00    +0.039 NA
ENDBRANCH   4   7
BRANCH   1  12
ATOM     11  N   UNL     1      -1.683   8.022  -0.874  0.00  0.00    -0.126 NA
ATOM     12  C   UNL     1      -2.588   7.009  -1.363  0.00  0.00    +0.136 C 
ENDBRANCH   1  12
TORSDOF 2
ENDMDL
