MODEL 1
REMARK VINA RESULT:     -10.7      0.000      0.000
REMARK  Name = 
REMARK  12 active torsions:
REMARK  status: ('A' for Active; 'I' for Inactive)
REMARK    1  A    between atoms: C_2  and  C_35
REMARK    2  A    between atoms: N_3  and  C_4
REMARK    3  A    between atoms: N_7  and  C_8
REMARK    4  A    between atoms: C_8  and  C_9
REMARK    5  A    between atoms: C_9  and  C_10
REMARK    6  A    between atoms: C_10  and  C_11
REMARK    7  A    between atoms: C_11  and  C_12
REMARK    8  A    between atoms: C_12  and  C_13
REMARK    9  A    between atoms: N_15  and  C_16
REMARK   10  A    between atoms: C_16  and  C_17
REMARK   11  A    between atoms: C_40  and  C_41
REMARK   12  A    between atoms: C_44  and  C_45
REMARK                            x       y       z     vdW  Elec       q    Type
REMARK                         _______ _______ _______ _____ _____    ______ ____
ROOT
ATOM      1  C   UNL     1       3.110   6.933  -5.361  0.00  0.00    +0.098 C 
ATOM      2  C   UNL     1       4.147   7.539  -4.478  0.00  0.00    +0.039 C 
ATOM      3  C   UNL     1       5.080   6.577  -3.829  0.00  0.00    +0.074 C 
ATOM      4  N   UNL     1       4.561   5.272  -3.592  0.00  0.00    -0.273 NA
ATOM      5  C   UNL     1       3.795   4.717  -4.675  0.00  0.00    +0.074 C 
ATOM      6  C   UNL     1       2.571   5.613  -4.838  0.00  0.00    +0.039 C 
ENDROOT
BRANCH   1   9
ATOM      7  O   UNL     1       2.371   8.268  -7.761  0.00  0.00    -0.268 OA
ATOM      8  C   UNL     1       2.870   7.106  -7.868  0.00  0.00    +0.265 C 
ATOM      9  N   UNL     1       3.589   6.661  -6.712  0.00  0.00    -0.203 NA
BRANCH   8  10
ATOM     10  C   UNL     1       2.607   6.251  -9.015  0.00  0.00    +0.055 A 
ATOM     11  C   UNL     1       3.336   6.517 -10.169  0.00  0.00    +0.004 A 
ATOM     12  C   UNL     1       2.777   6.142 -11.385  0.00  0.00    +0.000 A 
ATOM     13  C   UNL     1       1.741   5.221 -11.452  0.00  0.00    +0.000 A 
ATOM     14  C   UNL     1       1.198   4.726 -10.274  0.00  0.00    +0.000 A 
ATOM     15  C   UNL     1       1.466   5.469  -9.135  0.00  0.00    +0.005 A 
BRANCH  11  16
ATOM     16  C   UNL     1       4.775   6.771 -10.031  0.00  0.00    +0.000 A 
ATOM     17  C   UNL     1       5.649   5.805  -9.546  0.00  0.00    -0.000 A 
ATOM     18  C   UNL     1       6.887   5.575 -10.133  0.00  0.00    +0.004 A 
ATOM     19  C   UNL     1       7.334   6.395 -11.161  0.00  0.00    +0.071 A 
ATOM     20  C   UNL     1       6.674   7.614 -11.273  0.00  0.00    +0.004 A 
ATOM     21  C   UNL     1       5.359   7.737 -10.842  0.00  0.00    -0.000 A 
BRANCH  19  22
ATOM     22  C   UNL     1       8.164   5.841 -12.276  0.00  0.00    +0.419 C 
ATOM     23  F   UNL     1       7.814   4.504 -12.419  0.00  0.00    -0.166 F 
ATOM     24  F   UNL     1       9.500   5.984 -11.952  0.00  0.00    -0.166 F 
ATOM     25  F   UNL     1       7.890   6.463 -13.476  0.00  0.00    -0.166 F 
ENDBRANCH  19  22
ENDBRANCH  11  16
ENDBRANCH   8  10
ENDBRANCH   1   9
BRANCH   4  26
ATOM     26  C   UNL     1       3.866   5.101  -2.352  0.00  0.00    +0.072 C 
BRANCH  26  27
ATOM     27  C   UNL     1       4.706   5.329  -1.131  0.00  0.00    +0.017 C 
BRANCH  27  28
ATOM     28  C   UNL     1       3.944   6.275  -0.214  0.00  0.00    +0.003 C 
BRANCH  28  29
ATOM     29  C   UNL     1       4.237   7.723  -0.518  0.00  0.00    +0.017 C 
BRANCH  29  30
ATOM     30  C   UNL     1       3.733   8.537   0.647  0.00  0.00    +0.108 C 
ATOM     31  C   UNL     1       4.528   8.342   1.876  0.00  0.00    -0.011 A 
ATOM     32  C   UNL     1       5.350   9.451   2.000  0.00  0.00    -0.004 A 
ATOM     33  C   UNL     1       6.397   9.453   2.903  0.00  0.00    -0.000 A 
ATOM     34  C   UNL     1       6.661   8.342   3.690  0.00  0.00    -0.000 A 
ATOM     35  C   UNL     1       6.055   7.165   3.314  0.00  0.00    -0.000 A 
ATOM     36  C   UNL     1       4.810  10.550   1.213  0.00  0.00    -0.004 A 
ATOM     37  C   UNL     1       5.077  11.906   1.207  0.00  0.00    -0.000 A 
ATOM     38  C   UNL     1       4.603  12.677   0.162  0.00  0.00    -0.000 A 
ATOM     39  C   UNL     1       3.579  12.170  -0.614  0.00  0.00    -0.000 A 
ATOM     40  C   UNL     1       3.245  10.829  -0.519  0.00  0.00    -0.004 A 
ATOM     41  C   UNL     1       4.882   7.230   2.598  0.00  0.00    -0.004 A 
ATOM     42  C   UNL     1       3.892   9.980   0.342  0.00  0.00    -0.011 A 
BRANCH  30  43
ATOM     43  C   UNL     1       2.297   8.253   0.858  0.00  0.00    +0.248 C 
ATOM     44  N   UNL     1       1.431   7.749  -0.148  0.00  0.00    -0.196 NA
ATOM     45  O   UNL     1       1.805   8.445   1.991  0.00  0.00    -0.273 OA
BRANCH  44  46
ATOM     46  C   UNL     1       0.454   6.715   0.187  0.00  0.00    +0.218 C 
BRANCH  46  47
ATOM     47  C   UNL     1       0.353   5.807  -1.020  0.00  0.00    +0.417 C 
ATOM     48  F   UNL     1       1.019   4.623  -0.836  0.00  0.00    -0.168 F 
ATOM     49  F   UNL     1      -0.984   5.525  -1.211  0.00  0.00    -0.168 F 
ATOM     50  F   UNL     1       0.844   6.512  -2.101  0.00  0.00    -0.168 F 
ENDBRANCH  46  47
ENDBRANCH  44  46
ENDBRANCH  30  43
ENDBRANCH  29  30
ENDBRANCH  28  29
ENDBRANCH  27  28
ENDBRANCH  26  27
ENDBRANCH   4  26
TORSDOF 12
ENDMDL
MODEL 2
REMARK VINA RESULT:     -10.6      1.643      1.941
REMARK  Name = 
REMARK  12 active torsions:
REMARK  status: ('A' for Active; 'I' for Inactive)
REMARK    1  A    between atoms: C_2  and  C_35
REMARK    2  A    between atoms: N_3  and  C_4
REMARK    3  A    between atoms: N_7  and  C_8
REMARK    4  A    between atoms: C_8  and  C_9
REMARK    5  A    between atoms: C_9  and  C_10
REMARK    6  A    between atoms: C_10  and  C_11
REMARK    7  A    between atoms: C_11  and  C_12
REMARK    8  A    between atoms: C_12  and  C_13
REMARK    9  A    between atoms: N_15  and  C_16
REMARK   10  A    between atoms: C_16  and  C_17
REMARK   11  A    between atoms: C_40  and  C_41
REMARK   12  A    between atoms: C_44  and  C_45
REMARK                            x       y       z     vdW  Elec       q    Type
REMARK                         _______ _______ _______ _____ _____    ______ ____
ROOT
ATOM      1  C   UNL     1       3.156   7.106  -5.394  0.00  0.00    +0.098 C 
ATOM      2  C   UNL     1       4.273   7.541  -4.508  0.00  0.00    +0.039 C 
ATOM      3  C   UNL     1       5.100   6.445  -3.931  0.00  0.00    +0.074 C 
ATOM      4  N   UNL     1       4.438   5.197  -3.748  0.00  0.00    -0.273 NA
ATOM      5  C   UNL     1       3.592   4.792  -4.838  0.00  0.00    +0.074 C 
ATOM      6  C   UNL     1       2.478   5.831  -4.925  0.00  0.00    +0.039 C 
ENDROOT
BRANCH   1   9
ATOM      7  O   UNL     1       2.167   8.335  -7.760  0.00  0.00    -0.268 OA
ATOM      8  C   UNL     1       2.754   7.217  -7.883  0.00  0.00    +0.265 C 
ATOM      9  N   UNL     1       3.576   6.853  -6.769  0.00  0.00    -0.203 NA
BRANCH   8  10
ATOM     10  C   UNL     1       2.496   6.325  -9.003  0.00  0.00    +0.055 A 
ATOM     11  C   UNL     1       3.249   6.536 -10.153  0.00  0.00    +0.004 A 
ATOM     12  C   UNL     1       2.704   6.126 -11.364  0.00  0.00    +0.000 A 
ATOM     13  C   UNL     1       1.654   5.219 -11.416  0.00  0.00    +0.000 A 
ATOM     14  C   UNL     1       1.083   4.778 -10.229  0.00  0.00    +0.000 A 
ATOM     15  C   UNL     1       1.345   5.558  -9.113  0.00  0.00    +0.005 A 
BRANCH  11  16
ATOM     16  C   UNL     1       4.690   6.771  -9.999  0.00  0.00    +0.000 A 
ATOM     17  C   UNL     1       5.539   5.811  -9.461  0.00  0.00    -0.000 A 
ATOM     18  C   UNL     1       6.782   5.537 -10.018  0.00  0.00    +0.004 A 
ATOM     19  C   UNL     1       7.261   6.310 -11.068  0.00  0.00    +0.071 A 
ATOM     20  C   UNL     1       6.624   7.534 -11.238  0.00  0.00    +0.004 A 
ATOM     21  C   UNL     1       5.304   7.696 -10.836  0.00  0.00    -0.000 A 
BRANCH  19  22
ATOM     22  C   UNL     1       8.100   5.699 -12.146  0.00  0.00    +0.419 C 
ATOM     23  F   UNL     1       8.181   6.627 -13.176  0.00  0.00    -0.166 F 
ATOM     24  F   UNL     1       7.503   4.526 -12.566  0.00  0.00    -0.166 F 
ATOM     25  F   UNL     1       9.388   5.457 -11.716  0.00  0.00    -0.166 F 
ENDBRANCH  19  22
ENDBRANCH  11  16
ENDBRANCH   8  10
ENDBRANCH   1   9
BRANCH   4  26
ATOM     26  C   UNL     1       3.751   5.042  -2.501  0.00  0.00    +0.072 C 
BRANCH  26  27
ATOM     27  C   UNL     1       4.627   5.152  -1.289  0.00  0.00    +0.017 C 
BRANCH  27  28
ATOM     28  C   UNL     1       3.956   6.112  -0.317  0.00  0.00    +0.003 C 
BRANCH  28  29
ATOM     29  C   UNL     1       4.459   7.525  -0.471  0.00  0.00    +0.017 C 
BRANCH  29  30
ATOM     30  C   UNL     1       3.882   8.333   0.664  0.00  0.00    +0.108 C 
ATOM     31  C   UNL     1       4.671   8.228   1.907  0.00  0.00    -0.011 A 
ATOM     32  C   UNL     1       5.412   9.396   2.011  0.00  0.00    -0.004 A 
ATOM     33  C   UNL     1       6.442   9.496   2.927  0.00  0.00    -0.000 A 
ATOM     34  C   UNL     1       6.772   8.428   3.748  0.00  0.00    -0.000 A 
ATOM     35  C   UNL     1       6.256   7.202   3.398  0.00  0.00    -0.000 A 
ATOM     36  C   UNL     1       4.808  10.432   1.186  0.00  0.00    -0.004 A 
ATOM     37  C   UNL     1       4.980  11.803   1.144  0.00  0.00    -0.000 A 
ATOM     38  C   UNL     1       4.468  12.510   0.072  0.00  0.00    -0.000 A 
ATOM     39  C   UNL     1       3.494  11.911  -0.702  0.00  0.00    -0.000 A 
ATOM     40  C   UNL     1       3.253  10.552  -0.573  0.00  0.00    -0.004 A 
ATOM     41  C   UNL     1       5.091   7.164   2.665  0.00  0.00    -0.004 A 
ATOM     42  C   UNL     1       3.945   9.775   0.319  0.00  0.00    -0.011 A 
BRANCH  30  43
ATOM     43  C   UNL     1       2.467   7.955   0.865  0.00  0.00    +0.248 C 
ATOM     44  N   UNL     1       1.834   7.894   2.134  0.00  0.00    -0.196 NA
ATOM     45  O   UNL     1       1.767   7.688  -0.136  0.00  0.00    -0.273 OA
BRANCH  44  46
ATOM     46  C   UNL     1       0.473   8.401   2.291  0.00  0.00    +0.218 C 
BRANCH  46  47
ATOM     47  C   UNL     1       0.581   9.907   2.396  0.00  0.00    +0.417 C 
ATOM     48  F   UNL     1       1.795  10.306   2.892  0.00  0.00    -0.168 F 
ATOM     49  F   UNL     1       0.447  10.419   1.122  0.00  0.00    -0.168 F 
ATOM     50  F   UNL     1      -0.466  10.336   3.188  0.00  0.00    -0.168 F 
ENDBRANCH  46  47
ENDBRANCH  44  46
ENDBRANCH  30  43
ENDBRANCH  29  30
ENDBRANCH  28  29
ENDBRANCH  27  28
ENDBRANCH  26  27
ENDBRANCH   4  26
TORSDOF 12
ENDMDL
MODEL 3
REMARK VINA RESULT:      -9.8      2.245      4.582
REMARK  Name = 
REMARK  12 active torsions:
REMARK  status: ('A' for Active; 'I' for Inactive)
REMARK    1  A    between atoms: C_2  and  C_35
REMARK    2  A    between atoms: N_3  and  C_4
REMARK    3  A    between atoms: N_7  and  C_8
REMARK    4  A    between atoms: C_8  and  C_9
REMARK    5  A    between atoms: C_9  and  C_10
REMARK    6  A    between atoms: C_10  and  C_11
REMARK    7  A    between atoms: C_11  and  C_12
REMARK    8  A    between atoms: C_12  and  C_13
REMARK    9  A    between atoms: N_15  and  C_16
REMARK   10  A    between atoms: C_16  and  C_17
REMARK   11  A    between atoms: C_40  and  C_41
REMARK   12  A    between atoms: C_44  and  C_45
REMARK                            x       y       z     vdW  Elec       q    Type
REMARK                         _______ _______ _______ _____ _____    ______ ____
ROOT
ATOM      1  C   UNL     1       3.239   7.033  -5.613  0.00  0.00    +0.098 C 
ATOM      2  C   UNL     1       4.377   7.181  -4.662  0.00  0.00    +0.039 C 
ATOM      3  C   UNL     1       4.973   5.907  -4.171  0.00  0.00    +0.074 C 
ATOM      4  N   UNL     1       4.095   4.787  -4.123  0.00  0.00    -0.273 NA
ATOM      5  C   UNL     1       3.237   4.639  -5.267  0.00  0.00    +0.074 C 
ATOM      6  C   UNL     1       2.328   5.864  -5.284  0.00  0.00    +0.039 C 
ENDROOT
BRANCH   1   9
ATOM      7  O   UNL     1       2.255   8.346  -7.935  0.00  0.00    -0.268 OA
ATOM      8  C   UNL     1       2.845   7.235  -8.098  0.00  0.00    +0.265 C 
ATOM      9  N   UNL     1       3.664   6.831  -6.995  0.00  0.00    -0.203 NA
BRANCH   8  10
ATOM     10  C   UNL     1       2.593   6.384  -9.251  0.00  0.00    +0.055 A 
ATOM     11  C   UNL     1       3.375   6.613 -10.376  0.00  0.00    +0.004 A 
ATOM     12  C   UNL     1       2.849   6.253 -11.612  0.00  0.00    +0.000 A 
ATOM     13  C   UNL     1       1.781   5.372 -11.714  0.00  0.00    +0.000 A 
ATOM     14  C   UNL     1       1.174   4.907 -10.555  0.00  0.00    +0.000 A 
ATOM     15  C   UNL     1       1.428   5.646  -9.410  0.00  0.00    +0.005 A 
BRANCH  11  16
ATOM     16  C   UNL     1       4.817   6.812 -10.185  0.00  0.00    +0.000 A 
ATOM     17  C   UNL     1       5.642   5.800  -9.707  0.00  0.00    -0.000 A 
ATOM     18  C   UNL     1       6.890   5.547 -10.264  0.00  0.00    +0.004 A 
ATOM     19  C   UNL     1       7.397   6.387 -11.247  0.00  0.00    +0.071 A 
ATOM     20  C   UNL     1       6.783   7.631 -11.335  0.00  0.00    +0.004 A 
ATOM     21  C   UNL     1       5.459   7.785 -10.942  0.00  0.00    -0.000 A 
BRANCH  19  22
ATOM     22  C   UNL     1       8.244   5.843 -12.354  0.00  0.00    +0.419 C 
ATOM     23  F   UNL     1       7.958   4.488 -12.459  0.00  0.00    -0.166 F 
ATOM     24  F   UNL     1       9.574   6.059 -12.048  0.00  0.00    -0.166 F 
ATOM     25  F   UNL     1       7.930   6.419 -13.568  0.00  0.00    -0.166 F 
ENDBRANCH  19  22
ENDBRANCH  11  16
ENDBRANCH   8  10
ENDBRANCH   1   9
BRANCH   4  26
ATOM     26  C   UNL     1       3.340   4.648  -2.913  0.00  0.00    +0.072 C 
BRANCH  26  27
ATOM     27  C   UNL     1       4.140   4.822  -1.658  0.00  0.00    +0.017 C 
BRANCH  27  28
ATOM     28  C   UNL     1       3.318   5.670  -0.698  0.00  0.00    +0.003 C 
BRANCH  28  29
ATOM     29  C   UNL     1       1.866   5.262  -0.677  0.00  0.00    +0.017 C 
BRANCH  29  30
ATOM     30  C   UNL     1       1.044   6.524  -0.764  0.00  0.00    +0.108 C 
ATOM     31  C   UNL     1      -0.051   6.434  -1.750  0.00  0.00    -0.011 A 
ATOM     32  C   UNL     1      -1.219   6.224  -1.033  0.00  0.00    -0.004 A 
ATOM     33  C   UNL     1      -2.381   5.840  -1.677  0.00  0.00    -0.000 A 
ATOM     34  C   UNL     1      -2.401   5.636  -3.048  0.00  0.00    -0.000 A 
ATOM     35  C   UNL     1      -1.179   5.525  -3.671  0.00  0.00    -0.000 A 
ATOM     36  C   UNL     1      -1.026   6.644   0.348  0.00  0.00    -0.004 A 
ATOM     37  C   UNL     1      -1.917   6.896   1.374  0.00  0.00    -0.000 A 
ATOM     38  C   UNL     1      -1.434   7.021   2.663  0.00  0.00    -0.000 A 
ATOM     39  C   UNL     1      -0.088   7.276   2.837  0.00  0.00    -0.000 A 
ATOM     40  C   UNL     1       0.783   7.125   1.770  0.00  0.00    -0.004 A 
ATOM     41  C   UNL     1      -0.087   6.126  -3.087  0.00  0.00    -0.004 A 
ATOM     42  C   UNL     1       0.347   6.744   0.527  0.00  0.00    -0.011 A 
BRANCH  30  43
ATOM     43  C   UNL     1       1.937   7.673  -1.023  0.00  0.00    +0.248 C 
ATOM     44  N   UNL     1       2.234   8.680  -0.065  0.00  0.00    -0.196 NA
ATOM     45  O   UNL     1       2.487   7.769  -2.141  0.00  0.00    -0.273 OA
BRANCH  44  46
ATOM     46  C   UNL     1       3.600   9.182   0.059  0.00  0.00    +0.218 C 
BRANCH  46  47
ATOM     47  C   UNL     1       3.502  10.691   0.135  0.00  0.00    +0.417 C 
ATOM     48  F   UNL     1       3.632  11.281  -1.096  0.00  0.00    -0.168 F 
ATOM     49  F   UNL     1       2.251  10.997   0.630  0.00  0.00    -0.168 F 
ATOM     50  F   UNL     1       4.475  11.118   1.017  0.00  0.00    -0.168 F 
ENDBRANCH  46  47
ENDBRANCH  44  46
ENDBRANCH  30  43
ENDBRANCH  29  30
ENDBRANCH  28  29
ENDBRANCH  27  28
ENDBRANCH  26  27
ENDBRANCH   4  26
TORSDOF 12
ENDMDL
MODEL 4
REMARK VINA RESULT:      -9.7      2.666      4.758
REMARK  Name = 
REMARK  12 active torsions:
REMARK  status: ('A' for Active; 'I' for Inactive)
REMARK    1  A    between atoms: C_2  and  C_35
REMARK    2  A    between atoms: N_3  and  C_4
REMARK    3  A    between atoms: N_7  and  C_8
REMARK    4  A    between atoms: C_8  and  C_9
REMARK    5  A    between atoms: C_9  and  C_10
REMARK    6  A    between atoms: C_10  and  C_11
REMARK    7  A    between atoms: C_11  and  C_12
REMARK    8  A    between atoms: C_12  and  C_13
REMARK    9  A    between atoms: N_15  and  C_16
REMARK   10  A    between atoms: C_16  and  C_17
REMARK   11  A    between atoms: C_40  and  C_41
REMARK   12  A    between atoms: C_44  and  C_45
REMARK                            x       y       z     vdW  Elec       q    Type
REMARK                         _______ _______ _______ _____ _____    ______ ____
ROOT
ATOM      1  C   UNL     1      -0.735   5.582  -5.663  0.00  0.00    +0.098 C 
ATOM      2  C   UNL     1      -2.001   6.335  -5.891  0.00  0.00    +0.039 C 
ATOM      3  C   UNL     1      -2.293   7.414  -4.906  0.00  0.00    +0.074 C 
ATOM      4  N   UNL     1      -1.754   7.227  -3.601  0.00  0.00    -0.273 NA
ATOM      5  C   UNL     1      -0.402   6.742  -3.566  0.00  0.00    +0.074 C 
ATOM      6  C   UNL     1      -0.427   5.352  -4.194  0.00  0.00    +0.039 C 
ENDROOT
BRANCH   1   9
ATOM      7  O   UNL     1       1.751   4.400  -6.377  0.00  0.00    -0.268 OA
ATOM      8  C   UNL     1       1.740   5.650  -6.160  0.00  0.00    +0.265 C 
ATOM      9  N   UNL     1       0.440   6.249  -6.216  0.00  0.00    -0.203 NA
BRANCH   8  10
ATOM     10  C   UNL     1       2.931   6.377  -5.750  0.00  0.00    +0.055 A 
ATOM     11  C   UNL     1       4.130   5.988  -6.336  0.00  0.00    +0.004 A 
ATOM     12  C   UNL     1       5.301   6.232  -5.628  0.00  0.00    +0.000 A 
ATOM     13  C   UNL     1       5.339   7.144  -4.582  0.00  0.00    +0.000 A 
ATOM     14  C   UNL     1       4.162   7.762  -4.181  0.00  0.00    +0.000 A 
ATOM     15  C   UNL     1       2.992   7.145  -4.595  0.00  0.00    +0.005 A 
BRANCH  11  16
ATOM     16  C   UNL     1       4.143   5.747  -7.783  0.00  0.00    +0.000 A 
ATOM     17  C   UNL     1       3.533   6.618  -8.680  0.00  0.00    -0.000 A 
ATOM     18  C   UNL     1       4.145   6.991  -9.870  0.00  0.00    +0.004 A 
ATOM     19  C   UNL     1       5.344   6.403 -10.252  0.00  0.00    +0.071 A 
ATOM     20  C   UNL     1       5.654   5.216  -9.599  0.00  0.00    +0.004 A 
ATOM     21  C   UNL     1       5.169   4.977  -8.318  0.00  0.00    -0.000 A 
BRANCH  19  22
ATOM     22  C   UNL     1       6.378   7.190 -10.995  0.00  0.00    +0.419 C 
ATOM     23  F   UNL     1       5.837   8.444 -11.242  0.00  0.00    -0.166 F 
ATOM     24  F   UNL     1       6.684   6.528 -12.169  0.00  0.00    -0.166 F 
ATOM     25  F   UNL     1       7.517   7.381 -10.239  0.00  0.00    -0.166 F 
ENDBRANCH  19  22
ENDBRANCH  11  16
ENDBRANCH   8  10
ENDBRANCH   1   9
BRANCH   4  26
ATOM     26  C   UNL     1      -2.575   6.478  -2.698  0.00  0.00    +0.072 C 
BRANCH  26  27
ATOM     27  C   UNL     1      -2.731   7.096  -1.341  0.00  0.00    +0.017 C 
BRANCH  27  28
ATOM     28  C   UNL     1      -1.440   6.856  -0.571  0.00  0.00    +0.003 C 
BRANCH  28  29
ATOM     29  C   UNL     1      -0.780   8.144  -0.148  0.00  0.00    +0.017 C 
BRANCH  29  30
ATOM     30  C   UNL     1       0.444   7.779   0.655  0.00  0.00    +0.108 C 
ATOM     31  C   UNL     1       1.161   6.607   0.115  0.00  0.00    -0.011 A 
ATOM     32  C   UNL     1       2.268   7.094  -0.563  0.00  0.00    -0.004 A 
ATOM     33  C   UNL     1       3.001   6.270  -1.397  0.00  0.00    -0.000 A 
ATOM     34  C   UNL     1       2.635   4.947  -1.592  0.00  0.00    -0.000 A 
ATOM     35  C   UNL     1       1.369   4.593  -1.184  0.00  0.00    -0.000 A 
ATOM     36  C   UNL     1       2.571   8.441  -0.099  0.00  0.00    -0.004 A 
ATOM     37  C   UNL     1       3.689   9.241  -0.241  0.00  0.00    -0.000 A 
ATOM     38  C   UNL     1       3.595  10.583   0.076  0.00  0.00    -0.000 A 
ATOM     39  C   UNL     1       2.544  10.997   0.870  0.00  0.00    -0.000 A 
ATOM     40  C   UNL     1       1.476  10.143   1.096  0.00  0.00    -0.004 A 
ATOM     41  C   UNL     1       0.774   5.324  -0.181  0.00  0.00    -0.004 A 
ATOM     42  C   UNL     1       1.434   8.879   0.566  0.00  0.00    -0.011 A 
BRANCH  30  43
ATOM     43  C   UNL     1       0.063   7.598   2.072  0.00  0.00    +0.248 C 
ATOM     44  N   UNL     1      -1.085   8.185   2.668  0.00  0.00    -0.196 NA
ATOM     45  O   UNL     1       0.775   6.871   2.799  0.00  0.00    -0.273 OA
BRANCH  44  46
ATOM     46  C   UNL     1      -1.901   7.404   3.595  0.00  0.00    +0.218 C 
BRANCH  46  47
ATOM     47  C   UNL     1      -3.079   6.881   2.802  0.00  0.00    +0.417 C 
ATOM     48  F   UNL     1      -4.176   6.655   3.592  0.00  0.00    -0.168 F 
ATOM     49  F   UNL     1      -3.409   7.844   1.872  0.00  0.00    -0.168 F 
ATOM     50  F   UNL     1      -2.660   5.732   2.161  0.00  0.00    -0.168 F 
ENDBRANCH  46  47
ENDBRANCH  44  46
ENDBRANCH  30  43
ENDBRANCH  29  30
ENDBRANCH  28  29
ENDBRANCH  27  28
ENDBRANCH  26  27
ENDBRANCH   4  26
TORSDOF 12
ENDMDL
MODEL 5
REMARK VINA RESULT:      -9.3      4.190      7.782
REMARK  Name = 
REMARK  12 active torsions:
REMARK  status: ('A' for Active; 'I' for Inactive)
REMARK    1  A    between atoms: C_2  and  C_35
REMARK    2  A    between atoms: N_3  and  C_4
REMARK    3  A    between atoms: N_7  and  C_8
REMARK    4  A    between atoms: C_8  and  C_9
REMARK    5  A    between atoms: C_9  and  C_10
REMARK    6  A    between atoms: C_10  and  C_11
REMARK    7  A    between atoms: C_11  and  C_12
REMARK    8  A    between atoms: C_12  and  C_13
REMARK    9  A    between atoms: N_15  and  C_16
REMARK   10  A    between atoms: C_16  and  C_17
REMARK   11  A    between atoms: C_40  and  C_41
REMARK   12  A    between atoms: C_44  and  C_45
REMARK                            x       y       z     vdW  Elec       q    Type
REMARK                         _______ _______ _______ _____ _____    ______ ____
ROOT
ATOM      1  C   UNL     1       2.026   6.186 -14.239  0.00  0.00    +0.098 C 
ATOM      2  C   UNL     1       0.792   7.011 -14.099  0.00  0.00    +0.039 C 
ATOM      3  C   UNL     1       0.622   7.693 -12.785  0.00  0.00    +0.074 C 
ATOM      4  N   UNL     1       1.228   7.051 -11.668  0.00  0.00    -0.273 NA
ATOM      5  C   UNL     1       2.551   6.541 -11.905  0.00  0.00    +0.074 C 
ATOM      6  C   UNL     1       2.409   5.454 -12.966  0.00  0.00    +0.039 C 
ENDROOT
BRANCH   1   9
ATOM      7  O   UNL     1       2.590   7.339 -16.777  0.00  0.00    -0.268 OA
ATOM      8  C   UNL     1       3.568   7.147 -15.992  0.00  0.00    +0.265 C 
ATOM      9  N   UNL     1       3.200   6.966 -14.620  0.00  0.00    -0.203 NA
BRANCH   8  10
ATOM     10  C   UNL     1       4.930   6.985 -16.475  0.00  0.00    +0.055 A 
ATOM     11  C   UNL     1       5.948   7.251 -15.567  0.00  0.00    +0.004 A 
ATOM     12  C   UNL     1       7.181   7.642 -16.077  0.00  0.00    +0.000 A 
ATOM     13  C   UNL     1       7.518   7.421 -17.406  0.00  0.00    +0.000 A 
ATOM     14  C   UNL     1       6.571   6.873 -18.262  0.00  0.00    +0.000 A 
ATOM     15  C   UNL     1       5.258   6.945 -17.824  0.00  0.00    +0.005 A 
BRANCH  11  16
ATOM     16  C   UNL     1       5.815   6.716 -14.207  0.00  0.00    +0.000 A 
ATOM     17  C   UNL     1       6.125   5.396 -13.902  0.00  0.00    -0.000 A 
ATOM     18  C   UNL     1       6.838   5.056 -12.758  0.00  0.00    +0.004 A 
ATOM     19  C   UNL     1       7.160   6.030 -11.822  0.00  0.00    +0.071 A 
ATOM     20  C   UNL     1       6.422   7.205 -11.915  0.00  0.00    +0.004 A 
ATOM     21  C   UNL     1       5.890   7.600 -13.137  0.00  0.00    -0.000 A 
BRANCH  19  22
ATOM     22  C   UNL     1       8.446   5.963 -11.061  0.00  0.00    +0.419 C 
ATOM     23  F   UNL     1       8.464   7.047 -10.193  0.00  0.00    -0.166 F 
ATOM     24  F   UNL     1       9.498   6.012 -11.956  0.00  0.00    -0.166 F 
ATOM     25  F   UNL     1       8.524   4.823 -10.288  0.00  0.00    -0.166 F 
ENDBRANCH  19  22
ENDBRANCH  11  16
ENDBRANCH   8  10
ENDBRANCH   1   9
BRANCH   4  26
ATOM     26  C   UNL     1       0.423   6.062 -11.015  0.00  0.00    +0.072 C 
BRANCH  26  27
ATOM     27  C   UNL     1       0.302   6.240  -9.531  0.00  0.00    +0.017 C 
BRANCH  27  28
ATOM     28  C   UNL     1       1.617   6.813  -9.024  0.00  0.00    +0.003 C 
BRANCH  28  29
ATOM     29  C   UNL     1       1.555   7.177  -7.562  0.00  0.00    +0.017 C 
BRANCH  29  30
ATOM     30  C   UNL     1       2.165   6.035  -6.788  0.00  0.00    +0.108 C 
ATOM     31  C   UNL     1       3.210   5.318  -7.545  0.00  0.00    -0.011 A 
ATOM     32  C   UNL     1       4.431   5.751  -7.050  0.00  0.00    -0.004 A 
ATOM     33  C   UNL     1       5.604   5.462  -7.722  0.00  0.00    -0.000 A 
ATOM     34  C   UNL     1       5.587   4.753  -8.913  0.00  0.00    -0.000 A 
ATOM     35  C   UNL     1       4.368   4.633  -9.539  0.00  0.00    -0.000 A 
ATOM     36  C   UNL     1       4.244   6.328  -5.727  0.00  0.00    -0.004 A 
ATOM     37  C   UNL     1       5.135   6.645  -4.719  0.00  0.00    -0.000 A 
ATOM     38  C   UNL     1       4.704   7.433  -3.668  0.00  0.00    -0.000 A 
ATOM     39  C   UNL     1       3.345   7.553  -3.454  0.00  0.00    -0.000 A 
ATOM     40  C   UNL     1       2.455   7.129  -4.428  0.00  0.00    -0.004 A 
ATOM     41  C   UNL     1       3.226   4.707  -8.774  0.00  0.00    -0.004 A 
ATOM     42  C   UNL     1       2.883   6.573  -5.606  0.00  0.00    -0.011 A 
BRANCH  30  43
ATOM     43  C   UNL     1       1.092   5.132  -6.321  0.00  0.00    +0.248 C 
ATOM     44  N   UNL     1      -0.216   5.564  -5.974  0.00  0.00    -0.196 NA
ATOM     45  O   UNL     1       1.329   3.907  -6.238  0.00  0.00    -0.273 OA
BRANCH  44  46
ATOM     46  C   UNL     1      -1.374   4.773  -6.383  0.00  0.00    +0.218 C 
BRANCH  46  47
ATOM     47  C   UNL     1      -2.599   5.512  -5.890  0.00  0.00    +0.417 C 
ATOM     48  F   UNL     1      -3.541   4.662  -5.370  0.00  0.00    -0.168 F 
ATOM     49  F   UNL     1      -2.189   6.366  -4.887  0.00  0.00    -0.168 F 
ATOM     50  F   UNL     1      -3.092   6.238  -6.955  0.00  0.00    -0.168 F 
ENDBRANCH  46  47
ENDBRANCH  44  46
ENDBRANCH  30  43
ENDBRANCH  29  30
ENDBRANCH  28  29
ENDBRANCH  27  28
ENDBRANCH  26  27
ENDBRANCH   4  26
TORSDOF 12
ENDMDL
MODEL 6
REMARK VINA RESULT:      -9.2      3.270     11.061
REMARK  Name = 
REMARK  12 active torsions:
REMARK  status: ('A' for Active; 'I' for Inactive)
REMARK    1  A    between atoms: C_2  and  C_35
REMARK    2  A    between atoms: N_3  and  C_4
REMARK    3  A    between atoms: N_7  and  C_8
REMARK    4  A    between atoms: C_8  and  C_9
REMARK    5  A    between atoms: C_9  and  C_10
REMARK    6  A    between atoms: C_10  and  C_11
REMARK    7  A    between atoms: C_11  and  C_12
REMARK    8  A    between atoms: C_12  and  C_13
REMARK    9  A    between atoms: N_15  and  C_16
REMARK   10  A    between atoms: C_16  and  C_17
REMARK   11  A    between atoms: C_40  and  C_41
REMARK   12  A    between atoms: C_44  and  C_45
REMARK                            x       y       z     vdW  Elec       q    Type
REMARK                         _______ _______ _______ _____ _____    ______ ____
ROOT
ATOM      1  C   UNL     1       3.057   6.078  -3.052  0.00  0.00    +0.098 C 
ATOM      2  C   UNL     1       3.942   4.949  -3.455  0.00  0.00    +0.039 C 
ATOM      3  C   UNL     1       5.111   5.319  -4.301  0.00  0.00    +0.074 C 
ATOM      4  N   UNL     1       4.946   6.473  -5.119  0.00  0.00    -0.273 NA
ATOM      5  C   UNL     1       4.303   7.586  -4.476  0.00  0.00    +0.074 C 
ATOM      6  C   UNL     1       2.888   7.127  -4.137  0.00  0.00    +0.039 C 
ENDROOT
BRANCH   1   9
ATOM      7  O   UNL     1       3.108   5.154  -0.363  0.00  0.00    -0.268 OA
ATOM      8  C   UNL     1       3.153   6.408  -0.551  0.00  0.00    +0.265 C 
ATOM      9  N   UNL     1       3.537   6.795  -1.875  0.00  0.00    -0.203 NA
BRANCH   8  10
ATOM     10  C   UNL     1       2.712   7.360   0.457  0.00  0.00    +0.055 A 
ATOM     11  C   UNL     1       1.407   7.824   0.347  0.00  0.00    +0.004 A 
ATOM     12  C   UNL     1       1.117   9.069   0.892  0.00  0.00    +0.000 A 
ATOM     13  C   UNL     1       1.956   9.664   1.824  0.00  0.00    +0.000 A 
ATOM     14  C   UNL     1       3.151   9.038   2.155  0.00  0.00    +0.000 A 
ATOM     15  C   UNL     1       3.590   8.076   1.259  0.00  0.00    +0.005 A 
BRANCH  11  16
ATOM     16  C   UNL     1       0.350   6.846   0.062  0.00  0.00    +0.000 A 
ATOM     17  C   UNL     1      -0.930   6.972   0.588  0.00  0.00    -0.000 A 
ATOM     18  C   UNL     1      -2.065   6.742  -0.180  0.00  0.00    +0.004 A 
ATOM     19  C   UNL     1      -1.942   6.262  -1.478  0.00  0.00    +0.071 A 
ATOM     20  C   UNL     1      -0.712   5.691  -1.782  0.00  0.00    +0.004 A 
ATOM     21  C   UNL     1       0.433   6.101  -1.109  0.00  0.00    -0.000 A 
BRANCH  19  22
ATOM     22  C   UNL     1      -2.901   6.688  -2.545  0.00  0.00    +0.419 C 
ATOM     23  F   UNL     1      -2.944   5.668  -3.486  0.00  0.00    -0.166 F 
ATOM     24  F   UNL     1      -2.455   7.872  -3.099  0.00  0.00    -0.166 F 
ATOM     25  F   UNL     1      -4.181   6.839  -2.052  0.00  0.00    -0.166 F 
ENDBRANCH  19  22
ENDBRANCH  11  16
ENDBRANCH   8  10
ENDBRANCH   1   9
BRANCH   4  26
ATOM     26  C   UNL     1       4.364   6.237  -6.406  0.00  0.00    +0.072 C 
BRANCH  26  27
ATOM     27  C   UNL     1       4.559   4.847  -6.932  0.00  0.00    +0.017 C 
BRANCH  27  28
ATOM     28  C   UNL     1       4.730   4.943  -8.442  0.00  0.00    +0.003 C 
BRANCH  28  29
ATOM     29  C   UNL     1       3.464   4.592  -9.182  0.00  0.00    +0.017 C 
BRANCH  29  30
ATOM     30  C   UNL     1       3.038   5.818  -9.950  0.00  0.00    +0.108 C 
ATOM     31  C   UNL     1       4.167   6.518 -10.593  0.00  0.00    -0.011 A 
ATOM     32  C   UNL     1       4.133   6.181 -11.938  0.00  0.00    -0.004 A 
ATOM     33  C   UNL     1       5.206   6.467 -12.762  0.00  0.00    -0.000 A 
ATOM     34  C   UNL     1       6.346   7.077 -12.261  0.00  0.00    -0.000 A 
ATOM     35  C   UNL     1       6.484   7.093 -10.892  0.00  0.00    -0.000 A 
ATOM     36  C   UNL     1       2.803   5.704 -12.288  0.00  0.00    -0.004 A 
ATOM     37  C   UNL     1       2.178   5.509 -13.505  0.00  0.00    -0.000 A 
ATOM     38  C   UNL     1       0.999   4.790 -13.544  0.00  0.00    -0.000 A 
ATOM     39  C   UNL     1       0.291   4.627 -12.369  0.00  0.00    -0.000 A 
ATOM     40  C   UNL     1       0.892   4.931 -11.158  0.00  0.00    -0.004 A 
ATOM     41  C   UNL     1       5.348   7.029 -10.117  0.00  0.00    -0.004 A 
ATOM     42  C   UNL     1       2.175   5.410 -11.085  0.00  0.00    -0.011 A 
BRANCH  30  43
ATOM     43  C   UNL     1       2.261   6.707  -9.060  0.00  0.00    +0.248 C 
ATOM     44  N   UNL     1       1.096   6.304  -8.354  0.00  0.00    -0.196 NA
ATOM     45  O   UNL     1       2.651   7.883  -8.895  0.00  0.00    -0.273 OA
BRANCH  44  46
ATOM     46  C   UNL     1       0.900   6.736  -6.972  0.00  0.00    +0.218 C 
BRANCH  46  47
ATOM     47  C   UNL     1       0.203   5.599  -6.257  0.00  0.00    +0.417 C 
ATOM     48  F   UNL     1      -0.556   6.038  -5.203  0.00  0.00    -0.168 F 
ATOM     49  F   UNL     1      -0.636   4.992  -7.169  0.00  0.00    -0.168 F 
ATOM     50  F   UNL     1       1.180   4.711  -5.854  0.00  0.00    -0.168 F 
ENDBRANCH  46  47
ENDBRANCH  44  46
ENDBRANCH  30  43
ENDBRANCH  29  30
ENDBRANCH  28  29
ENDBRANCH  27  28
ENDBRANCH  26  27
ENDBRANCH   4  26
TORSDOF 12
ENDMDL
MODEL 7
REMARK VINA RESULT:      -9.2      2.411      3.936
REMARK  Name = 
REMARK  12 active torsions:
REMARK  status: ('A' for Active; 'I' for Inactive)
REMARK    1  A    between atoms: C_2  and  C_35
REMARK    2  A    between atoms: N_3  and  C_4
REMARK    3  A    between atoms: N_7  and  C_8
REMARK    4  A    between atoms: C_8  and  C_9
REMARK    5  A    between atoms: C_9  and  C_10
REMARK    6  A    between atoms: C_10  and  C_11
REMARK    7  A    between atoms: C_11  and  C_12
REMARK    8  A    between atoms: C_12  and  C_13
REMARK    9  A    between atoms: N_15  and  C_16
REMARK   10  A    between atoms: C_16  and  C_17
REMARK   11  A    between atoms: C_40  and  C_41
REMARK   12  A    between atoms: C_44  and  C_45
REMARK                            x       y       z     vdW  Elec       q    Type
REMARK                         _______ _______ _______ _____ _____    ______ ____
ROOT
ATOM      1  C   UNL     1       3.080   7.138  -5.050  0.00  0.00    +0.098 C 
ATOM      2  C   UNL     1       4.115   7.886  -4.283  0.00  0.00    +0.039 C 
ATOM      3  C   UNL     1       5.078   7.046  -3.517  0.00  0.00    +0.074 C 
ATOM      4  N   UNL     1       4.593   5.778  -3.086  0.00  0.00    -0.273 NA
ATOM      5  C   UNL     1       3.824   5.058  -4.064  0.00  0.00    +0.074 C 
ATOM      6  C   UNL     1       2.578   5.896  -4.334  0.00  0.00    +0.039 C 
ENDROOT
BRANCH   1   9
ATOM      7  O   UNL     1       2.516   8.292  -7.588  0.00  0.00    -0.268 OA
ATOM      8  C   UNL     1       2.892   7.080  -7.567  0.00  0.00    +0.265 C 
ATOM      9  N   UNL     1       3.546   6.683  -6.357  0.00  0.00    -0.203 NA
BRANCH   8  10
ATOM     10  C   UNL     1       2.557   6.146  -8.630  0.00  0.00    +0.055 A 
ATOM     11  C   UNL     1       3.177   6.351  -9.858  0.00  0.00    +0.004 A 
ATOM     12  C   UNL     1       2.527   5.884 -10.994  0.00  0.00    +0.000 A 
ATOM     13  C   UNL     1       1.516   4.936 -10.912  0.00  0.00    +0.000 A 
ATOM     14  C   UNL     1       1.090   4.509  -9.661  0.00  0.00    +0.000 A 
ATOM     15  C   UNL     1       1.433   5.331  -8.599  0.00  0.00    +0.005 A 
BRANCH  11  16
ATOM     16  C   UNL     1       4.614   6.647  -9.862  0.00  0.00    +0.000 A 
ATOM     17  C   UNL     1       5.556   5.726  -9.418  0.00  0.00    -0.000 A 
ATOM     18  C   UNL     1       6.743   5.501 -10.106  0.00  0.00    +0.004 A 
ATOM     19  C   UNL     1       7.071   6.286 -11.204  0.00  0.00    +0.071 A 
ATOM     20  C   UNL     1       6.369   7.481 -11.307  0.00  0.00    +0.004 A 
ATOM     21  C   UNL     1       5.095   7.591 -10.764  0.00  0.00    -0.000 A 
BRANCH  19  22
ATOM     22  C   UNL     1       7.813   5.702 -12.365  0.00  0.00    +0.419 C 
ATOM     23  F   UNL     1       8.020   4.358 -12.084  0.00  0.00    -0.166 F 
ATOM     24  F   UNL     1       9.009   6.379 -12.517  0.00  0.00    -0.166 F 
ATOM     25  F   UNL     1       7.074   5.764 -13.528  0.00  0.00    -0.166 F 
ENDBRANCH  19  22
ENDBRANCH  11  16
ENDBRANCH   8  10
ENDBRANCH   1   9
BRANCH   4  26
ATOM     26  C   UNL     1       3.919   5.775  -1.822  0.00  0.00    +0.072 C 
BRANCH  26  27
ATOM     27  C   UNL     1       4.468   6.747  -0.822  0.00  0.00    +0.017 C 
BRANCH  27  28
ATOM     28  C   UNL     1       3.358   7.728  -0.471  0.00  0.00    +0.003 C 
BRANCH  28  29
ATOM     29  C   UNL     1       3.846   9.154  -0.440  0.00  0.00    +0.017 C 
BRANCH  29  30
ATOM     30  C   UNL     1       3.715   9.643   0.981  0.00  0.00    +0.108 C 
ATOM     31  C   UNL     1       2.343   9.517   1.511  0.00  0.00    -0.011 A 
ATOM     32  C   UNL     1       2.335   8.405   2.339  0.00  0.00    -0.004 A 
ATOM     33  C   UNL     1       1.141   7.868   2.784  0.00  0.00    -0.000 A 
ATOM     34  C   UNL     1      -0.073   8.414   2.398  0.00  0.00    -0.000 A 
ATOM     35  C   UNL     1      -0.045   9.285   1.333  0.00  0.00    -0.000 A 
ATOM     36  C   UNL     1       3.696   8.092   2.748  0.00  0.00    -0.004 A 
ATOM     37  C   UNL     1       4.201   7.284   3.750  0.00  0.00    -0.000 A 
ATOM     38  C   UNL     1       5.546   6.964   3.738  0.00  0.00    -0.000 A 
ATOM     39  C   UNL     1       6.398   7.746   2.984  0.00  0.00    -0.000 A 
ATOM     40  C   UNL     1       5.876   8.635   2.057  0.00  0.00    -0.004 A 
ATOM     41  C   UNL     1       1.122   9.966   1.072  0.00  0.00    -0.004 A 
ATOM     42  C   UNL     1       4.526   8.779   1.873  0.00  0.00    -0.011 A 
BRANCH  30  43
ATOM     43  C   UNL     1       4.224  11.028   1.071  0.00  0.00    +0.248 C 
ATOM     44  N   UNL     1       4.609  11.808  -0.052  0.00  0.00    -0.196 NA
ATOM     45  O   UNL     1       4.310  11.566   2.196  0.00  0.00    -0.273 OA
BRANCH  44  46
ATOM     46  C   UNL     1       4.244  13.222  -0.113  0.00  0.00    +0.218 C 
BRANCH  46  47
ATOM     47  C   UNL     1       4.197  13.594  -1.579  0.00  0.00    +0.417 C 
ATOM     48  F   UNL     1       4.421  14.932  -1.781  0.00  0.00    -0.168 F 
ATOM     49  F   UNL     1       5.197  12.889  -2.216  0.00  0.00    -0.168 F 
ATOM     50  F   UNL     1       2.964  13.200  -2.060  0.00  0.00    -0.168 F 
ENDBRANCH  46  47
ENDBRANCH  44  46
ENDBRANCH  30  43
ENDBRANCH  29  30
ENDBRANCH  28  29
ENDBRANCH  27  28
ENDBRANCH  26  27
ENDBRANCH   4  26
TORSDOF 12
ENDMDL
MODEL 8
REMARK VINA RESULT:      -9.2      2.109     11.679
REMARK  Name = 
REMARK  12 active torsions:
REMARK  status: ('A' for Active; 'I' for Inactive)
REMARK    1  A    between atoms: C_2  and  C_35
REMARK    2  A    between atoms: N_3  and  C_4
REMARK    3  A    between atoms: N_7  and  C_8
REMARK    4  A    between atoms: C_8  and  C_9
REMARK    5  A    between atoms: C_9  and  C_10
REMARK    6  A    between atoms: C_10  and  C_11
REMARK    7  A    between atoms: C_11  and  C_12
REMARK    8  A    between atoms: C_12  and  C_13
REMARK    9  A    between atoms: N_15  and  C_16
REMARK   10  A    between atoms: C_16  and  C_17
REMARK   11  A    between atoms: C_40  and  C_41
REMARK   12  A    between atoms: C_44  and  C_45
REMARK                            x       y       z     vdW  Elec       q    Type
REMARK                         _______ _______ _______ _____ _____    ______ ____
ROOT
ATOM      1  C   UNL     1       3.560   7.319  -0.915  0.00  0.00    +0.098 C 
ATOM      2  C   UNL     1       3.404   5.885  -1.291  0.00  0.00    +0.039 C 
ATOM      3  C   UNL     1       4.146   5.457  -2.510  0.00  0.00    +0.074 C 
ATOM      4  N   UNL     1       4.376   6.469  -3.485  0.00  0.00    -0.273 NA
ATOM      5  C   UNL     1       4.788   7.740  -2.956  0.00  0.00    +0.074 C 
ATOM      6  C   UNL     1       3.625   8.252  -2.112  0.00  0.00    +0.039 C 
ENDROOT
BRANCH   1   9
ATOM      7  O   UNL     1       3.938   6.932   1.877  0.00  0.00    -0.268 OA
ATOM      8  C   UNL     1       4.722   7.736   1.287  0.00  0.00    +0.265 C 
ATOM      9  N   UNL     1       4.766   7.584  -0.136  0.00  0.00    -0.203 NA
BRANCH   8  10
ATOM     10  C   UNL     1       5.407   8.809   1.991  0.00  0.00    +0.055 A 
ATOM     11  C   UNL     1       4.858  10.081   1.872  0.00  0.00    +0.004 A 
ATOM     12  C   UNL     1       5.710  11.168   2.033  0.00  0.00    +0.000 A 
ATOM     13  C   UNL     1       6.946  11.034   2.649  0.00  0.00    +0.000 A 
ATOM     14  C   UNL     1       7.375   9.771   3.037  0.00  0.00    +0.000 A 
ATOM     15  C   UNL     1       6.716   8.707   2.442  0.00  0.00    +0.005 A 
BRANCH  11  16
ATOM     16  C   UNL     1       3.403  10.218   2.009  0.00  0.00    +0.000 A 
ATOM     17  C   UNL     1       2.566  10.306   0.903  0.00  0.00    -0.000 A 
ATOM     18  C   UNL     1       1.365   9.610   0.835  0.00  0.00    +0.004 A 
ATOM     19  C   UNL     1       0.913   8.893   1.935  0.00  0.00    +0.071 A 
ATOM     20  C   UNL     1       1.509   9.229   3.145  0.00  0.00    +0.004 A 
ATOM     21  C   UNL     1       2.798   9.746   3.168  0.00  0.00    -0.000 A 
BRANCH  19  22
ATOM     22  C   UNL     1       0.156   7.614   1.755  0.00  0.00    +0.419 C 
ATOM     23  F   UNL     1      -1.147   7.955   1.417  0.00  0.00    -0.166 F 
ATOM     24  F   UNL     1       0.204   6.897   2.935  0.00  0.00    -0.166 F 
ATOM     25  F   UNL     1       0.662   6.863   0.714  0.00  0.00    -0.166 F 
ENDBRANCH  19  22
ENDBRANCH  11  16
ENDBRANCH   8  10
ENDBRANCH   1   9
BRANCH   4  26
ATOM     26  C   UNL     1       3.329   6.647  -4.447  0.00  0.00    +0.072 C 
BRANCH  26  27
ATOM     27  C   UNL     1       3.795   7.105  -5.796  0.00  0.00    +0.017 C 
BRANCH  27  28
ATOM     28  C   UNL     1       2.567   7.273  -6.679  0.00  0.00    +0.003 C 
BRANCH  28  29
ATOM     29  C   UNL     1       2.917   7.296  -8.146  0.00  0.00    +0.017 C 
BRANCH  29  30
ATOM     30  C   UNL     1       2.453   5.990  -8.739  0.00  0.00    +0.108 C 
ATOM     31  C   UNL     1       1.375   5.352  -7.959  0.00  0.00    -0.011 A 
ATOM     32  C   UNL     1       0.190   5.597  -8.637  0.00  0.00    -0.004 A 
ATOM     33  C   UNL     1      -1.029   5.353  -8.033  0.00  0.00    -0.000 A 
ATOM     34  C   UNL     1      -1.098   4.879  -6.732  0.00  0.00    -0.000 A 
ATOM     35  C   UNL     1       0.055   4.964  -5.985  0.00  0.00    -0.000 A 
ATOM     36  C   UNL     1       0.482   5.932 -10.023  0.00  0.00    -0.004 A 
ATOM     37  C   UNL     1      -0.315   5.992 -11.150  0.00  0.00    -0.000 A 
ATOM     38  C   UNL     1       0.179   6.602 -12.288  0.00  0.00    -0.000 A 
ATOM     39  C   UNL     1       1.545   6.777 -12.396  0.00  0.00    -0.000 A 
ATOM     40  C   UNL     1       2.350   6.606 -11.281  0.00  0.00    -0.004 A 
ATOM     41  C   UNL     1       1.264   4.978  -6.643  0.00  0.00    -0.004 A 
ATOM     42  C   UNL     1       1.833   6.247 -10.063  0.00  0.00    -0.011 A 
BRANCH  30  43
ATOM     43  C   UNL     1       3.615   5.096  -8.926  0.00  0.00    +0.248 C 
ATOM     44  N   UNL     1       4.891   5.533  -9.372  0.00  0.00    -0.196 NA
ATOM     45  O   UNL     1       3.488   3.881  -8.661  0.00  0.00    -0.273 OA
BRANCH  44  46
ATOM     46  C   UNL     1       6.099   5.000  -8.748  0.00  0.00    +0.218 C 
BRANCH  46  47
ATOM     47  C   UNL     1       7.270   5.528  -9.549  0.00  0.00    +0.417 C 
ATOM     48  F   UNL     1       7.724   6.731  -9.071  0.00  0.00    -0.168 F 
ATOM     49  F   UNL     1       8.292   4.609  -9.440  0.00  0.00    -0.168 F 
ATOM     50  F   UNL     1       6.856   5.619 -10.863  0.00  0.00    -0.168 F 
ENDBRANCH  46  47
ENDBRANCH  44  46
ENDBRANCH  30  43
ENDBRANCH  29  30
ENDBRANCH  28  29
ENDBRANCH  27  28
ENDBRANCH  26  27
ENDBRANCH   4  26
TORSDOF 12
ENDMDL
MODEL 9
REMARK VINA RESULT:      -9.2      3.350     10.834
REMARK  Name = 
REMARK  12 active torsions:
REMARK  status: ('A' for Active; 'I' for Inactive)
REMARK    1  A    between atoms: C_2  and  C_35
REMARK    2  A    between atoms: N_3  and  C_4
REMARK    3  A    between atoms: N_7  and  C_8
REMARK    4  A    between atoms: C_8  and  C_9
REMARK    5  A    between atoms: C_9  and  C_10
REMARK    6  A    between atoms: C_10  and  C_11
REMARK    7  A    between atoms: C_11  and  C_12
REMARK    8  A    between atoms: C_12  and  C_13
REMARK    9  A    between atoms: N_15  and  C_16
REMARK   10  A    between atoms: C_16  and  C_17
REMARK   11  A    between atoms: C_40  and  C_41
REMARK   12  A    between atoms: C_44  and  C_45
REMARK                            x       y       z     vdW  Elec       q    Type
REMARK                         _______ _______ _______ _____ _____    ______ ____
ROOT
ATOM      1  C   UNL     1       4.014   6.294  -2.356  0.00  0.00    +0.098 C 
ATOM      2  C   UNL     1       5.018   7.234  -2.929  0.00  0.00    +0.039 C 
ATOM      3  C   UNL     1       4.691   7.781  -4.275  0.00  0.00    +0.074 C 
ATOM      4  N   UNL     1       3.880   6.953  -5.103  0.00  0.00    -0.273 NA
ATOM      5  C   UNL     1       2.774   6.324  -4.433  0.00  0.00    +0.074 C 
ATOM      6  C   UNL     1       3.379   5.385  -3.394  0.00  0.00    +0.039 C 
ENDROOT
BRANCH   1   9
ATOM      7  O   UNL     1       2.322   5.250  -0.322  0.00  0.00    -0.268 OA
ATOM      8  C   UNL     1       1.891   6.239  -0.990  0.00  0.00    +0.265 C 
ATOM      9  N   UNL     1       2.906   6.970  -1.687  0.00  0.00    -0.203 NA
BRANCH   8  10
ATOM     10  C   UNL     1       0.471   6.514  -1.141  0.00  0.00    +0.055 A 
ATOM     11  C   UNL     1      -0.219   6.876   0.010  0.00  0.00    +0.004 A 
ATOM     12  C   UNL     1      -1.585   6.619   0.050  0.00  0.00    +0.000 A 
ATOM     13  C   UNL     1      -2.309   6.371  -1.108  0.00  0.00    +0.000 A 
ATOM     14  C   UNL     1      -1.640   6.297  -2.322  0.00  0.00    +0.000 A 
ATOM     15  C   UNL     1      -0.271   6.096  -2.238  0.00  0.00    +0.005 A 
BRANCH  11  16
ATOM     16  C   UNL     1       0.405   7.855   0.907  0.00  0.00    +0.000 A 
ATOM     17  C   UNL     1       1.102   7.470   2.046  0.00  0.00    -0.000 A 
ATOM     18  C   UNL     1       2.313   8.054   2.397  0.00  0.00    +0.004 A 
ATOM     19  C   UNL     1       2.804   9.131   1.671  0.00  0.00    +0.071 A 
ATOM     20  C   UNL     1       1.867   9.784   0.878  0.00  0.00    +0.004 A 
ATOM     21  C   UNL     1       0.764   9.095   0.389  0.00  0.00    -0.000 A 
BRANCH  19  22
ATOM     22  C   UNL     1       4.275   9.305   1.461  0.00  0.00    +0.419 C 
ATOM     23  F   UNL     1       4.475  10.610   1.031  0.00  0.00    -0.166 F 
ATOM     24  F   UNL     1       4.704   8.389   0.519  0.00  0.00    -0.166 F 
ATOM     25  F   UNL     1       4.981   9.153   2.637  0.00  0.00    -0.166 F 
ENDBRANCH  19  22
ENDBRANCH  11  16
ENDBRANCH   8  10
ENDBRANCH   1   9
BRANCH   4  26
ATOM     26  C   UNL     1       4.588   5.998  -5.901  0.00  0.00    +0.072 C 
BRANCH  26  27
ATOM     27  C   UNL     1       3.709   5.052  -6.664  0.00  0.00    +0.017 C 
BRANCH  27  28
ATOM     28  C   UNL     1       4.289   4.908  -8.064  0.00  0.00    +0.003 C 
BRANCH  28  29
ATOM     29  C   UNL     1       3.242   4.522  -9.078  0.00  0.00    +0.017 C 
BRANCH  29  30
ATOM     30  C   UNL     1       2.882   5.768  -9.848  0.00  0.00    +0.108 C 
ATOM     31  C   UNL     1       4.056   6.445 -10.433  0.00  0.00    -0.011 A 
ATOM     32  C   UNL     1       4.071   6.124 -11.782  0.00  0.00    -0.004 A 
ATOM     33  C   UNL     1       5.186   6.391 -12.556  0.00  0.00    -0.000 A 
ATOM     34  C   UNL     1       6.318   6.965 -11.999  0.00  0.00    -0.000 A 
ATOM     35  C   UNL     1       6.397   6.961 -10.625  0.00  0.00    -0.000 A 
ATOM     36  C   UNL     1       2.746   5.687 -12.195  0.00  0.00    -0.004 A 
ATOM     37  C   UNL     1       2.169   5.522 -13.440  0.00  0.00    -0.000 A 
ATOM     38  C   UNL     1       0.974   4.834 -13.539  0.00  0.00    -0.000 A 
ATOM     39  C   UNL     1       0.213   4.677 -12.398  0.00  0.00    -0.000 A 
ATOM     40  C   UNL     1       0.768   4.951 -11.158  0.00  0.00    -0.004 A 
ATOM     41  C   UNL     1       5.228   6.919  -9.900  0.00  0.00    -0.004 A 
ATOM     42  C   UNL     1       2.059   5.395 -11.025  0.00  0.00    -0.011 A 
BRANCH  30  43
ATOM     43  C   UNL     1       2.091   6.667  -8.982  0.00  0.00    +0.248 C 
ATOM     44  N   UNL     1       0.850   6.311  -8.389  0.00  0.00    -0.196 NA
ATOM     45  O   UNL     1       2.537   7.807  -8.730  0.00  0.00    -0.273 OA
BRANCH  44  46
ATOM     46  C   UNL     1       0.568   6.696  -7.009  0.00  0.00    +0.218 C 
BRANCH  46  47
ATOM     47  C   UNL     1      -0.437   5.696  -6.477  0.00  0.00    +0.417 C 
ATOM     48  F   UNL     1       0.137   4.792  -5.621  0.00  0.00    -0.168 F 
ATOM     49  F   UNL     1      -1.392   6.404  -5.778  0.00  0.00    -0.168 F 
ATOM     50  F   UNL     1      -1.013   5.079  -7.568  0.00  0.00    -0.168 F 
ENDBRANCH  46  47
ENDBRANCH  44  46
ENDBRANCH  30  43
ENDBRANCH  29  30
ENDBRANCH  28  29
ENDBRANCH  27  28
ENDBRANCH  26  27
ENDBRANCH   4  26
TORSDOF 12
ENDMDL
