MODEL 1
REMARK VINA RESULT:      -5.3      0.000      0.000
REMARK  Name = 
REMARK  1 active torsions:
REMARK  status: ('A' for Active; 'I' for Inactive)
REMARK    1  A    between atoms: C_7  and  C_8
REMARK                            x       y       z     vdW  Elec       q    Type
REMARK                         _______ _______ _______ _____ _____    ______ ____
ROOT
ATOM      1  N   UNL     1       7.584   4.766 -13.052  0.00  0.00    -0.128 NA
ATOM      2  C   UNL     1       7.063   5.444 -11.918  0.00  0.00    +0.090 A 
ATOM      3  C   UNL     1       5.717   5.629 -11.697  0.00  0.00    +0.028 A 
ATOM      4  C   UNL     1       5.193   5.725 -10.418  0.00  0.00    +0.120 A 
ATOM      5  C   UNL     1       6.072   5.565  -9.353  0.00  0.00    +0.202 A 
ATOM      6  O   UNL     1       5.574   5.031  -8.160  0.00  0.00    -0.286 OA
ATOM      7  C   UNL     1       7.443   5.693  -9.545  0.00  0.00    +0.044 A 
ATOM      8  C   UNL     1       7.912   5.709 -10.851  0.00  0.00    +0.021 A 
ENDROOT
BRANCH   4   9
ATOM      9  C   UNL     1       3.807   6.059 -10.147  0.00  0.00    +0.391 C 
ATOM     10  O   UNL     1       3.481   7.142  -9.346  0.00  0.00    -0.240 OA
ATOM     11  O   UNL     1       2.843   5.324 -10.516  0.00  0.00    -0.240 OA
ENDBRANCH   4   9
TORSDOF 1
ENDMDL
MODEL 2
REMARK VINA RESULT:      -5.2      6.279      7.691
REMARK  Name = 
REMARK  1 active torsions:
REMARK  status: ('A' for Active; 'I' for Inactive)
REMARK    1  A    between atoms: C_7  and  C_8
REMARK                            x       y       z     vdW  Elec       q    Type
REMARK                         _______ _______ _______ _____ _____    ______ ____
ROOT
ATOM      1  N   UNL     1      -1.342   5.782  -3.908  0.00  0.00    -0.128 NA
ATOM      2  C   UNL     1      -0.897   6.135  -5.209  0.00  0.00    +0.090 A 
ATOM      3  C   UNL     1       0.276   6.813  -5.452  0.00  0.00    +0.028 A 
ATOM      4  C   UNL     1       0.987   6.644  -6.630  0.00  0.00    +0.120 A 
ATOM      5  C   UNL     1       0.504   5.710  -7.540  0.00  0.00    +0.202 A 
ATOM      6  O   UNL     1       1.425   5.055  -8.364  0.00  0.00    -0.286 OA
ATOM      7  C   UNL     1      -0.809   5.262  -7.460  0.00  0.00    +0.044 A 
ATOM      8  C   UNL     1      -1.522   5.556  -6.307  0.00  0.00    +0.021 A 
ENDROOT
BRANCH   4   9
ATOM      9  C   UNL     1       2.146   7.442  -6.982  0.00  0.00    +0.391 C 
ATOM     10  O   UNL     1       3.306   7.381  -6.227  0.00  0.00    -0.240 OA
ATOM     11  O   UNL     1       2.122   8.313  -7.904  0.00  0.00    -0.240 OA
ENDBRANCH   4   9
TORSDOF 1
ENDMDL
MODEL 3
REMARK VINA RESULT:      -5.1      7.773      9.406
REMARK  Name = 
REMARK  1 active torsions:
REMARK  status: ('A' for Active; 'I' for Inactive)
REMARK    1  A    between atoms: C_7  and  C_8
REMARK                            x       y       z     vdW  Elec       q    Type
REMARK                         _______ _______ _______ _____ _____    ______ ____
ROOT
ATOM      1  N   UNL     1      -2.500   4.984  -2.269  0.00  0.00    -0.128 NA
ATOM      2  C   UNL     1      -1.871   5.600  -3.383  0.00  0.00    +0.090 A 
ATOM      3  C   UNL     1      -0.575   5.336  -3.764  0.00  0.00    +0.028 A 
ATOM      4  C   UNL     1      -0.168   5.435  -5.085  0.00  0.00    +0.120 A 
ATOM      5  C   UNL     1      -1.136   5.751  -6.031  0.00  0.00    +0.202 A 
ATOM      6  O   UNL     1      -0.974   5.263  -7.332  0.00  0.00    -0.286 OA
ATOM      7  C   UNL     1      -2.344   6.317  -5.641  0.00  0.00    +0.044 A 
ATOM      8  C   UNL     1      -2.658   6.300  -4.289  0.00  0.00    +0.021 A 
ENDROOT
BRANCH   4   9
ATOM      9  C   UNL     1       1.215   5.303  -5.504  0.00  0.00    +0.391 C 
ATOM     10  O   UNL     1       1.987   6.423  -5.768  0.00  0.00    -0.240 OA
ATOM     11  O   UNL     1       1.744   4.181  -5.768  0.00  0.00    -0.240 OA
ENDBRANCH   4   9
TORSDOF 1
ENDMDL
MODEL 4
REMARK VINA RESULT:      -5.1      3.066      3.714
REMARK  Name = 
REMARK  1 active torsions:
REMARK  status: ('A' for Active; 'I' for Inactive)
REMARK    1  A    between atoms: C_7  and  C_8
REMARK                            x       y       z     vdW  Elec       q    Type
REMARK                         _______ _______ _______ _____ _____    ______ ____
ROOT
ATOM      1  N   UNL     1       2.591   5.649 -10.312  0.00  0.00    -0.128 NA
ATOM      2  C   UNL     1       3.969   5.305 -10.311  0.00  0.00    +0.090 A 
ATOM      3  C   UNL     1       4.773   5.390 -11.426  0.00  0.00    +0.028 A 
ATOM      4  C   UNL     1       6.133   5.637 -11.328  0.00  0.00    +0.120 A 
ATOM      5  C   UNL     1       6.653   5.862 -10.059  0.00  0.00    +0.202 A 
ATOM      6  O   UNL     1       7.769   6.697  -9.941  0.00  0.00    -0.286 OA
ATOM      7  C   UNL     1       5.942   5.478  -8.928  0.00  0.00    +0.044 A 
ATOM      8  C   UNL     1       4.610   5.125  -9.092  0.00  0.00    +0.021 A 
ENDROOT
BRANCH   4   9
ATOM      9  C   UNL     1       7.034   5.593 -12.465  0.00  0.00    +0.391 C 
ATOM     10  O   UNL     1       7.064   6.626 -13.388  0.00  0.00    -0.240 OA
ATOM     11  O   UNL     1       7.737   4.574 -12.740  0.00  0.00    -0.240 OA
ENDBRANCH   4   9
TORSDOF 1
ENDMDL
MODEL 5
REMARK VINA RESULT:      -5.0      7.746      9.114
REMARK  Name = 
REMARK  1 active torsions:
REMARK  status: ('A' for Active; 'I' for Inactive)
REMARK    1  A    between atoms: C_7  and  C_8
REMARK                            x       y       z     vdW  Elec       q    Type
REMARK                         _______ _______ _______ _____ _____    ______ ____
ROOT
ATOM      1  N   UNL     1       2.337   5.370  -5.124  0.00  0.00    -0.128 NA
ATOM      2  C   UNL     1       0.937   5.134  -5.161  0.00  0.00    +0.090 A 
ATOM      3  C   UNL     1       0.107   5.322  -4.079  0.00  0.00    +0.028 A 
ATOM      4  C   UNL     1      -1.226   5.670  -4.233  0.00  0.00    +0.120 A 
ATOM      5  C   UNL     1      -1.685   5.888  -5.527  0.00  0.00    +0.202 A 
ATOM      6  O   UNL     1      -2.728   6.802  -5.712  0.00  0.00    -0.286 OA
ATOM      7  C   UNL     1      -0.971   5.408  -6.618  0.00  0.00    +0.044 A 
ATOM      8  C   UNL     1       0.323   4.959  -6.396  0.00  0.00    +0.021 A 
ENDROOT
BRANCH   4   9
ATOM      9  C   UNL     1      -2.163   5.738  -3.128  0.00  0.00    +0.391 C 
ATOM     10  O   UNL     1      -2.336   6.913  -2.414  0.00  0.00    -0.240 OA
ATOM     11  O   UNL     1      -2.771   4.718  -2.683  0.00  0.00    -0.240 OA
ENDBRANCH   4   9
TORSDOF 1
ENDMDL
MODEL 6
REMARK VINA RESULT:      -4.9      8.133      9.275
REMARK  Name = 
REMARK  1 active torsions:
REMARK  status: ('A' for Active; 'I' for Inactive)
REMARK    1  A    between atoms: C_7  and  C_8
REMARK                            x       y       z     vdW  Elec       q    Type
REMARK                         _______ _______ _______ _____ _____    ______ ____
ROOT
ATOM      1  N   UNL     1      -0.424   5.386  -7.866  0.00  0.00    -0.128 NA
ATOM      2  C   UNL     1      -0.958   5.366  -6.550  0.00  0.00    +0.090 A 
ATOM      3  C   UNL     1      -0.184   5.242  -5.419  0.00  0.00    +0.028 A 
ATOM      4  C   UNL     1      -0.568   5.793  -4.207  0.00  0.00    +0.120 A 
ATOM      5  C   UNL     1      -1.742   6.537  -4.186  0.00  0.00    +0.202 A 
ATOM      6  O   UNL     1      -1.846   7.582  -3.261  0.00  0.00    -0.286 OA
ATOM      7  C   UNL     1      -2.674   6.411  -5.209  0.00  0.00    +0.044 A 
ATOM      8  C   UNL     1      -2.281   5.747  -6.362  0.00  0.00    +0.021 A 
ENDROOT
BRANCH   4   9
ATOM      9  C   UNL     1       0.147   5.564  -2.965  0.00  0.00    +0.391 C 
ATOM     10  O   UNL     1       1.437   6.038  -2.791  0.00  0.00    -0.240 OA
ATOM     11  O   UNL     1      -0.309   4.827  -2.040  0.00  0.00    -0.240 OA
ENDBRANCH   4   9
TORSDOF 1
ENDMDL
MODEL 7
REMARK VINA RESULT:      -4.8      2.867      4.037
REMARK  Name = 
REMARK  1 active torsions:
REMARK  status: ('A' for Active; 'I' for Inactive)
REMARK    1  A    between atoms: C_7  and  C_8
REMARK                            x       y       z     vdW  Elec       q    Type
REMARK                         _______ _______ _______ _____ _____    ______ ____
ROOT
ATOM      1  N   UNL     1       2.458   5.405 -10.975  0.00  0.00    -0.128 NA
ATOM      2  C   UNL     1       3.731   5.816 -11.451  0.00  0.00    +0.090 A 
ATOM      3  C   UNL     1       4.811   6.044 -10.629  0.00  0.00    +0.028 A 
ATOM      4  C   UNL     1       6.114   5.858 -11.065  0.00  0.00    +0.120 A 
ATOM      5  C   UNL     1       6.293   5.368 -12.353  0.00  0.00    +0.202 A 
ATOM      6  O   UNL     1       7.429   4.593 -12.613  0.00  0.00    -0.286 OA
ATOM      7  C   UNL     1       5.261   5.432 -13.281  0.00  0.00    +0.044 A 
ATOM      8  C   UNL     1       3.991   5.737 -12.814  0.00  0.00    +0.021 A 
ENDROOT
BRANCH   4   9
ATOM      9  C   UNL     1       7.277   6.222 -10.277  0.00  0.00    +0.391 C 
ATOM     10  O   UNL     1       7.819   5.336  -9.360  0.00  0.00    -0.240 OA
ATOM     11  O   UNL     1       7.775   7.388 -10.293  0.00  0.00    -0.240 OA
ENDBRANCH   4   9
TORSDOF 1
ENDMDL
MODEL 8
REMARK VINA RESULT:      -4.7      5.451      6.725
REMARK  Name = 
REMARK  1 active torsions:
REMARK  status: ('A' for Active; 'I' for Inactive)
REMARK    1  A    between atoms: C_7  and  C_8
REMARK                            x       y       z     vdW  Elec       q    Type
REMARK                         _______ _______ _______ _____ _____    ______ ____
ROOT
ATOM      1  N   UNL     1      -2.111   5.377  -6.485  0.00  0.00    -0.128 NA
ATOM      2  C   UNL     1      -0.731   5.549  -6.774  0.00  0.00    +0.090 A 
ATOM      3  C   UNL     1      -0.210   5.492  -8.046  0.00  0.00    +0.028 A 
ATOM      4  C   UNL     1       0.923   6.205  -8.404  0.00  0.00    +0.120 A 
ATOM      5  C   UNL     1       1.485   7.038  -7.442  0.00  0.00    +0.202 A 
ATOM      6  O   UNL     1       2.158   8.186  -7.874  0.00  0.00    -0.286 OA
ATOM      7  C   UNL     1       1.173   6.872  -6.098  0.00  0.00    +0.044 A 
ATOM      8  C   UNL     1       0.099   6.053  -5.780  0.00  0.00    +0.021 A 
ENDROOT
BRANCH   4   9
ATOM      9  C   UNL     1       1.583   6.063  -9.688  0.00  0.00    +0.391 C 
ATOM     10  O   UNL     1       1.085   6.695 -10.816  0.00  0.00    -0.240 OA
ATOM     11  O   UNL     1       2.555   5.269  -9.873  0.00  0.00    -0.240 OA
ENDBRANCH   4   9
TORSDOF 1
ENDMDL
MODEL 9
REMARK VINA RESULT:      -4.6      1.933      2.568
REMARK  Name = 
REMARK  1 active torsions:
REMARK  status: ('A' for Active; 'I' for Inactive)
REMARK    1  A    between atoms: C_7  and  C_8
REMARK                            x       y       z     vdW  Elec       q    Type
REMARK                         _______ _______ _______ _____ _____    ______ ____
ROOT
ATOM      1  N   UNL     1       4.890   5.394 -12.271  0.00  0.00    -0.128 NA
ATOM      2  C   UNL     1       4.814   5.908 -10.950  0.00  0.00    +0.090 A 
ATOM      3  C   UNL     1       3.664   6.435 -10.406  0.00  0.00    +0.028 A 
ATOM      4  C   UNL     1       3.409   6.379  -9.045  0.00  0.00    +0.120 A 
ATOM      5  C   UNL     1       4.331   5.710  -8.247  0.00  0.00    +0.202 A 
ATOM      6  O   UNL     1       3.868   5.085  -7.085  0.00  0.00    -0.286 OA
ATOM      7  C   UNL     1       5.615   5.457  -8.716  0.00  0.00    +0.044 A 
ATOM      8  C   UNL     1       5.855   5.640 -10.070  0.00  0.00    +0.021 A 
ENDROOT
BRANCH   4   9
ATOM      9  C   UNL     1       2.282   7.044  -8.418  0.00  0.00    +0.391 C 
ATOM     10  O   UNL     1       1.049   6.419  -8.327  0.00  0.00    -0.240 OA
ATOM     11  O   UNL     1       2.327   8.254  -8.040  0.00  0.00    -0.240 OA
ENDBRANCH   4   9
TORSDOF 1
ENDMDL
