MODEL 1
REMARK VINA RESULT:      -5.1      0.000      0.000
REMARK  Name = 
REMARK  5 active torsions:
REMARK  status: ('A' for Active; 'I' for Inactive)
REMARK    1  A    between atoms: C_2  and  C_3
REMARK    2  A    between atoms: C_3  and  C_4
REMARK    3  A    between atoms: C_4  and  C_5
REMARK    4  A    between atoms: C_5  and  C_7
REMARK    5  A    between atoms: C_5  and  C_10
REMARK                            x       y       z     vdW  Elec       q    Type
REMARK                         _______ _______ _______ _____ _____    ______ ____
ROOT
ATOM      1  C   UNL     1       6.725   5.989 -11.066  0.00  0.00    +0.231 C 
ATOM      2  N   UNL     1       7.845   5.504 -10.297  0.00  0.00    -0.117 NA
ENDROOT
BRANCH   1   3
ATOM      3  C   UNL     1       6.907   7.471 -11.255  0.00  0.00    +0.345 C 
ATOM      4  F   UNL     1       7.743   7.980 -10.269  0.00  0.00    -0.196 F 
ATOM      5  F   UNL     1       5.721   8.167 -11.166  0.00  0.00    -0.196 F 
ENDBRANCH   1   3
BRANCH   1   6
ATOM      6  C   UNL     1       6.734   5.337 -12.411  0.00  0.00    +0.385 C 
ATOM      7  O   UNL     1       5.523   4.914 -12.922  0.00  0.00    -0.244 OA
ATOM      8  O   UNL     1       7.743   4.623 -12.690  0.00  0.00    -0.244 OA
ENDBRANCH   1   6
BRANCH   1   9
ATOM      9  C   UNL     1       5.416   5.631 -10.414  0.00  0.00    +0.036 C 
BRANCH   9  10
ATOM     10  C   UNL     1       5.513   5.435  -8.932  0.00  0.00    +0.023 C 
BRANCH  10  12
ATOM     11  N   UNL     1       3.568   4.049  -8.927  0.00  0.00    -0.131 NA
ATOM     12  C   UNL     1       4.185   5.186  -8.272  0.00  0.00    +0.109 C 
ENDBRANCH  10  12
ENDBRANCH   9  10
ENDBRANCH   1   9
TORSDOF 5
ENDMDL
MODEL 2
REMARK VINA RESULT:      -4.9      8.620     10.207
REMARK  Name = 
REMARK  5 active torsions:
REMARK  status: ('A' for Active; 'I' for Inactive)
REMARK    1  A    between atoms: C_2  and  C_3
REMARK    2  A    between atoms: C_3  and  C_4
REMARK    3  A    between atoms: C_4  and  C_5
REMARK    4  A    between atoms: C_5  and  C_7
REMARK    5  A    between atoms: C_5  and  C_10
REMARK                            x       y       z     vdW  Elec       q    Type
REMARK                         _______ _______ _______ _____ _____    ______ ____
ROOT
ATOM      1  C   UNL     1      -1.739   6.076  -4.591  0.00  0.00    +0.231 C 
ATOM      2  N   UNL     1      -2.523   5.332  -5.546  0.00  0.00    -0.117 NA
ENDROOT
BRANCH   1   3
ATOM      3  C   UNL     1      -2.293   7.474  -4.533  0.00  0.00    +0.345 C 
ATOM      4  F   UNL     1      -3.143   7.697  -5.610  0.00  0.00    -0.196 F 
ATOM      5  F   UNL     1      -1.311   8.438  -4.601  0.00  0.00    -0.196 F 
ENDBRANCH   1   3
BRANCH   1   6
ATOM      6  C   UNL     1      -1.890   5.454  -3.240  0.00  0.00    +0.385 C 
ATOM      7  O   UNL     1      -0.740   5.047  -2.594  0.00  0.00    -0.244 OA
ATOM      8  O   UNL     1      -2.922   4.741  -3.055  0.00  0.00    -0.244 OA
ENDBRANCH   1   6
BRANCH   1   9
ATOM      9  C   UNL     1      -0.273   6.033  -4.931  0.00  0.00    +0.036 C 
BRANCH   9  10
ATOM     10  C   UNL     1       0.036   5.249  -6.170  0.00  0.00    +0.023 C 
BRANCH  10  12
ATOM     11  N   UNL     1       2.141   4.868  -5.110  0.00  0.00    -0.131 NA
ATOM     12  C   UNL     1       1.161   4.266  -5.992  0.00  0.00    +0.109 C 
ENDBRANCH  10  12
ENDBRANCH   9  10
ENDBRANCH   1   9
TORSDOF 5
ENDMDL
MODEL 3
REMARK VINA RESULT:      -4.8      9.673     11.458
REMARK  Name = 
REMARK  5 active torsions:
REMARK  status: ('A' for Active; 'I' for Inactive)
REMARK    1  A    between atoms: C_2  and  C_3
REMARK    2  A    between atoms: C_3  and  C_4
REMARK    3  A    between atoms: C_4  and  C_5
REMARK    4  A    between atoms: C_5  and  C_7
REMARK    5  A    between atoms: C_5  and  C_10
REMARK                            x       y       z     vdW  Elec       q    Type
REMARK                         _______ _______ _______ _____ _____    ______ ____
ROOT
ATOM      1  C   UNL     1      -1.803   5.807  -2.533  0.00  0.00    +0.231 C 
ATOM      2  N   UNL     1      -2.768   4.745  -2.683  0.00  0.00    -0.117 NA
ENDROOT
BRANCH   1   3
ATOM      3  C   UNL     1      -2.543   7.039  -2.088  0.00  0.00    +0.345 C 
ATOM      4  F   UNL     1      -3.912   6.861  -2.253  0.00  0.00    -0.196 F 
ATOM      5  F   UNL     1      -2.200   8.157  -2.816  0.00  0.00    -0.196 F 
ENDBRANCH   1   3
BRANCH   1   6
ATOM      6  C   UNL     1      -0.824   5.434  -1.466  0.00  0.00    +0.385 C 
ATOM      7  O   UNL     1      -0.494   6.401  -0.539  0.00  0.00    -0.244 OA
ATOM      8  O   UNL     1       0.100   4.633  -1.798  0.00  0.00    -0.244 OA
ENDBRANCH   1   6
BRANCH   1   9
ATOM      9  C   UNL     1      -1.014   6.015  -3.798  0.00  0.00    +0.036 C 
BRANCH   9  10
ATOM     10  C   UNL     1      -1.794   5.742  -5.048  0.00  0.00    +0.023 C 
BRANCH  10  12
ATOM     11  N   UNL     1       0.299   4.842  -5.762  0.00  0.00    -0.131 NA
ATOM     12  C   UNL     1      -0.929   5.445  -6.242  0.00  0.00    +0.109 C 
ENDBRANCH  10  12
ENDBRANCH   9  10
ENDBRANCH   1   9
TORSDOF 5
ENDMDL
MODEL 4
REMARK VINA RESULT:      -4.6      7.528      8.648
REMARK  Name = 
REMARK  5 active torsions:
REMARK  status: ('A' for Active; 'I' for Inactive)
REMARK    1  A    between atoms: C_2  and  C_3
REMARK    2  A    between atoms: C_3  and  C_4
REMARK    3  A    between atoms: C_4  and  C_5
REMARK    4  A    between atoms: C_5  and  C_7
REMARK    5  A    between atoms: C_5  and  C_10
REMARK                            x       y       z     vdW  Elec       q    Type
REMARK                         _______ _______ _______ _____ _____    ______ ____
ROOT
ATOM      1  C   UNL     1       0.251   6.022  -5.957  0.00  0.00    +0.231 C 
ATOM      2  N   UNL     1       1.110   6.960  -6.638  0.00  0.00    -0.117 NA
ENDROOT
BRANCH   1   3
ATOM      3  C   UNL     1      -0.651   5.395  -6.986  0.00  0.00    +0.345 C 
ATOM      4  F   UNL     1      -0.202   5.702  -8.265  0.00  0.00    -0.196 F 
ATOM      5  F   UNL     1      -1.948   5.851  -6.904  0.00  0.00    -0.196 F 
ENDBRANCH   1   3
BRANCH   1   6
ATOM      6  C   UNL     1       1.088   4.944  -5.346  0.00  0.00    +0.385 C 
ATOM      7  O   UNL     1       2.263   5.323  -4.729  0.00  0.00    -0.244 OA
ATOM      8  O   UNL     1       1.101   3.827  -5.944  0.00  0.00    -0.244 OA
ENDBRANCH   1   6
BRANCH   1   9
ATOM      9  C   UNL     1      -0.502   6.682  -4.833  0.00  0.00    +0.036 C 
BRANCH   9  10
ATOM     10  C   UNL     1      -0.951   5.730  -3.767  0.00  0.00    +0.023 C 
BRANCH  10  12
ATOM     11  N   UNL     1      -2.733   4.814  -2.468  0.00  0.00    -0.131 NA
ATOM     12  C   UNL     1      -2.441   5.717  -3.564  0.00  0.00    +0.109 C 
ENDBRANCH  10  12
ENDBRANCH   9  10
ENDBRANCH   1   9
TORSDOF 5
ENDMDL
MODEL 5
REMARK VINA RESULT:      -4.5      9.521     10.858
REMARK  Name = 
REMARK  5 active torsions:
REMARK  status: ('A' for Active; 'I' for Inactive)
REMARK    1  A    between atoms: C_2  and  C_3
REMARK    2  A    between atoms: C_3  and  C_4
REMARK    3  A    between atoms: C_4  and  C_5
REMARK    4  A    between atoms: C_5  and  C_7
REMARK    5  A    between atoms: C_5  and  C_10
REMARK                            x       y       z     vdW  Elec       q    Type
REMARK                         _______ _______ _______ _____ _____    ______ ____
ROOT
ATOM      1  C   UNL     1      -1.787   6.468  -3.760  0.00  0.00    +0.231 C 
ATOM      2  N   UNL     1      -2.068   7.851  -4.059  0.00  0.00    -0.117 NA
ENDROOT
BRANCH   1   3
ATOM      3  C   UNL     1      -0.299   6.329  -3.589  0.00  0.00    +0.345 C 
ATOM      4  F   UNL     1       0.107   5.051  -3.953  0.00  0.00    -0.196 F 
ATOM      5  F   UNL     1       0.106   6.516  -2.285  0.00  0.00    -0.196 F 
ENDBRANCH   1   3
BRANCH   1   6
ATOM      6  C   UNL     1      -2.446   6.102  -2.468  0.00  0.00    +0.385 C 
ATOM      7  O   UNL     1      -2.690   4.763  -2.236  0.00  0.00    -0.244 OA
ATOM      8  O   UNL     1      -3.304   6.917  -2.017  0.00  0.00    -0.244 OA
ENDBRANCH   1   6
BRANCH   1   9
ATOM      9  C   UNL     1      -2.351   5.553  -4.814  0.00  0.00    +0.036 C 
BRANCH   9  10
ATOM     10  C   UNL     1      -2.137   6.041  -6.214  0.00  0.00    +0.023 C 
BRANCH  10  12
ATOM     11  N   UNL     1       0.053   5.811  -7.140  0.00  0.00    -0.131 NA
ATOM     12  C   UNL     1      -1.234   5.153  -7.027  0.00  0.00    +0.109 C 
ENDBRANCH  10  12
ENDBRANCH   9  10
ENDBRANCH   1   9
TORSDOF 5
ENDMDL
MODEL 6
REMARK VINA RESULT:      -4.5      2.424      3.252
REMARK  Name = 
REMARK  5 active torsions:
REMARK  status: ('A' for Active; 'I' for Inactive)
REMARK    1  A    between atoms: C_2  and  C_3
REMARK    2  A    between atoms: C_3  and  C_4
REMARK    3  A    between atoms: C_4  and  C_5
REMARK    4  A    between atoms: C_5  and  C_7
REMARK    5  A    between atoms: C_5  and  C_10
REMARK                            x       y       z     vdW  Elec       q    Type
REMARK                         _______ _______ _______ _____ _____    ______ ____
ROOT
ATOM      1  C   UNL     1       6.304   6.260 -11.108  0.00  0.00    +0.231 C 
ATOM      2  N   UNL     1       5.325   5.951 -10.095  0.00  0.00    -0.117 NA
ENDROOT
BRANCH   1   3
ATOM      3  C   UNL     1       6.272   7.746 -11.339  0.00  0.00    +0.345 C 
ATOM      4  F   UNL     1       6.445   8.024 -12.690  0.00  0.00    -0.196 F 
ATOM      5  F   UNL     1       7.276   8.410 -10.668  0.00  0.00    -0.196 F 
ENDBRANCH   1   3
BRANCH   1   6
ATOM      6  C   UNL     1       7.663   5.890 -10.605  0.00  0.00    +0.385 C 
ATOM      7  O   UNL     1       8.586   5.449 -11.532  0.00  0.00    -0.244 OA
ATOM      8  O   UNL     1       7.718   5.357  -9.457  0.00  0.00    -0.244 OA
ENDBRANCH   1   6
BRANCH   1   9
ATOM      9  C   UNL     1       6.069   5.460 -12.361  0.00  0.00    +0.036 C 
BRANCH   9  10
ATOM     10  C   UNL     1       4.622   5.190 -12.642  0.00  0.00    +0.023 C 
BRANCH  10  12
ATOM     11  N   UNL     1       2.968   4.998 -14.354  0.00  0.00    -0.131 NA
ATOM     12  C   UNL     1       4.156   5.732 -13.966  0.00  0.00    +0.109 C 
ENDBRANCH  10  12
ENDBRANCH   9  10
ENDBRANCH   1   9
TORSDOF 5
ENDMDL
MODEL 7
REMARK VINA RESULT:      -4.3      5.987      7.136
REMARK  Name = 
REMARK  5 active torsions:
REMARK  status: ('A' for Active; 'I' for Inactive)
REMARK    1  A    between atoms: C_2  and  C_3
REMARK    2  A    between atoms: C_3  and  C_4
REMARK    3  A    between atoms: C_4  and  C_5
REMARK    4  A    between atoms: C_5  and  C_7
REMARK    5  A    between atoms: C_5  and  C_10
REMARK                            x       y       z     vdW  Elec       q    Type
REMARK                         _______ _______ _______ _____ _____    ______ ____
ROOT
ATOM      1  C   UNL     1       1.349   5.765  -7.257  0.00  0.00    +0.231 C 
ATOM      2  N   UNL     1       0.938   5.874  -8.635  0.00  0.00    -0.117 NA
ENDROOT
BRANCH   1   3
ATOM      3  C   UNL     1       2.388   4.680  -7.172  0.00  0.00    +0.345 C 
ATOM      4  F   UNL     1       2.434   3.968  -8.365  0.00  0.00    -0.196 F 
ATOM      5  F   UNL     1       2.122   3.765  -6.177  0.00  0.00    -0.196 F 
ENDBRANCH   1   3
BRANCH   1   6
ATOM      6  C   UNL     1       1.977   7.053  -6.829  0.00  0.00    +0.385 C 
ATOM      7  O   UNL     1       1.964   8.098  -7.730  0.00  0.00    -0.244 OA
ATOM      8  O   UNL     1       2.997   6.966  -6.081  0.00  0.00    -0.244 OA
ENDBRANCH   1   6
BRANCH   1   9
ATOM      9  C   UNL     1       0.171   5.529  -6.349  0.00  0.00    +0.036 C 
BRANCH   9  10
ATOM     10  C   UNL     1      -1.124   5.340  -7.078  0.00  0.00    +0.023 C 
BRANCH  10  12
ATOM     11  N   UNL     1      -1.943   6.802  -5.376  0.00  0.00    -0.131 NA
ATOM     12  C   UNL     1      -2.331   5.725  -6.266  0.00  0.00    +0.109 C 
ENDBRANCH  10  12
ENDBRANCH   9  10
ENDBRANCH   1   9
TORSDOF 5
ENDMDL
MODEL 8
REMARK VINA RESULT:      -4.3      2.870      3.183
REMARK  Name = 
REMARK  5 active torsions:
REMARK  status: ('A' for Active; 'I' for Inactive)
REMARK    1  A    between atoms: C_2  and  C_3
REMARK    2  A    between atoms: C_3  and  C_4
REMARK    3  A    between atoms: C_4  and  C_5
REMARK    4  A    between atoms: C_5  and  C_7
REMARK    5  A    between atoms: C_5  and  C_10
REMARK                            x       y       z     vdW  Elec       q    Type
REMARK                         _______ _______ _______ _____ _____    ______ ____
ROOT
ATOM      1  C   UNL     1       5.679   6.373 -10.732  0.00  0.00    +0.231 C 
ATOM      2  N   UNL     1       5.473   7.782 -10.966  0.00  0.00    -0.117 NA
ENDROOT
BRANCH   1   3
ATOM      3  C   UNL     1       5.668   5.680 -12.068  0.00  0.00    +0.345 C 
ATOM      4  F   UNL     1       4.551   4.860 -12.172  0.00  0.00    -0.196 F 
ATOM      5  F   UNL     1       6.769   4.873 -12.257  0.00  0.00    -0.196 F 
ENDBRANCH   1   3
BRANCH   1   6
ATOM      6  C   UNL     1       7.023   6.171 -10.108  0.00  0.00    +0.385 C 
ATOM      7  O   UNL     1       7.086   5.383  -8.976  0.00  0.00    -0.244 OA
ATOM      8  O   UNL     1       7.826   7.149 -10.159  0.00  0.00    -0.244 OA
ENDBRANCH   1   6
BRANCH   1   9
ATOM      9  C   UNL     1       4.661   5.822  -9.770  0.00  0.00    +0.036 C 
BRANCH   9  10
ATOM     10  C   UNL     1       3.488   6.728  -9.548  0.00  0.00    +0.023 C 
BRANCH  10  12
ATOM     11  N   UNL     1       2.290   8.053  -7.964  0.00  0.00    -0.131 NA
ATOM     12  C   UNL     1       3.094   6.855  -8.102  0.00  0.00    +0.109 C 
ENDBRANCH  10  12
ENDBRANCH   9  10
ENDBRANCH   1   9
TORSDOF 5
ENDMDL
MODEL 9
REMARK VINA RESULT:      -4.3      6.080      6.658
REMARK  Name = 
REMARK  5 active torsions:
REMARK  status: ('A' for Active; 'I' for Inactive)
REMARK    1  A    between atoms: C_2  and  C_3
REMARK    2  A    between atoms: C_3  and  C_4
REMARK    3  A    between atoms: C_4  and  C_5
REMARK    4  A    between atoms: C_5  and  C_7
REMARK    5  A    between atoms: C_5  and  C_10
REMARK                            x       y       z     vdW  Elec       q    Type
REMARK                         _______ _______ _______ _____ _____    ______ ____
ROOT
ATOM      1  C   UNL     1       1.709   6.089  -7.699  0.00  0.00    +0.231 C 
ATOM      2  N   UNL     1       2.771   5.122  -7.568  0.00  0.00    -0.117 NA
ENDROOT
BRANCH   1   3
ATOM      3  C   UNL     1       0.543   5.604  -6.880  0.00  0.00    +0.345 C 
ATOM      4  F   UNL     1       0.023   6.647  -6.123  0.00  0.00    -0.196 F 
ATOM      5  F   UNL     1       0.894   4.610  -5.993  0.00  0.00    -0.196 F 
ENDBRANCH   1   3
BRANCH   1   6
ATOM      6  C   UNL     1       2.166   7.398  -7.139  0.00  0.00    +0.385 C 
ATOM      7  O   UNL     1       2.118   8.498  -7.971  0.00  0.00    -0.244 OA
ATOM      8  O   UNL     1       3.126   7.358  -6.312  0.00  0.00    -0.244 OA
ENDBRANCH   1   6
BRANCH   1   9
ATOM      9  C   UNL     1       1.359   6.329  -9.143  0.00  0.00    +0.036 C 
BRANCH   9  10
ATOM     10  C   UNL     1       0.095   5.653  -9.579  0.00  0.00    +0.023 C 
BRANCH  10  12
ATOM     11  N   UNL     1       0.881   5.287 -11.804  0.00  0.00    -0.131 NA
ATOM     12  C   UNL     1       0.307   4.620 -10.651  0.00  0.00    +0.109 C 
ENDBRANCH  10  12
ENDBRANCH   9  10
ENDBRANCH   1   9
TORSDOF 5
ENDMDL
