MODEL 1
REMARK VINA RESULT:      -9.4      0.000      0.000
REMARK  Name = 
REMARK  6 active torsions:
REMARK  status: ('A' for Active; 'I' for Inactive)
REMARK    1  A    between atoms: C_2  and  C_5
REMARK    2  A    between atoms: C_5  and  N_6
REMARK    3  A    between atoms: N_10  and  C_11
REMARK    4  A    between atoms: C_15  and  C_16
REMARK    5  A    between atoms: C_22  and  C_23
REMARK    6  A    between atoms: C_27  and  C_28
REMARK                            x       y       z     vdW  Elec       q    Type
REMARK                         _______ _______ _______ _____ _____    ______ ____
ROOT
ATOM      1  N   UNL     1      -1.453   6.083  -6.040  0.00  0.00    -0.201 NA
ATOM      2  C   UNL     1      -0.371   5.367  -6.651  0.00  0.00    +0.240 A 
ATOM      3  N   UNL     1      -0.348   5.158  -7.991  0.00  0.00    -0.192 NA
ATOM      4  C   UNL     1       0.735   5.328  -8.752  0.00  0.00    +0.186 A 
ATOM      5  N   UNL     1       1.932   5.262  -8.141  0.00  0.00    -0.191 NA
ATOM      6  C   UNL     1       1.992   5.431  -6.798  0.00  0.00    +0.245 A 
ATOM      7  N   UNL     1       3.202   5.271  -6.085  0.00  0.00    -0.177 NA
ATOM      8  N   UNL     1       0.844   5.614  -6.102  0.00  0.00    -0.178 NA
ENDROOT
BRANCH   4   9
ATOM      9  C   UNL     1       0.615   5.646 -10.182  0.00  0.00    +0.117 A 
ATOM     10  N   UNL     1       1.574   5.350 -11.058  0.00  0.00    -0.238 NA
ATOM     11  C   UNL     1       1.595   6.049 -12.218  0.00  0.00    +0.153 A 
ATOM     12  C   UNL     1       0.823   7.188 -12.401  0.00  0.00    +0.023 A 
ATOM     13  C   UNL     1      -0.293   7.371 -11.594  0.00  0.00    +0.003 A 
ATOM     14  C   UNL     1      -0.461   6.429 -10.586  0.00  0.00    +0.022 A 
BRANCH  11  15
ATOM     15  C   UNL     1       2.384   5.603 -13.405  0.00  0.00    +0.435 C 
ATOM     16  F   UNL     1       1.796   4.442 -13.884  0.00  0.00    -0.164 F 
ATOM     17  F   UNL     1       2.300   6.532 -14.429  0.00  0.00    -0.164 F 
ATOM     18  F   UNL     1       3.677   5.335 -13.033  0.00  0.00    -0.164 F 
ENDBRANCH  11  15
ENDBRANCH   4   9
BRANCH   7  19
ATOM     19  C   UNL     1       3.556   5.995  -4.925  0.00  0.00    +0.077 A 
ATOM     20  C   UNL     1       3.666   5.287  -3.737  0.00  0.00    +0.040 A 
ATOM     21  C   UNL     1       4.023   5.881  -2.546  0.00  0.00    +0.154 A 
ATOM     22  N   UNL     1       4.506   7.134  -2.582  0.00  0.00    -0.240 NA
ATOM     23  C   UNL     1       4.653   7.746  -3.762  0.00  0.00    +0.100 A 
ATOM     24  C   UNL     1       4.145   7.246  -4.952  0.00  0.00    +0.037 A 
BRANCH  21  25
ATOM     25  C   UNL     1       3.709   5.173  -1.282  0.00  0.00    +0.435 C 
ATOM     26  F   UNL     1       4.673   4.233  -1.005  0.00  0.00    -0.164 F 
ATOM     27  F   UNL     1       2.491   4.550  -1.363  0.00  0.00    -0.164 F 
ATOM     28  F   UNL     1       3.687   6.085  -0.257  0.00  0.00    -0.164 F 
ENDBRANCH  21  25
ENDBRANCH   7  19
BRANCH   1  29
ATOM     29  C   UNL     1      -2.055   5.724  -4.793  0.00  0.00    +0.146 C 
BRANCH  29  31
ATOM     30  C   UNL     1      -2.894   6.803  -2.749  0.00  0.00    +0.035 C 
ATOM     31  C   UNL     1      -1.826   6.861  -3.812  0.00  0.00    +0.147 C 
ATOM     32  O   UNL     1      -0.605   6.661  -3.180  0.00  0.00    -0.224 OA
ATOM     33  C   UNL     1      -1.819   8.180  -4.538  0.00  0.00    +0.035 C 
ENDBRANCH  29  31
ENDBRANCH   1  29
TORSDOF 6
ENDMDL
MODEL 2
REMARK VINA RESULT:      -9.2      3.165      9.753
REMARK  Name = 
REMARK  6 active torsions:
REMARK  status: ('A' for Active; 'I' for Inactive)
REMARK    1  A    between atoms: C_2  and  C_5
REMARK    2  A    between atoms: C_5  and  N_6
REMARK    3  A    between atoms: N_10  and  C_11
REMARK    4  A    between atoms: C_15  and  C_16
REMARK    5  A    between atoms: C_22  and  C_23
REMARK    6  A    between atoms: C_27  and  C_28
REMARK                            x       y       z     vdW  Elec       q    Type
REMARK                         _______ _______ _______ _____ _____    ______ ____
ROOT
ATOM      1  N   UNL     1       6.035   5.963  -9.419  0.00  0.00    -0.201 NA
ATOM      2  C   UNL     1       4.970   5.288  -8.736  0.00  0.00    +0.240 A 
ATOM      3  N   UNL     1       4.983   5.161  -7.385  0.00  0.00    -0.192 NA
ATOM      4  C   UNL     1       3.922   5.380  -6.607  0.00  0.00    +0.186 A 
ATOM      5  N   UNL     1       2.708   5.280  -7.180  0.00  0.00    -0.191 NA
ATOM      6  C   UNL     1       2.611   5.368  -8.528  0.00  0.00    +0.245 A 
ATOM      7  N   UNL     1       1.382   5.169  -9.196  0.00  0.00    -0.177 NA
ATOM      8  N   UNL     1       3.740   5.505  -9.266  0.00  0.00    -0.178 NA
ENDROOT
BRANCH   4   9
ATOM      9  C   UNL     1       4.081   5.783  -5.203  0.00  0.00    +0.117 A 
ATOM     10  N   UNL     1       3.367   5.236  -4.220  0.00  0.00    -0.238 NA
ATOM     11  C   UNL     1       3.243   5.942  -3.072  0.00  0.00    +0.153 A 
ATOM     12  C   UNL     1       3.620   7.276  -2.988  0.00  0.00    +0.023 A 
ATOM     13  C   UNL     1       4.526   7.770  -3.918  0.00  0.00    +0.003 A 
ATOM     14  C   UNL     1       4.883   6.887  -4.931  0.00  0.00    +0.022 A 
BRANCH  11  15
ATOM     15  C   UNL     1       2.769   5.321  -1.799  0.00  0.00    +0.435 C 
ATOM     16  F   UNL     1       3.546   4.195  -1.570  0.00  0.00    -0.164 F 
ATOM     17  F   UNL     1       2.988   6.169  -0.726  0.00  0.00    -0.164 F 
ATOM     18  F   UNL     1       1.455   4.946  -1.922  0.00  0.00    -0.164 F 
ENDBRANCH  11  15
ENDBRANCH   4   9
BRANCH   7  19
ATOM     19  C   UNL     1       0.997   5.821 -10.388  0.00  0.00    +0.077 A 
ATOM     20  C   UNL     1       1.051   5.091 -11.566  0.00  0.00    +0.040 A 
ATOM     21  C   UNL     1       0.682   5.614 -12.786  0.00  0.00    +0.154 A 
ATOM     22  N   UNL     1       0.031   6.789 -12.801  0.00  0.00    -0.240 NA
ATOM     23  C   UNL     1      -0.264   7.390 -11.643  0.00  0.00    +0.100 A 
ATOM     24  C   UNL     1       0.240   6.979 -10.418  0.00  0.00    +0.037 A 
BRANCH  21  25
ATOM     25  C   UNL     1       1.160   4.941 -14.017  0.00  0.00    +0.435 C 
ATOM     26  F   UNL     1       0.819   3.609 -14.000  0.00  0.00    -0.164 F 
ATOM     27  F   UNL     1       2.521   5.049 -14.133  0.00  0.00    -0.164 F 
ATOM     28  F   UNL     1       0.561   5.528 -15.104  0.00  0.00    -0.164 F 
ENDBRANCH  21  25
ENDBRANCH   7  19
BRANCH   1  29
ATOM     29  C   UNL     1       6.601   5.528 -10.658  0.00  0.00    +0.146 C 
BRANCH  29  31
ATOM     30  C   UNL     1       6.535   7.629 -11.933  0.00  0.00    +0.035 C 
ATOM     31  C   UNL     1       7.444   6.661 -11.217  0.00  0.00    +0.147 C 
ATOM     32  O   UNL     1       8.021   7.348 -10.156  0.00  0.00    -0.224 OA
ATOM     33  C   UNL     1       8.516   6.116 -12.121  0.00  0.00    +0.035 C 
ENDBRANCH  29  31
ENDBRANCH   1  29
TORSDOF 6
ENDMDL
MODEL 3
REMARK VINA RESULT:      -9.1      3.053      5.333
REMARK  Name = 
REMARK  6 active torsions:
REMARK  status: ('A' for Active; 'I' for Inactive)
REMARK    1  A    between atoms: C_2  and  C_5
REMARK    2  A    between atoms: C_5  and  N_6
REMARK    3  A    between atoms: N_10  and  C_11
REMARK    4  A    between atoms: C_15  and  C_16
REMARK    5  A    between atoms: C_22  and  C_23
REMARK    6  A    between atoms: C_27  and  C_28
REMARK                            x       y       z     vdW  Elec       q    Type
REMARK                         _______ _______ _______ _____ _____    ______ ____
ROOT
ATOM      1  N   UNL     1       3.680   6.361  -3.458  0.00  0.00    -0.201 NA
ATOM      2  C   UNL     1       2.893   6.970  -4.492  0.00  0.00    +0.240 A 
ATOM      3  N   UNL     1       3.345   7.018  -5.769  0.00  0.00    -0.192 NA
ATOM      4  C   UNL     1       2.596   6.729  -6.835  0.00  0.00    +0.186 A 
ATOM      5  N   UNL     1       1.262   6.833  -6.695  0.00  0.00    -0.191 NA
ATOM      6  C   UNL     1       0.731   6.822  -5.449  0.00  0.00    +0.245 A 
ATOM      7  N   UNL     1      -0.650   7.032  -5.230  0.00  0.00    -0.177 NA
ATOM      8  N   UNL     1       1.558   6.755  -4.377  0.00  0.00    -0.178 NA
ENDROOT
BRANCH   4   9
ATOM      9  C   UNL     1       3.206   6.248  -8.083  0.00  0.00    +0.117 A 
ATOM     10  N   UNL     1       4.523   6.257  -8.280  0.00  0.00    -0.238 NA
ATOM     11  C   UNL     1       4.961   6.232  -9.561  0.00  0.00    +0.153 A 
ATOM     12  C   UNL     1       4.103   6.437 -10.633  0.00  0.00    +0.023 A 
ATOM     13  C   UNL     1       2.743   6.227 -10.446  0.00  0.00    +0.003 A 
ATOM     14  C   UNL     1       2.359   5.936  -9.141  0.00  0.00    +0.022 A 
BRANCH  11  15
ATOM     15  C   UNL     1       6.375   5.904  -9.915  0.00  0.00    +0.435 C 
ATOM     16  F   UNL     1       6.353   5.198 -11.109  0.00  0.00    -0.164 F 
ATOM     17  F   UNL     1       7.102   7.057 -10.159  0.00  0.00    -0.164 F 
ATOM     18  F   UNL     1       6.932   5.120  -8.937  0.00  0.00    -0.164 F 
ENDBRANCH  11  15
ENDBRANCH   4   9
BRANCH   7  19
ATOM     19  C   UNL     1      -1.399   6.441  -4.189  0.00  0.00    +0.077 A 
ATOM     20  C   UNL     1      -1.396   7.076  -2.955  0.00  0.00    +0.040 A 
ATOM     21  C   UNL     1      -2.104   6.604  -1.872  0.00  0.00    +0.154 A 
ATOM     22  N   UNL     1      -3.010   5.634  -2.081  0.00  0.00    -0.240 NA
ATOM     23  C   UNL     1      -3.216   5.186  -3.323  0.00  0.00    +0.100 A 
ATOM     24  C   UNL     1      -2.404   5.514  -4.400  0.00  0.00    +0.037 A 
BRANCH  21  25
ATOM     25  C   UNL     1      -1.721   7.074  -0.519  0.00  0.00    +0.435 C 
ATOM     26  F   UNL     1      -2.816   7.578   0.143  0.00  0.00    -0.164 F 
ATOM     27  F   UNL     1      -0.762   8.049  -0.597  0.00  0.00    -0.164 F 
ATOM     28  F   UNL     1      -1.233   6.010   0.197  0.00  0.00    -0.164 F 
ENDBRANCH  21  25
ENDBRANCH   7  19
BRANCH   1  29
ATOM     29  C   UNL     1       3.810   6.882  -2.132  0.00  0.00    +0.146 C 
BRANCH  29  31
ATOM     30  C   UNL     1       3.933   4.476  -1.642  0.00  0.00    +0.035 C 
ATOM     31  C   UNL     1       3.393   5.797  -1.155  0.00  0.00    +0.147 C 
ATOM     32  O   UNL     1       3.986   6.056   0.075  0.00  0.00    -0.224 OA
ATOM     33  C   UNL     1       1.895   5.777  -1.009  0.00  0.00    +0.035 C 
ENDBRANCH  29  31
ENDBRANCH   1  29
TORSDOF 6
ENDMDL
MODEL 4
REMARK VINA RESULT:      -9.0      2.895      3.644
REMARK  Name = 
REMARK  6 active torsions:
REMARK  status: ('A' for Active; 'I' for Inactive)
REMARK    1  A    between atoms: C_2  and  C_5
REMARK    2  A    between atoms: C_5  and  N_6
REMARK    3  A    between atoms: N_10  and  C_11
REMARK    4  A    between atoms: C_15  and  C_16
REMARK    5  A    between atoms: C_22  and  C_23
REMARK    6  A    between atoms: C_27  and  C_28
REMARK                            x       y       z     vdW  Elec       q    Type
REMARK                         _______ _______ _______ _____ _____    ______ ____
ROOT
ATOM      1  N   UNL     1       0.498   5.293  -6.820  0.00  0.00    -0.201 NA
ATOM      2  C   UNL     1       1.863   4.892  -6.644  0.00  0.00    +0.240 A 
ATOM      3  N   UNL     1       2.675   4.705  -7.714  0.00  0.00    -0.192 NA
ATOM      4  C   UNL     1       3.927   5.160  -7.787  0.00  0.00    +0.186 A 
ATOM      5  N   UNL     1       4.559   5.411  -6.626  0.00  0.00    -0.191 NA
ATOM      6  C   UNL     1       3.822   5.582  -5.503  0.00  0.00    +0.245 A 
ATOM      7  N   UNL     1       4.428   5.744  -4.236  0.00  0.00    -0.177 NA
ATOM      8  N   UNL     1       2.474   5.450  -5.568  0.00  0.00    -0.178 NA
ENDROOT
BRANCH   4   9
ATOM      9  C   UNL     1       4.557   5.443  -9.085  0.00  0.00    +0.117 A 
ATOM     10  N   UNL     1       5.840   5.782  -9.193  0.00  0.00    -0.238 NA
ATOM     11  C   UNL     1       6.217   6.444 -10.313  0.00  0.00    +0.153 A 
ATOM     12  C   UNL     1       5.289   6.971 -11.200  0.00  0.00    +0.023 A 
ATOM     13  C   UNL     1       3.999   6.455 -11.197  0.00  0.00    +0.003 A 
ATOM     14  C   UNL     1       3.734   5.519 -10.203  0.00  0.00    +0.022 A 
BRANCH  11  15
ATOM     15  C   UNL     1       7.650   6.583 -10.714  0.00  0.00    +0.435 C 
ATOM     16  F   UNL     1       8.253   5.346 -10.543  0.00  0.00    -0.164 F 
ATOM     17  F   UNL     1       7.756   6.884 -12.062  0.00  0.00    -0.164 F 
ATOM     18  F   UNL     1       8.273   7.504  -9.911  0.00  0.00    -0.164 F 
ENDBRANCH  11  15
ENDBRANCH   4   9
BRANCH   7  19
ATOM     19  C   UNL     1       3.904   6.529  -3.186  0.00  0.00    +0.077 A 
ATOM     20  C   UNL     1       2.945   5.948  -2.368  0.00  0.00    +0.040 A 
ATOM     21  C   UNL     1       2.376   6.608  -1.301  0.00  0.00    +0.154 A 
ATOM     22  N   UNL     1       2.934   7.762  -0.899  0.00  0.00    -0.240 NA
ATOM     23  C   UNL     1       4.030   8.211  -1.519  0.00  0.00    +0.100 A 
ATOM     24  C   UNL     1       4.521   7.666  -2.696  0.00  0.00    +0.037 A 
BRANCH  21  25
ATOM     25  C   UNL     1       1.094   6.099  -0.758  0.00  0.00    +0.435 C 
ATOM     26  F   UNL     1       0.919   6.521   0.539  0.00  0.00    -0.164 F 
ATOM     27  F   UNL     1       1.065   4.729  -0.786  0.00  0.00    -0.164 F 
ATOM     28  F   UNL     1       0.064   6.593  -1.518  0.00  0.00    -0.164 F 
ENDBRANCH  21  25
ENDBRANCH   7  19
BRANCH   1  29
ATOM     29  C   UNL     1      -0.598   4.780  -6.057  0.00  0.00    +0.146 C 
BRANCH  29  31
ATOM     30  C   UNL     1      -1.711   5.675  -4.056  0.00  0.00    +0.035 C 
ATOM     31  C   UNL     1      -1.378   5.958  -5.500  0.00  0.00    +0.147 C 
ATOM     32  O   UNL     1      -0.560   7.081  -5.522  0.00  0.00    -0.224 OA
ATOM     33  C   UNL     1      -2.611   6.203  -6.327  0.00  0.00    +0.035 C 
ENDBRANCH  29  31
ENDBRANCH   1  29
TORSDOF 6
ENDMDL
MODEL 5
REMARK VINA RESULT:      -9.0      3.355      7.877
REMARK  Name = 
REMARK  6 active torsions:
REMARK  status: ('A' for Active; 'I' for Inactive)
REMARK    1  A    between atoms: C_2  and  C_5
REMARK    2  A    between atoms: C_5  and  N_6
REMARK    3  A    between atoms: N_10  and  C_11
REMARK    4  A    between atoms: C_15  and  C_16
REMARK    5  A    between atoms: C_22  and  C_23
REMARK    6  A    between atoms: C_27  and  C_28
REMARK                            x       y       z     vdW  Elec       q    Type
REMARK                         _______ _______ _______ _____ _____    ______ ____
ROOT
ATOM      1  N   UNL     1       3.577   7.342  -5.249  0.00  0.00    -0.201 NA
ATOM      2  C   UNL     1       2.822   6.226  -5.739  0.00  0.00    +0.240 A 
ATOM      3  N   UNL     1       1.595   5.943  -5.234  0.00  0.00    -0.192 NA
ATOM      4  C   UNL     1       0.536   5.632  -5.983  0.00  0.00    +0.186 A 
ATOM      5  N   UNL     1       0.775   5.143  -7.213  0.00  0.00    -0.191 NA
ATOM      6  C   UNL     1       1.987   5.357  -7.779  0.00  0.00    +0.245 A 
ATOM      7  N   UNL     1       2.336   4.783  -9.022  0.00  0.00    -0.177 NA
ATOM      8  N   UNL     1       2.940   6.014  -7.074  0.00  0.00    -0.178 NA
ENDROOT
BRANCH   4   9
ATOM      9  C   UNL     1      -0.831   5.884  -5.505  0.00  0.00    +0.117 A 
ATOM     10  N   UNL     1      -1.101   6.145  -4.226  0.00  0.00    -0.238 NA
ATOM     11  C   UNL     1      -2.365   5.922  -3.798  0.00  0.00    +0.153 A 
ATOM     12  C   UNL     1      -3.287   5.223  -4.567  0.00  0.00    +0.023 A 
ATOM     13  C   UNL     1      -3.078   5.135  -5.937  0.00  0.00    +0.003 A 
ATOM     14  C   UNL     1      -1.879   5.672  -6.394  0.00  0.00    +0.022 A 
BRANCH  11  15
ATOM     15  C   UNL     1      -2.883   6.477  -2.511  0.00  0.00    +0.435 C 
ATOM     16  F   UNL     1      -2.564   5.574  -1.509  0.00  0.00    -0.164 F 
ATOM     17  F   UNL     1      -2.235   7.659  -2.190  0.00  0.00    -0.164 F 
ATOM     18  F   UNL     1      -4.246   6.617  -2.577  0.00  0.00    -0.164 F 
ENDBRANCH  11  15
ENDBRANCH   4   9
BRANCH   7  19
ATOM     19  C   UNL     1       3.189   5.380  -9.975  0.00  0.00    +0.077 A 
ATOM     20  C   UNL     1       4.557   5.229  -9.796  0.00  0.00    +0.040 A 
ATOM     21  C   UNL     1       5.486   5.751 -10.670  0.00  0.00    +0.154 A 
ATOM     22  N   UNL     1       5.051   6.217 -11.853  0.00  0.00    -0.240 NA
ATOM     23  C   UNL     1       3.751   6.132 -12.153  0.00  0.00    +0.100 A 
ATOM     24  C   UNL     1       2.775   5.775 -11.235  0.00  0.00    +0.037 A 
BRANCH  21  25
ATOM     25  C   UNL     1       6.882   5.916 -10.201  0.00  0.00    +0.435 C 
ATOM     26  F   UNL     1       7.285   7.223 -10.342  0.00  0.00    -0.164 F 
ATOM     27  F   UNL     1       7.732   5.110 -10.913  0.00  0.00    -0.164 F 
ATOM     28  F   UNL     1       6.945   5.583  -8.871  0.00  0.00    -0.164 F 
ENDBRANCH  21  25
ENDBRANCH   7  19
BRANCH   1  29
ATOM     29  C   UNL     1       4.989   7.321  -5.019  0.00  0.00    +0.146 C 
BRANCH  29  31
ATOM     30  C   UNL     1       4.922   5.600  -3.264  0.00  0.00    +0.035 C 
ATOM     31  C   UNL     1       5.224   7.052  -3.543  0.00  0.00    +0.147 C 
ATOM     32  O   UNL     1       6.571   7.252  -3.265  0.00  0.00    -0.224 OA
ATOM     33  C   UNL     1       4.383   7.976  -2.705  0.00  0.00    +0.035 C 
ENDBRANCH  29  31
ENDBRANCH   1  29
TORSDOF 6
ENDMDL
MODEL 6
REMARK VINA RESULT:      -8.9      2.724      5.162
REMARK  Name = 
REMARK  6 active torsions:
REMARK  status: ('A' for Active; 'I' for Inactive)
REMARK    1  A    between atoms: C_2  and  C_5
REMARK    2  A    between atoms: C_5  and  N_6
REMARK    3  A    between atoms: N_10  and  C_11
REMARK    4  A    between atoms: C_15  and  C_16
REMARK    5  A    between atoms: C_22  and  C_23
REMARK    6  A    between atoms: C_27  and  C_28
REMARK                            x       y       z     vdW  Elec       q    Type
REMARK                         _______ _______ _______ _____ _____    ______ ____
ROOT
ATOM      1  N   UNL     1       3.727   6.519  -3.340  0.00  0.00    -0.201 NA
ATOM      2  C   UNL     1       2.928   7.147  -4.352  0.00  0.00    +0.240 A 
ATOM      3  N   UNL     1       3.381   7.254  -5.626  0.00  0.00    -0.192 NA
ATOM      4  C   UNL     1       2.640   6.988  -6.703  0.00  0.00    +0.186 A 
ATOM      5  N   UNL     1       1.304   7.055  -6.563  0.00  0.00    -0.191 NA
ATOM      6  C   UNL     1       0.771   6.985  -5.319  0.00  0.00    +0.245 A 
ATOM      7  N   UNL     1      -0.614   7.153  -5.095  0.00  0.00    -0.177 NA
ATOM      8  N   UNL     1       1.598   6.897  -4.249  0.00  0.00    -0.178 NA
ENDROOT
BRANCH   4   9
ATOM      9  C   UNL     1       3.263   6.569  -7.967  0.00  0.00    +0.117 A 
ATOM     10  N   UNL     1       2.582   6.514  -9.111  0.00  0.00    -0.238 NA
ATOM     11  C   UNL     1       3.073   5.720 -10.091  0.00  0.00    +0.153 A 
ATOM     12  C   UNL     1       4.093   4.808  -9.853  0.00  0.00    +0.023 A 
ATOM     13  C   UNL     1       4.917   5.004  -8.751  0.00  0.00    +0.003 A 
ATOM     14  C   UNL     1       4.554   6.056  -7.916  0.00  0.00    +0.022 A 
BRANCH  11  15
ATOM     15  C   UNL     1       2.613   5.822 -11.508  0.00  0.00    +0.435 C 
ATOM     16  F   UNL     1       1.556   4.939 -11.669  0.00  0.00    -0.164 F 
ATOM     17  F   UNL     1       2.108   7.085 -11.771  0.00  0.00    -0.164 F 
ATOM     18  F   UNL     1       3.631   5.468 -12.357  0.00  0.00    -0.164 F 
ENDBRANCH  11  15
ENDBRANCH   4   9
BRANCH   7  19
ATOM     19  C   UNL     1      -1.351   6.507  -4.080  0.00  0.00    +0.077 A 
ATOM     20  C   UNL     1      -1.415   7.126  -2.840  0.00  0.00    +0.040 A 
ATOM     21  C   UNL     1      -2.120   6.600  -1.779  0.00  0.00    +0.154 A 
ATOM     22  N   UNL     1      -2.960   5.580  -2.020  0.00  0.00    -0.240 NA
ATOM     23  C   UNL     1      -3.109   5.134  -3.271  0.00  0.00    +0.100 A 
ATOM     24  C   UNL     1      -2.293   5.523  -4.324  0.00  0.00    +0.037 A 
BRANCH  21  25
ATOM     25  C   UNL     1      -1.798   7.075  -0.412  0.00  0.00    +0.435 C 
ATOM     26  F   UNL     1      -2.921   7.583   0.197  0.00  0.00    -0.164 F 
ATOM     27  F   UNL     1      -0.835   8.050  -0.451  0.00  0.00    -0.164 F 
ATOM     28  F   UNL     1      -1.343   6.015   0.331  0.00  0.00    -0.164 F 
ENDBRANCH  21  25
ENDBRANCH   7  19
BRANCH   1  29
ATOM     29  C   UNL     1       3.844   6.992  -1.995  0.00  0.00    +0.146 C 
BRANCH  29  31
ATOM     30  C   UNL     1       3.829   4.560  -1.631  0.00  0.00    +0.035 C 
ATOM     31  C   UNL     1       3.384   5.885  -1.063  0.00  0.00    +0.147 C 
ATOM     32  O   UNL     1       4.022   6.042   0.161  0.00  0.00    -0.224 OA
ATOM     33  C   UNL     1       1.892   5.948  -0.876  0.00  0.00    +0.035 C 
ENDBRANCH  29  31
ENDBRANCH   1  29
TORSDOF 6
ENDMDL
MODEL 7
REMARK VINA RESULT:      -8.8      2.673      3.495
REMARK  Name = 
REMARK  6 active torsions:
REMARK  status: ('A' for Active; 'I' for Inactive)
REMARK    1  A    between atoms: C_2  and  C_5
REMARK    2  A    between atoms: C_5  and  N_6
REMARK    3  A    between atoms: N_10  and  C_11
REMARK    4  A    between atoms: C_15  and  C_16
REMARK    5  A    between atoms: C_22  and  C_23
REMARK    6  A    between atoms: C_27  and  C_28
REMARK                            x       y       z     vdW  Elec       q    Type
REMARK                         _______ _______ _______ _____ _____    ______ ____
ROOT
ATOM      1  N   UNL     1      -0.690   5.661  -5.074  0.00  0.00    -0.201 NA
ATOM      2  C   UNL     1       0.633   5.122  -4.952  0.00  0.00    +0.240 A 
ATOM      3  N   UNL     1       1.291   4.646  -6.039  0.00  0.00    -0.192 NA
ATOM      4  C   UNL     1       2.569   4.914  -6.311  0.00  0.00    +0.186 A 
ATOM      5  N   UNL     1       3.354   5.278  -5.282  0.00  0.00    -0.191 NA
ATOM      6  C   UNL     1       2.775   5.738  -4.147  0.00  0.00    +0.245 A 
ATOM      7  N   UNL     1       3.537   6.038  -2.995  0.00  0.00    -0.177 NA
ATOM      8  N   UNL     1       1.422   5.774  -4.061  0.00  0.00    -0.178 NA
ENDROOT
BRANCH   4   9
ATOM      9  C   UNL     1       3.073   4.881  -7.692  0.00  0.00    +0.117 A 
ATOM     10  N   UNL     1       4.256   5.393  -8.029  0.00  0.00    -0.238 NA
ATOM     11  C   UNL     1       4.444   5.723  -9.328  0.00  0.00    +0.153 A 
ATOM     12  C   UNL     1       3.392   5.769 -10.233  0.00  0.00    +0.023 A 
ATOM     13  C   UNL     1       2.234   5.058  -9.942  0.00  0.00    +0.003 A 
ATOM     14  C   UNL     1       2.205   4.452  -8.690  0.00  0.00    +0.022 A 
BRANCH  11  15
ATOM     15  C   UNL     1       5.800   5.983  -9.898  0.00  0.00    +0.435 C 
ATOM     16  F   UNL     1       5.950   5.164 -11.007  0.00  0.00    -0.164 F 
ATOM     17  F   UNL     1       5.899   7.285 -10.360  0.00  0.00    -0.164 F 
ATOM     18  F   UNL     1       6.764   5.671  -8.972  0.00  0.00    -0.164 F 
ENDBRANCH  11  15
ENDBRANCH   4   9
BRANCH   7  19
ATOM     19  C   UNL     1       3.227   7.056  -2.066  0.00  0.00    +0.077 A 
ATOM     20  C   UNL     1       2.319   6.754  -1.062  0.00  0.00    +0.040 A 
ATOM     21  C   UNL     1       1.954   7.659  -0.089  0.00  0.00    +0.154 A 
ATOM     22  N   UNL     1       2.674   8.787   0.029  0.00  0.00    -0.240 NA
ATOM     23  C   UNL     1       3.729   8.978  -0.770  0.00  0.00    +0.100 A 
ATOM     24  C   UNL     1       4.015   8.175  -1.864  0.00  0.00    +0.037 A 
BRANCH  21  25
ATOM     25  C   UNL     1       0.700   7.419   0.664  0.00  0.00    +0.435 C 
ATOM     26  F   UNL     1       0.189   6.178   0.365  0.00  0.00    -0.164 F 
ATOM     27  F   UNL     1      -0.239   8.370   0.361  0.00  0.00    -0.164 F 
ATOM     28  F   UNL     1       0.976   7.462   2.008  0.00  0.00    -0.164 F 
ENDBRANCH  21  25
ENDBRANCH   7  19
BRANCH   1  29
ATOM     29  C   UNL     1      -1.741   5.437  -4.130  0.00  0.00    +0.146 C 
BRANCH  29  31
ATOM     30  C   UNL     1      -3.437   6.672  -2.847  0.00  0.00    +0.035 C 
ATOM     31  C   UNL     1      -2.059   6.760  -3.454  0.00  0.00    +0.147 C 
ATOM     32  O   UNL     1      -1.162   6.950  -2.409  0.00  0.00    -0.224 OA
ATOM     33  C   UNL     1      -1.946   7.890  -4.441  0.00  0.00    +0.035 C 
ENDBRANCH  29  31
ENDBRANCH   1  29
TORSDOF 6
ENDMDL
MODEL 8
REMARK VINA RESULT:      -8.8      4.145      8.922
REMARK  Name = 
REMARK  6 active torsions:
REMARK  status: ('A' for Active; 'I' for Inactive)
REMARK    1  A    between atoms: C_2  and  C_5
REMARK    2  A    between atoms: C_5  and  N_6
REMARK    3  A    between atoms: N_10  and  C_11
REMARK    4  A    between atoms: C_15  and  C_16
REMARK    5  A    between atoms: C_22  and  C_23
REMARK    6  A    between atoms: C_27  and  C_28
REMARK                            x       y       z     vdW  Elec       q    Type
REMARK                         _______ _______ _______ _____ _____    ______ ____
ROOT
ATOM      1  N   UNL     1       0.978   5.881 -11.931  0.00  0.00    -0.201 NA
ATOM      2  C   UNL     1       1.605   6.493 -10.796  0.00  0.00    +0.240 A 
ATOM      3  N   UNL     1       1.017   6.455  -9.574  0.00  0.00    -0.192 NA
ATOM      4  C   UNL     1       1.666   6.169  -8.445  0.00  0.00    +0.186 A 
ATOM      5  N   UNL     1       2.997   6.366  -8.433  0.00  0.00    -0.191 NA
ATOM      6  C   UNL     1       3.657   6.446  -9.613  0.00  0.00    +0.245 A 
ATOM      7  N   UNL     1       5.035   6.754  -9.671  0.00  0.00    -0.177 NA
ATOM      8  N   UNL     1       2.956   6.372 -10.771  0.00  0.00    -0.178 NA
ENDROOT
BRANCH   4   9
ATOM      9  C   UNL     1       0.962   5.593  -7.290  0.00  0.00    +0.117 A 
ATOM     10  N   UNL     1      -0.273   5.965  -6.953  0.00  0.00    -0.238 NA
ATOM     11  C   UNL     1      -0.663   5.743  -5.675  0.00  0.00    +0.153 A 
ATOM     12  C   UNL     1       0.240   5.378  -4.686  0.00  0.00    +0.023 A 
ATOM     13  C   UNL     1       1.448   4.807  -5.066  0.00  0.00    +0.003 A 
ATOM     14  C   UNL     1       1.682   4.764  -6.437  0.00  0.00    +0.022 A 
BRANCH  11  15
ATOM     15  C   UNL     1      -2.096   5.795  -5.258  0.00  0.00    +0.435 C 
ATOM     16  F   UNL     1      -2.826   5.054  -6.175  0.00  0.00    -0.164 F 
ATOM     17  F   UNL     1      -2.274   5.178  -4.030  0.00  0.00    -0.164 F 
ATOM     18  F   UNL     1      -2.540   7.094  -5.270  0.00  0.00    -0.164 F 
ENDBRANCH  11  15
ENDBRANCH   4   9
BRANCH   7  19
ATOM     19  C   UNL     1       5.932   6.261 -10.645  0.00  0.00    +0.077 A 
ATOM     20  C   UNL     1       5.849   6.795 -11.923  0.00  0.00    +0.040 A 
ATOM     21  C   UNL     1       6.683   6.407 -12.949  0.00  0.00    +0.154 A 
ATOM     22  N   UNL     1       7.758   5.661 -12.644  0.00  0.00    -0.240 NA
ATOM     23  C   UNL     1       8.000   5.351 -11.366  0.00  0.00    +0.100 A 
ATOM     24  C   UNL     1       7.095   5.578 -10.339  0.00  0.00    +0.037 A 
BRANCH  21  25
ATOM     25  C   UNL     1       6.267   6.693 -14.343  0.00  0.00    +0.435 C 
ATOM     26  F   UNL     1       6.830   5.785 -15.208  0.00  0.00    -0.164 F 
ATOM     27  F   UNL     1       6.650   7.956 -14.714  0.00  0.00    -0.164 F 
ATOM     28  F   UNL     1       4.902   6.586 -14.429  0.00  0.00    -0.164 F 
ENDBRANCH  21  25
ENDBRANCH   7  19
BRANCH   1  29
ATOM     29  C   UNL     1       0.954   6.451 -13.243  0.00  0.00    +0.146 C 
BRANCH  29  31
ATOM     30  C   UNL     1       0.266   4.226 -14.032  0.00  0.00    +0.035 C 
ATOM     31  C   UNL     1       1.252   5.347 -14.243  0.00  0.00    +0.147 C 
ATOM     32  O   UNL     1       1.044   5.843 -15.524  0.00  0.00    -0.224 OA
ATOM     33  C   UNL     1       2.676   4.884 -14.096  0.00  0.00    +0.035 C 
ENDBRANCH  29  31
ENDBRANCH   1  29
TORSDOF 6
ENDMDL
MODEL 9
REMARK VINA RESULT:      -8.5      3.277      5.711
REMARK  Name = 
REMARK  6 active torsions:
REMARK  status: ('A' for Active; 'I' for Inactive)
REMARK    1  A    between atoms: C_2  and  C_5
REMARK    2  A    between atoms: C_5  and  N_6
REMARK    3  A    between atoms: N_10  and  C_11
REMARK    4  A    between atoms: C_15  and  C_16
REMARK    5  A    between atoms: C_22  and  C_23
REMARK    6  A    between atoms: C_27  and  C_28
REMARK                            x       y       z     vdW  Elec       q    Type
REMARK                         _______ _______ _______ _____ _____    ______ ____
ROOT
ATOM      1  N   UNL     1       3.828   5.291  -4.236  0.00  0.00    -0.201 NA
ATOM      2  C   UNL     1       3.353   6.102  -5.319  0.00  0.00    +0.240 A 
ATOM      3  N   UNL     1       4.054   6.191  -6.477  0.00  0.00    -0.192 NA
ATOM      4  C   UNL     1       3.500   6.117  -7.689  0.00  0.00    +0.186 A 
ATOM      5  N   UNL     1       2.192   6.414  -7.787  0.00  0.00    -0.191 NA
ATOM      6  C   UNL     1       1.426   6.377  -6.670  0.00  0.00    +0.245 A 
ATOM      7  N   UNL     1       0.071   6.778  -6.687  0.00  0.00    -0.177 NA
ATOM      8  N   UNL     1       2.006   6.089  -5.479  0.00  0.00    -0.178 NA
ENDROOT
BRANCH   4   9
ATOM      9  C   UNL     1       4.276   5.658  -8.850  0.00  0.00    +0.117 A 
ATOM     10  N   UNL     1       5.598   5.804  -8.925  0.00  0.00    -0.238 NA
ATOM     11  C   UNL     1       6.159   5.778 -10.157  0.00  0.00    +0.153 A 
ATOM     12  C   UNL     1       5.392   5.847 -11.312  0.00  0.00    +0.023 A 
ATOM     13  C   UNL     1       4.050   5.496 -11.242  0.00  0.00    +0.003 A 
ATOM     14  C   UNL     1       3.574   5.214  -9.966  0.00  0.00    +0.022 A 
BRANCH  11  15
ATOM     15  C   UNL     1       7.627   5.594 -10.362  0.00  0.00    +0.435 C 
ATOM     16  F   UNL     1       8.200   6.855 -10.435  0.00  0.00    -0.164 F 
ATOM     17  F   UNL     1       8.202   4.968  -9.269  0.00  0.00    -0.164 F 
ATOM     18  F   UNL     1       7.854   4.926 -11.539  0.00  0.00    -0.164 F 
ENDBRANCH  11  15
ENDBRANCH   4   9
BRANCH   7  19
ATOM     19  C   UNL     1      -0.944   6.222  -5.878  0.00  0.00    +0.077 A 
ATOM     20  C   UNL     1      -1.312   6.922  -4.737  0.00  0.00    +0.040 A 
ATOM     21  C   UNL     1      -2.302   6.488  -3.883  0.00  0.00    +0.154 A 
ATOM     22  N   UNL     1      -3.094   5.483  -4.289  0.00  0.00    -0.240 NA
ATOM     23  C   UNL     1      -2.919   4.962  -5.508  0.00  0.00    +0.100 A 
ATOM     24  C   UNL     1      -1.831   5.256  -6.317  0.00  0.00    +0.037 A 
BRANCH  21  25
ATOM     25  C   UNL     1      -2.339   7.041  -2.508  0.00  0.00    +0.435 C 
ATOM     26  F   UNL     1      -2.054   8.386  -2.522  0.00  0.00    -0.164 F 
ATOM     27  F   UNL     1      -1.432   6.403  -1.703  0.00  0.00    -0.164 F 
ATOM     28  F   UNL     1      -3.601   6.870  -1.996  0.00  0.00    -0.164 F 
ENDBRANCH  21  25
ENDBRANCH   7  19
BRANCH   1  29
ATOM     29  C   UNL     1       3.761   5.667  -2.858  0.00  0.00    +0.146 C 
BRANCH  29  31
ATOM     30  C   UNL     1       5.662   7.040  -3.596  0.00  0.00    +0.035 C 
ATOM     31  C   UNL     1       4.449   7.012  -2.701  0.00  0.00    +0.147 C 
ATOM     32  O   UNL     1       3.586   8.006  -3.147  0.00  0.00    -0.224 OA
ATOM     33  C   UNL     1       4.804   7.250  -1.258  0.00  0.00    +0.035 C 
ENDBRANCH  29  31
ENDBRANCH   1  29
TORSDOF 6
ENDMDL
