MODEL 1
REMARK VINA RESULT:      -7.4      0.000      0.000
REMARK  Name = 
REMARK  4 active torsions:
REMARK  status: ('A' for Active; 'I' for Inactive)
REMARK    1  A    between atoms: C_2  and  C_3
REMARK    2  A    between atoms: C_2  and  C_7
REMARK    3  A    between atoms: C_3  and  N_4
REMARK    4  A    between atoms: C_7  and  N_8
REMARK                            x       y       z     vdW  Elec       q    Type
REMARK                         _______ _______ _______ _____ _____    ______ ____
ROOT
ATOM      1  N   UNL     1       0.423   6.732  -4.251  0.00  0.00    -0.287 N 
ATOM      2  C   UNL     1      -0.769   6.469  -3.501  0.00  0.00    +0.048 A 
ATOM      3  C   UNL     1      -0.890   6.020  -2.190  0.00  0.00    -0.008 A 
ATOM      4  C   UNL     1      -2.093   6.176  -1.523  0.00  0.00    -0.003 A 
ATOM      5  C   UNL     1      -3.226   6.398  -2.277  0.00  0.00    -0.000 A 
ATOM      6  C   UNL     1      -3.114   6.557  -3.655  0.00  0.00    +0.001 A 
ATOM      7  C   UNL     1       0.214   5.845  -1.219  0.00  0.00    +0.032 C 
ATOM      8  C   UNL     1       1.289   4.907  -1.703  0.00  0.00    +0.032 C 
ATOM      9  C   UNL     1       2.143   5.623  -2.701  0.00  0.00    -0.008 A 
ATOM     10  C   UNL     1       3.444   5.726  -2.247  0.00  0.00    -0.003 A 
ATOM     11  C   UNL     1       4.302   6.584  -2.920  0.00  0.00    -0.000 A 
ATOM     12  C   UNL     1       3.964   7.182  -4.116  0.00  0.00    +0.001 A 
ATOM     13  C   UNL     1       2.685   6.954  -4.609  0.00  0.00    +0.015 A 
ATOM     14  C   UNL     1      -1.892   6.521  -4.305  0.00  0.00    +0.015 A 
ATOM     15  C   UNL     1       1.734   6.381  -3.792  0.00  0.00    +0.048 A 
ENDROOT
BRANCH   1  16
ATOM     16  C   UNL     1       0.306   6.776  -5.694  0.00  0.00    +0.097 C 
BRANCH  16  18
ATOM     17  C   UNL     1      -0.955   5.294  -7.066  0.00  0.00    +0.003 C 
ATOM     18  C   UNL     1       0.434   5.194  -6.168  0.00  0.00    +0.036 C 
BRANCH  18  19
ATOM     19  C   UNL     1       1.365   5.610  -7.474  0.00  0.00    +0.074 C 
BRANCH  19  20
ATOM     20  N   UNL     1       2.401   4.604  -7.361  0.00  0.00    -0.270 NA
ATOM     21  C   UNL     1       2.094   3.673  -6.313  0.00  0.00    +0.090 C 
ATOM     22  C   UNL     1       2.553   3.983  -8.658  0.00  0.00    +0.090 C 
ENDBRANCH  19  20
ENDBRANCH  18  19
ENDBRANCH  16  18
ENDBRANCH   1  16
TORSDOF 4
ENDMDL
MODEL 2
REMARK VINA RESULT:      -7.4      1.891      5.349
REMARK  Name = 
REMARK  4 active torsions:
REMARK  status: ('A' for Active; 'I' for Inactive)
REMARK    1  A    between atoms: C_2  and  C_3
REMARK    2  A    between atoms: C_2  and  C_7
REMARK    3  A    between atoms: C_3  and  N_4
REMARK    4  A    between atoms: C_7  and  N_8
REMARK                            x       y       z     vdW  Elec       q    Type
REMARK                         _______ _______ _______ _____ _____    ______ ____
ROOT
ATOM      1  N   UNL     1       2.317   5.872  -6.316  0.00  0.00    -0.287 N 
ATOM      2  C   UNL     1       0.887   5.891  -6.239  0.00  0.00    +0.048 A 
ATOM      3  C   UNL     1      -0.041   5.767  -7.268  0.00  0.00    -0.008 A 
ATOM      4  C   UNL     1      -1.353   5.441  -6.970  0.00  0.00    -0.003 A 
ATOM      5  C   UNL     1      -1.788   5.636  -5.676  0.00  0.00    -0.000 A 
ATOM      6  C   UNL     1      -0.886   6.053  -4.702  0.00  0.00    +0.001 A 
ATOM      7  C   UNL     1       0.257   5.442  -8.682  0.00  0.00    +0.032 C 
ATOM      8  C   UNL     1       1.213   6.411  -9.326  0.00  0.00    +0.032 C 
ATOM      9  C   UNL     1       2.600   6.109  -8.856  0.00  0.00    -0.008 A 
ATOM     10  C   UNL     1       3.404   5.730  -9.915  0.00  0.00    -0.003 A 
ATOM     11  C   UNL     1       4.637   5.164  -9.626  0.00  0.00    -0.000 A 
ATOM     12  C   UNL     1       5.161   5.140  -8.350  0.00  0.00    +0.001 A 
ATOM     13  C   UNL     1       4.374   5.648  -7.323  0.00  0.00    +0.015 A 
ATOM     14  C   UNL     1       0.455   6.261  -4.980  0.00  0.00    +0.015 A 
ATOM     15  C   UNL     1       3.038   5.902  -7.554  0.00  0.00    +0.048 A 
ENDROOT
BRANCH   1  16
ATOM     16  C   UNL     1       3.051   6.436  -5.202  0.00  0.00    +0.097 C 
BRANCH  16  18
ATOM     17  C   UNL     1       4.793   5.168  -4.188  0.00  0.00    +0.003 C 
ATOM     18  C   UNL     1       3.139   5.204  -4.098  0.00  0.00    +0.036 C 
BRANCH  18  19
ATOM     19  C   UNL     1       3.184   6.275  -2.835  0.00  0.00    +0.074 C 
BRANCH  19  20
ATOM     20  N   UNL     1       3.176   5.340  -1.728  0.00  0.00    -0.270 NA
ATOM     21  C   UNL     1       3.987   5.825  -0.647  0.00  0.00    +0.090 C 
ATOM     22  C   UNL     1       1.797   5.111  -1.356  0.00  0.00    +0.090 C 
ENDBRANCH  19  20
ENDBRANCH  18  19
ENDBRANCH  16  18
ENDBRANCH   1  16
TORSDOF 4
ENDMDL
MODEL 3
REMARK VINA RESULT:      -7.4      1.835      5.989
REMARK  Name = 
REMARK  4 active torsions:
REMARK  status: ('A' for Active; 'I' for Inactive)
REMARK    1  A    between atoms: C_2  and  C_3
REMARK    2  A    between atoms: C_2  and  C_7
REMARK    3  A    between atoms: C_3  and  N_4
REMARK    4  A    between atoms: C_7  and  N_8
REMARK                            x       y       z     vdW  Elec       q    Type
REMARK                         _______ _______ _______ _____ _____    ______ ____
ROOT
ATOM      1  N   UNL     1       1.257   5.430  -6.704  0.00  0.00    -0.287 N 
ATOM      2  C   UNL     1       2.397   5.462  -5.837  0.00  0.00    +0.048 A 
ATOM      3  C   UNL     1       3.742   5.566  -6.172  0.00  0.00    -0.008 A 
ATOM      4  C   UNL     1       4.659   5.949  -5.208  0.00  0.00    -0.003 A 
ATOM      5  C   UNL     1       4.291   5.831  -3.884  0.00  0.00    -0.000 A 
ATOM      6  C   UNL     1       2.998   5.433  -3.563  0.00  0.00    +0.001 A 
ATOM      7  C   UNL     1       4.291   5.812  -7.525  0.00  0.00    +0.032 C 
ATOM      8  C   UNL     1       3.863   4.781  -8.537  0.00  0.00    +0.032 C 
ATOM      9  C   UNL     1       2.452   5.060  -8.946  0.00  0.00    -0.008 A 
ATOM     10  C   UNL     1       2.383   5.361 -10.293  0.00  0.00    -0.003 A 
ATOM     11  C   UNL     1       1.201   5.901 -10.780  0.00  0.00    -0.000 A 
ATOM     12  C   UNL     1       0.050   5.969 -10.023  0.00  0.00    +0.001 A 
ATOM     13  C   UNL     1       0.123   5.538  -8.704  0.00  0.00    +0.015 A 
ATOM     14  C   UNL     1       2.045   5.168  -4.533  0.00  0.00    +0.015 A 
ATOM     15  C   UNL     1       1.357   5.316  -8.129  0.00  0.00    +0.048 A 
ENDROOT
BRANCH   1  16
ATOM     16  C   UNL     1       0.023   4.897  -6.164  0.00  0.00    +0.097 C 
BRANCH  16  18
ATOM     17  C   UNL     1      -2.231   5.597  -6.476  0.00  0.00    +0.003 C 
ATOM     18  C   UNL     1      -0.872   6.237  -5.778  0.00  0.00    +0.036 C 
BRANCH  18  19
ATOM     19  C   UNL     1      -1.273   5.603  -4.301  0.00  0.00    +0.074 C 
BRANCH  19  20
ATOM     20  N   UNL     1      -2.438   6.411  -4.002  0.00  0.00    -0.270 NA
ATOM     21  C   UNL     1      -3.280   5.753  -3.044  0.00  0.00    +0.090 C 
ATOM     22  C   UNL     1      -1.972   7.709  -3.565  0.00  0.00    +0.090 C 
ENDBRANCH  19  20
ENDBRANCH  18  19
ENDBRANCH  16  18
ENDBRANCH   1  16
TORSDOF 4
ENDMDL
MODEL 4
REMARK VINA RESULT:      -7.4      3.331      8.076
REMARK  Name = 
REMARK  4 active torsions:
REMARK  status: ('A' for Active; 'I' for Inactive)
REMARK    1  A    between atoms: C_2  and  C_3
REMARK    2  A    between atoms: C_2  and  C_7
REMARK    3  A    between atoms: C_3  and  N_4
REMARK    4  A    between atoms: C_7  and  N_8
REMARK                            x       y       z     vdW  Elec       q    Type
REMARK                         _______ _______ _______ _____ _____    ______ ____
ROOT
ATOM      1  N   UNL     1       2.338   5.790  -9.626  0.00  0.00    -0.287 N 
ATOM      2  C   UNL     1       3.761   5.628  -9.606  0.00  0.00    +0.048 A 
ATOM      3  C   UNL     1       4.681   5.890 -10.616  0.00  0.00    -0.008 A 
ATOM      4  C   UNL     1       6.022   6.024 -10.302  0.00  0.00    -0.003 A 
ATOM      5  C   UNL     1       6.457   5.515  -9.096  0.00  0.00    -0.000 A 
ATOM      6  C   UNL     1       5.534   4.979  -8.204  0.00  0.00    +0.001 A 
ATOM      7  C   UNL     1       4.393   6.538 -11.916  0.00  0.00    +0.032 C 
ATOM      8  C   UNL     1       3.340   5.821 -12.719  0.00  0.00    +0.032 C 
ATOM      9  C   UNL     1       1.995   6.137 -12.146  0.00  0.00    -0.008 A 
ATOM     10  C   UNL     1       1.215   6.807 -13.069  0.00  0.00    -0.003 A 
ATOM     11  C   UNL     1       0.045   7.405 -12.622  0.00  0.00    -0.000 A 
ATOM     12  C   UNL     1      -0.454   7.198 -11.353  0.00  0.00    +0.001 A 
ATOM     13  C   UNL     1       0.297   6.411 -10.488  0.00  0.00    +0.015 A 
ATOM     14  C   UNL     1       4.176   4.956  -8.472  0.00  0.00    +0.015 A 
ATOM     15  C   UNL     1       1.599   6.094 -10.815  0.00  0.00    +0.048 A 
ENDROOT
BRANCH   1  16
ATOM     16  C   UNL     1       1.571   5.066  -8.634  0.00  0.00    +0.097 C 
BRANCH  16  18
ATOM     17  C   UNL     1      -0.349   5.517  -7.300  0.00  0.00    +0.003 C 
ATOM     18  C   UNL     1       1.135   6.218  -7.526  0.00  0.00    +0.036 C 
BRANCH  18  19
ATOM     19  C   UNL     1       1.792   5.341  -6.284  0.00  0.00    +0.074 C 
BRANCH  19  20
ATOM     20  N   UNL     1       1.974   6.400  -5.312  0.00  0.00    -0.270 NA
ATOM     21  C   UNL     1       1.880   5.885  -3.976  0.00  0.00    +0.090 C 
ATOM     22  C   UNL     1       3.238   7.043  -5.595  0.00  0.00    +0.090 C 
ENDBRANCH  19  20
ENDBRANCH  18  19
ENDBRANCH  16  18
ENDBRANCH   1  16
TORSDOF 4
ENDMDL
MODEL 5
REMARK VINA RESULT:      -7.3      1.835      3.134
REMARK  Name = 
REMARK  4 active torsions:
REMARK  status: ('A' for Active; 'I' for Inactive)
REMARK    1  A    between atoms: C_2  and  C_3
REMARK    2  A    between atoms: C_2  and  C_7
REMARK    3  A    between atoms: C_3  and  N_4
REMARK    4  A    between atoms: C_7  and  N_8
REMARK                            x       y       z     vdW  Elec       q    Type
REMARK                         _______ _______ _______ _____ _____    ______ ____
ROOT
ATOM      1  N   UNL     1       1.838   6.082  -6.062  0.00  0.00    -0.287 N 
ATOM      2  C   UNL     1       0.430   5.858  -5.924  0.00  0.00    +0.048 A 
ATOM      3  C   UNL     1      -0.375   6.046  -4.806  0.00  0.00    -0.008 A 
ATOM      4  C   UNL     1      -1.748   6.132  -4.958  0.00  0.00    -0.003 A 
ATOM      5  C   UNL     1      -2.300   5.644  -6.124  0.00  0.00    -0.000 A 
ATOM      6  C   UNL     1      -1.468   5.179  -7.137  0.00  0.00    +0.001 A 
ATOM      7  C   UNL     1       0.036   6.664  -3.525  0.00  0.00    +0.032 C 
ATOM      8  C   UNL     1       1.203   5.968  -2.876  0.00  0.00    +0.032 C 
ATOM      9  C   UNL     1       2.459   6.360  -3.587  0.00  0.00    -0.008 A 
ATOM     10  C   UNL     1       3.314   7.033  -2.736  0.00  0.00    -0.003 A 
ATOM     11  C   UNL     1       4.399   7.696  -3.292  0.00  0.00    -0.000 A 
ATOM     12  C   UNL     1       4.755   7.553  -4.617  0.00  0.00    +0.001 A 
ATOM     13  C   UNL     1       3.940   6.763  -5.418  0.00  0.00    +0.015 A 
ATOM     14  C   UNL     1      -0.087   5.207  -7.028  0.00  0.00    +0.015 A 
ATOM     15  C   UNL     1       2.698   6.379  -4.956  0.00  0.00    +0.048 A 
ENDROOT
BRANCH   1  16
ATOM     16  C   UNL     1       2.512   5.425  -7.163  0.00  0.00    +0.097 C 
BRANCH  16  18
ATOM     17  C   UNL     1       4.160   6.193  -8.700  0.00  0.00    +0.003 C 
ATOM     18  C   UNL     1       2.587   6.578  -8.350  0.00  0.00    +0.036 C 
BRANCH  18  19
ATOM     19  C   UNL     1       2.024   5.513  -9.487  0.00  0.00    +0.074 C 
BRANCH  19  20
ATOM     20  N   UNL     1       1.621   6.450 -10.515  0.00  0.00    -0.270 NA
ATOM     21  C   UNL     1       2.182   6.084 -11.785  0.00  0.00    +0.090 C 
ATOM     22  C   UNL     1       0.175   6.506 -10.518  0.00  0.00    +0.090 C 
ENDBRANCH  19  20
ENDBRANCH  18  19
ENDBRANCH  16  18
ENDBRANCH   1  16
TORSDOF 4
ENDMDL
MODEL 6
REMARK VINA RESULT:      -7.3      1.765      6.145
REMARK  Name = 
REMARK  4 active torsions:
REMARK  status: ('A' for Active; 'I' for Inactive)
REMARK    1  A    between atoms: C_2  and  C_3
REMARK    2  A    between atoms: C_2  and  C_7
REMARK    3  A    between atoms: C_3  and  N_4
REMARK    4  A    between atoms: C_7  and  N_8
REMARK                            x       y       z     vdW  Elec       q    Type
REMARK                         _______ _______ _______ _____ _____    ______ ____
ROOT
ATOM      1  N   UNL     1       1.542   6.716  -6.413  0.00  0.00    -0.287 N 
ATOM      2  C   UNL     1       2.066   6.257  -7.665  0.00  0.00    +0.048 A 
ATOM      3  C   UNL     1       1.384   5.695  -8.739  0.00  0.00    -0.008 A 
ATOM      4  C   UNL     1       1.986   5.655  -9.985  0.00  0.00    -0.003 A 
ATOM      5  C   UNL     1       3.356   5.801 -10.046  0.00  0.00    -0.000 A 
ATOM      6  C   UNL     1       4.069   6.079  -8.884  0.00  0.00    +0.001 A 
ATOM      7  C   UNL     1      -0.085   5.575  -8.878  0.00  0.00    +0.032 C 
ATOM      8  C   UNL     1      -0.729   4.812  -7.750  0.00  0.00    +0.032 C 
ATOM      9  C   UNL     1      -0.811   5.699  -6.549  0.00  0.00    -0.008 A 
ATOM     10  C   UNL     1      -2.128   5.919  -6.192  0.00  0.00    -0.003 A 
ATOM     11  C   UNL     1      -2.394   6.923  -5.272  0.00  0.00    -0.000 A 
ATOM     12  C   UNL     1      -1.397   7.569  -4.571  0.00  0.00    +0.001 A 
ATOM     13  C   UNL     1      -0.082   7.231  -4.867  0.00  0.00    +0.015 A 
ATOM     14  C   UNL     1       3.448   6.239  -7.657  0.00  0.00    +0.015 A 
ATOM     15  C   UNL     1       0.191   6.487  -5.995  0.00  0.00    +0.048 A 
ENDROOT
BRANCH   1  16
ATOM     16  C   UNL     1       2.474   6.860  -5.314  0.00  0.00    +0.097 C 
BRANCH  16  18
ATOM     17  C   UNL     1       3.968   5.124  -4.662  0.00  0.00    +0.003 C 
ATOM     18  C   UNL     1       2.351   5.434  -4.479  0.00  0.00    +0.036 C 
BRANCH  18  19
ATOM     19  C   UNL     1       2.613   6.201  -3.035  0.00  0.00    +0.074 C 
BRANCH  19  20
ATOM     20  N   UNL     1       2.191   5.155  -2.126  0.00  0.00    -0.270 NA
ATOM     21  C   UNL     1       3.149   4.979  -1.072  0.00  0.00    +0.090 C 
ATOM     22  C   UNL     1       0.867   5.492  -1.652  0.00  0.00    +0.090 C 
ENDBRANCH  19  20
ENDBRANCH  18  19
ENDBRANCH  16  18
ENDBRANCH   1  16
TORSDOF 4
ENDMDL
MODEL 7
REMARK VINA RESULT:      -7.3      4.467      8.145
REMARK  Name = 
REMARK  4 active torsions:
REMARK  status: ('A' for Active; 'I' for Inactive)
REMARK    1  A    between atoms: C_2  and  C_3
REMARK    2  A    between atoms: C_2  and  C_7
REMARK    3  A    between atoms: C_3  and  N_4
REMARK    4  A    between atoms: C_7  and  N_8
REMARK                            x       y       z     vdW  Elec       q    Type
REMARK                         _______ _______ _______ _____ _____    ______ ____
ROOT
ATOM      1  N   UNL     1       3.282   5.987 -10.408  0.00  0.00    -0.287 N 
ATOM      2  C   UNL     1       2.553   6.083 -11.637  0.00  0.00    +0.048 A 
ATOM      3  C   UNL     1       1.212   6.399 -11.830  0.00  0.00    -0.008 A 
ATOM      4  C   UNL     1       0.778   6.802 -13.081  0.00  0.00    -0.003 A 
ATOM      5  C   UNL     1       1.574   6.505 -14.167  0.00  0.00    -0.000 A 
ATOM      6  C   UNL     1       2.815   5.909 -13.968  0.00  0.00    +0.001 A 
ATOM      7  C   UNL     1       0.260   6.849 -10.789  0.00  0.00    +0.032 C 
ATOM      8  C   UNL     1       0.124   5.877  -9.647  0.00  0.00    +0.032 C 
ATOM      9  C   UNL     1       1.318   6.005  -8.756  0.00  0.00    -0.008 A 
ATOM     10  C   UNL     1       0.944   6.427  -7.494  0.00  0.00    -0.003 A 
ATOM     11  C   UNL     1       1.942   6.849  -6.627  0.00  0.00    -0.000 A 
ATOM     12  C   UNL     1       3.283   6.688  -6.905  0.00  0.00    +0.001 A 
ATOM     13  C   UNL     1       3.621   6.141  -8.137  0.00  0.00    +0.015 A 
ATOM     14  C   UNL     1       3.298   5.617 -12.703  0.00  0.00    +0.015 A 
ATOM     15  C   UNL     1       2.659   6.030  -9.119  0.00  0.00    +0.048 A 
ENDROOT
BRANCH   1  16
ATOM     16  C   UNL     1       4.525   5.244 -10.428  0.00  0.00    +0.097 C 
BRANCH  16  18
ATOM     17  C   UNL     1       6.623   5.779  -9.437  0.00  0.00    +0.003 C 
ATOM     18  C   UNL     1       5.692   6.396 -10.661  0.00  0.00    +0.036 C 
BRANCH  18  19
ATOM     19  C   UNL     1       6.464   5.456 -11.785  0.00  0.00    +0.074 C 
BRANCH  19  20
ATOM     20  N   UNL     1       7.315   6.458 -12.394  0.00  0.00    -0.270 NA
ATOM     21  C   UNL     1       8.652   5.962 -12.554  0.00  0.00    +0.090 C 
ATOM     22  C   UNL     1       6.697   6.863 -13.637  0.00  0.00    +0.090 C 
ENDBRANCH  19  20
ENDBRANCH  18  19
ENDBRANCH  16  18
ENDBRANCH   1  16
TORSDOF 4
ENDMDL
MODEL 8
REMARK VINA RESULT:      -7.2      4.448      8.733
REMARK  Name = 
REMARK  4 active torsions:
REMARK  status: ('A' for Active; 'I' for Inactive)
REMARK    1  A    between atoms: C_2  and  C_3
REMARK    2  A    between atoms: C_2  and  C_7
REMARK    3  A    between atoms: C_3  and  N_4
REMARK    4  A    between atoms: C_7  and  N_8
REMARK                            x       y       z     vdW  Elec       q    Type
REMARK                         _______ _______ _______ _____ _____    ______ ____
ROOT
ATOM      1  N   UNL     1       4.380   5.883 -10.780  0.00  0.00    -0.287 N 
ATOM      2  C   UNL     1       3.337   5.764 -11.755  0.00  0.00    +0.048 A 
ATOM      3  C   UNL     1       3.449   5.630 -13.135  0.00  0.00    -0.008 A 
ATOM      4  C   UNL     1       2.370   5.163 -13.866  0.00  0.00    -0.003 A 
ATOM      5  C   UNL     1       1.121   5.220 -13.282  0.00  0.00    -0.000 A 
ATOM      6  C   UNL     1       0.998   5.645 -11.963  0.00  0.00    +0.001 A 
ATOM      7  C   UNL     1       4.703   5.441 -13.899  0.00  0.00    +0.032 C 
ATOM      8  C   UNL     1       5.708   6.540 -13.674  0.00  0.00    +0.032 C 
ATOM      9  C   UNL     1       6.364   6.334 -12.346  0.00  0.00    -0.008 A 
ATOM     10  C   UNL     1       7.719   6.110 -12.498  0.00  0.00    -0.003 A 
ATOM     11  C   UNL     1       8.429   5.640 -11.403  0.00  0.00    -0.000 A 
ATOM     12  C   UNL     1       7.880   5.571 -10.139  0.00  0.00    +0.001 A 
ATOM     13  C   UNL     1       6.544   5.926  -9.999  0.00  0.00    +0.015 A 
ATOM     14  C   UNL     1       2.095   5.997 -11.196  0.00  0.00    +0.015 A 
ATOM     15  C   UNL     1       5.758   6.072 -11.123  0.00  0.00    +0.048 A 
ENDROOT
BRANCH   1  16
ATOM     16  C   UNL     1       4.023   6.428  -9.487  0.00  0.00    +0.097 C 
BRANCH  16  18
ATOM     17  C   UNL     1       4.741   5.463  -7.432  0.00  0.00    +0.003 C 
ATOM     18  C   UNL     1       3.603   5.106  -8.582  0.00  0.00    +0.036 C 
BRANCH  18  19
ATOM     19  C   UNL     1       2.444   5.968  -7.771  0.00  0.00    +0.074 C 
BRANCH  19  20
ATOM     20  N   UNL     1       1.427   4.944  -7.646  0.00  0.00    -0.270 NA
ATOM     21  C   UNL     1       1.391   4.424  -6.309  0.00  0.00    +0.090 C 
ATOM     22  C   UNL     1       0.171   5.517  -8.076  0.00  0.00    +0.090 C 
ENDBRANCH  19  20
ENDBRANCH  18  19
ENDBRANCH  16  18
ENDBRANCH   1  16
TORSDOF 4
ENDMDL
MODEL 9
REMARK VINA RESULT:      -7.2      1.661      4.635
REMARK  Name = 
REMARK  4 active torsions:
REMARK  status: ('A' for Active; 'I' for Inactive)
REMARK    1  A    between atoms: C_2  and  C_3
REMARK    2  A    between atoms: C_2  and  C_7
REMARK    3  A    between atoms: C_3  and  N_4
REMARK    4  A    between atoms: C_7  and  N_8
REMARK                            x       y       z     vdW  Elec       q    Type
REMARK                         _______ _______ _______ _____ _____    ______ ____
ROOT
ATOM      1  N   UNL     1       1.109   5.929  -6.078  0.00  0.00    -0.287 N 
ATOM      2  C   UNL     1       2.281   5.828  -5.260  0.00  0.00    +0.048 A 
ATOM      3  C   UNL     1       2.369   5.608  -3.890  0.00  0.00    -0.008 A 
ATOM      4  C   UNL     1       3.565   5.177  -3.343  0.00  0.00    -0.003 A 
ATOM      5  C   UNL     1       4.716   5.355  -4.083  0.00  0.00    -0.000 A 
ATOM      6  C   UNL     1       4.630   5.862  -5.375  0.00  0.00    +0.001 A 
ATOM      7  C   UNL     1       1.246   5.288  -2.980  0.00  0.00    +0.032 C 
ATOM      8  C   UNL     1       0.154   6.324  -2.995  0.00  0.00    +0.032 C 
ATOM      9  C   UNL     1      -0.665   6.149  -4.235  0.00  0.00    -0.008 A 
ATOM     10  C   UNL     1      -1.969   5.823  -3.918  0.00  0.00    -0.003 A 
ATOM     11  C   UNL     1      -2.793   5.368  -4.937  0.00  0.00    -0.000 A 
ATOM     12  C   UNL     1      -2.421   5.409  -6.265  0.00  0.00    +0.001 A 
ATOM     13  C   UNL     1      -1.141   5.865  -6.558  0.00  0.00    +0.015 A 
ATOM     14  C   UNL     1       3.417   6.179  -5.964  0.00  0.00    +0.015 A 
ATOM     15  C   UNL     1      -0.218   6.001  -5.542  0.00  0.00    +0.048 A 
ENDROOT
BRANCH   1  16
ATOM     16  C   UNL     1       1.250   6.572  -7.368  0.00  0.00    +0.097 C 
BRANCH  16  18
ATOM     17  C   UNL     1       0.319   5.838  -9.433  0.00  0.00    +0.003 C 
ATOM     18  C   UNL     1       1.527   5.324  -8.422  0.00  0.00    +0.036 C 
BRANCH  18  19
ATOM     19  C   UNL     1       2.658   6.209  -9.248  0.00  0.00    +0.074 C 
BRANCH  19  20
ATOM     20  N   UNL     1       3.348   5.137  -9.934  0.00  0.00    -0.270 NA
ATOM     21  C   UNL     1       4.476   5.643 -10.664  0.00  0.00    +0.090 C 
ATOM     22  C   UNL     1       3.699   4.138  -8.949  0.00  0.00    +0.090 C 
ENDBRANCH  19  20
ENDBRANCH  18  19
ENDBRANCH  16  18
ENDBRANCH   1  16
TORSDOF 4
ENDMDL
