MODEL 1
REMARK VINA RESULT:      -6.6      0.000      0.000
REMARK  Name = 
REMARK  6 active torsions:
REMARK  status: ('A' for Active; 'I' for Inactive)
REMARK    1  A    between atoms: O_2  and  C_3
REMARK    2  A    between atoms: C_11  and  N_12
REMARK    3  A    between atoms: N_12  and  C_13
REMARK    4  A    between atoms: C_13  and  C_15
REMARK    5  A    between atoms: C_15  and  C_16
REMARK    6  A    between atoms: C_16  and  C_17
REMARK                            x       y       z     vdW  Elec       q    Type
REMARK                         _______ _______ _______ _____ _____    ______ ____
ROOT
ATOM      1  C   UNL     1       2.860   4.847  -7.266  0.00  0.00    +0.140 A 
ATOM      2  C   UNL     1       1.757   4.361  -6.570  0.00  0.00    +0.054 A 
ATOM      3  C   UNL     1       1.409   4.900  -5.334  0.00  0.00    +0.086 A 
ATOM      4  C   UNL     1       2.404   5.675  -4.747  0.00  0.00    +0.096 A 
ATOM      5  C   UNL     1       3.391   6.321  -5.482  0.00  0.00    +0.022 A 
ATOM      6  C   UNL     1       4.187   7.305  -4.906  0.00  0.00    +0.003 A 
ATOM      7  C   UNL     1       4.076   7.416  -3.526  0.00  0.00    +0.021 A 
ATOM      8  C   UNL     1       3.272   6.549  -2.805  0.00  0.00    +0.099 A 
ATOM      9  N   UNL     1       2.341   5.803  -3.420  0.00  0.00    -0.243 NA
ATOM     10  C   UNL     1       3.589   5.936  -6.803  0.00  0.00    +0.038 A 
ENDROOT
BRANCH   1  12
ATOM     11  C   UNL     1       3.784   4.144  -8.926  0.00  0.00    +0.252 C 
ATOM     12  O   UNL     1       3.291   4.192  -8.416  0.00  0.00    -0.471 OA
ENDBRANCH   1  12
BRANCH   3  13
ATOM     13  N   UNL     1       0.052   5.226  -5.003  0.00  0.00    -0.238 NA
BRANCH  13  14
ATOM     14  C   UNL     1      -0.551   6.429  -5.860  0.00  0.00    +0.093 C 
ATOM     15  C   UNL     1      -1.750   5.445  -6.480  0.00  0.00    +0.023 C 
BRANCH  14  16
ATOM     16  C   UNL     1      -1.539   6.889  -4.596  0.00  0.00    +0.023 C 
BRANCH  16  17
ATOM     17  C   UNL     1      -2.495   5.739  -4.475  0.00  0.00    +0.022 C 
BRANCH  17  18
ATOM     18  C   UNL     1      -3.127   5.854  -3.090  0.00  0.00    +0.109 C 
ATOM     19  N   UNL     1      -2.522   4.878  -2.214  0.00  0.00    -0.131 NA
ENDBRANCH  17  18
ENDBRANCH  16  17
ENDBRANCH  14  16
ENDBRANCH  13  14
ENDBRANCH   3  13
TORSDOF 6
ENDMDL
MODEL 2
REMARK VINA RESULT:      -6.2      2.002      4.848
REMARK  Name = 
REMARK  6 active torsions:
REMARK  status: ('A' for Active; 'I' for Inactive)
REMARK    1  A    between atoms: O_2  and  C_3
REMARK    2  A    between atoms: C_11  and  N_12
REMARK    3  A    between atoms: N_12  and  C_13
REMARK    4  A    between atoms: C_13  and  C_15
REMARK    5  A    between atoms: C_15  and  C_16
REMARK    6  A    between atoms: C_16  and  C_17
REMARK                            x       y       z     vdW  Elec       q    Type
REMARK                         _______ _______ _______ _____ _____    ______ ____
ROOT
ATOM      1  C   UNL     1       2.139   6.241  -8.520  0.00  0.00    +0.140 A 
ATOM      2  C   UNL     1       2.783   6.831  -7.437  0.00  0.00    +0.054 A 
ATOM      3  C   UNL     1       2.178   6.856  -6.183  0.00  0.00    +0.086 A 
ATOM      4  C   UNL     1       0.818   6.566  -6.198  0.00  0.00    +0.096 A 
ATOM      5  C   UNL     1       0.221   5.800  -7.193  0.00  0.00    +0.022 A 
ATOM      6  C   UNL     1      -1.065   5.292  -7.033  0.00  0.00    +0.003 A 
ATOM      7  C   UNL     1      -1.761   5.791  -5.940  0.00  0.00    +0.021 A 
ATOM      8  C   UNL     1      -1.209   6.772  -5.132  0.00  0.00    +0.099 A 
ATOM      9  N   UNL     1       0.107   7.033  -5.170  0.00  0.00    -0.243 NA
ATOM     10  C   UNL     1       0.924   5.580  -8.370  0.00  0.00    +0.038 A 
ENDROOT
BRANCH   1  12
ATOM     11  C   UNL     1       3.266   6.357 -10.199  0.00  0.00    +0.252 C 
ATOM     12  O   UNL     1       2.681   6.368  -9.795  0.00  0.00    -0.471 OA
ENDBRANCH   1  12
BRANCH   3  13
ATOM     13  N   UNL     1       2.898   6.532  -4.985  0.00  0.00    -0.238 NA
BRANCH  13  14
ATOM     14  C   UNL     1       4.461   6.306  -5.213  0.00  0.00    +0.093 C 
ATOM     15  C   UNL     1       4.839   7.515  -4.124  0.00  0.00    +0.023 C 
BRANCH  14  16
ATOM     16  C   UNL     1       4.513   5.158  -4.003  0.00  0.00    +0.023 C 
BRANCH  16  17
ATOM     17  C   UNL     1       3.979   5.895  -2.811  0.00  0.00    +0.022 C 
BRANCH  17  18
ATOM     18  C   UNL     1       3.929   4.881  -1.670  0.00  0.00    +0.109 C 
ATOM     19  N   UNL     1       4.102   5.575  -0.415  0.00  0.00    -0.131 NA
ENDBRANCH  17  18
ENDBRANCH  16  17
ENDBRANCH  14  16
ENDBRANCH  13  14
ENDBRANCH   3  13
TORSDOF 6
ENDMDL
MODEL 3
REMARK VINA RESULT:      -6.2      4.592      6.767
REMARK  Name = 
REMARK  6 active torsions:
REMARK  status: ('A' for Active; 'I' for Inactive)
REMARK    1  A    between atoms: O_2  and  C_3
REMARK    2  A    between atoms: C_11  and  N_12
REMARK    3  A    between atoms: N_12  and  C_13
REMARK    4  A    between atoms: C_13  and  C_15
REMARK    5  A    between atoms: C_15  and  C_16
REMARK    6  A    between atoms: C_16  and  C_17
REMARK                            x       y       z     vdW  Elec       q    Type
REMARK                         _______ _______ _______ _____ _____    ______ ____
ROOT
ATOM      1  C   UNL     1       3.894   5.383  -7.460  0.00  0.00    +0.140 A 
ATOM      2  C   UNL     1       2.857   5.874  -8.246  0.00  0.00    +0.054 A 
ATOM      3  C   UNL     1       3.099   6.295  -9.552  0.00  0.00    +0.086 A 
ATOM      4  C   UNL     1       4.443   6.489  -9.851  0.00  0.00    +0.096 A 
ATOM      5  C   UNL     1       5.468   5.832  -9.179  0.00  0.00    +0.022 A 
ATOM      6  C   UNL     1       6.766   5.825  -9.680  0.00  0.00    +0.003 A 
ATOM      7  C   UNL     1       6.989   6.692 -10.742  0.00  0.00    +0.021 A 
ATOM      8  C   UNL     1       5.988   7.535 -11.195  0.00  0.00    +0.099 A 
ATOM      9  N   UNL     1       4.706   7.321 -10.860  0.00  0.00    -0.243 NA
ATOM     10  C   UNL     1       5.175   5.209  -7.972  0.00  0.00    +0.038 A 
ENDROOT
BRANCH   1  12
ATOM     11  C   UNL     1       3.217   5.154  -5.565  0.00  0.00    +0.252 C 
ATOM     12  O   UNL     1       3.670   5.122  -6.111  0.00  0.00    -0.471 OA
ENDBRANCH   1  12
BRANCH   3  13
ATOM     13  N   UNL     1       2.238   5.929 -10.640  0.00  0.00    -0.238 NA
BRANCH  13  14
ATOM     14  C   UNL     1       0.742   5.600 -10.197  0.00  0.00    +0.093 C 
ATOM     15  C   UNL     1       0.173   6.990 -10.927  0.00  0.00    +0.023 C 
BRANCH  14  16
ATOM     16  C   UNL     1       0.478   4.722 -11.591  0.00  0.00    +0.023 C 
BRANCH  16  17
ATOM     17  C   UNL     1       0.846   5.690 -12.677  0.00  0.00    +0.022 C 
BRANCH  17  18
ATOM     18  C   UNL     1       1.056   4.855 -13.938  0.00  0.00    +0.109 C 
ATOM     19  N   UNL     1       0.642   5.626 -15.087  0.00  0.00    -0.131 NA
ENDBRANCH  17  18
ENDBRANCH  16  17
ENDBRANCH  14  16
ENDBRANCH  13  14
ENDBRANCH   3  13
TORSDOF 6
ENDMDL
MODEL 4
REMARK VINA RESULT:      -6.2      4.826      6.700
REMARK  Name = 
REMARK  6 active torsions:
REMARK  status: ('A' for Active; 'I' for Inactive)
REMARK    1  A    between atoms: O_2  and  C_3
REMARK    2  A    between atoms: C_11  and  N_12
REMARK    3  A    between atoms: N_12  and  C_13
REMARK    4  A    between atoms: C_13  and  C_15
REMARK    5  A    between atoms: C_15  and  C_16
REMARK    6  A    between atoms: C_16  and  C_17
REMARK                            x       y       z     vdW  Elec       q    Type
REMARK                         _______ _______ _______ _____ _____    ______ ____
ROOT
ATOM      1  C   UNL     1       4.097   5.298  -8.113  0.00  0.00    +0.140 A 
ATOM      2  C   UNL     1       3.228   5.617  -9.152  0.00  0.00    +0.054 A 
ATOM      3  C   UNL     1       3.725   5.994 -10.397  0.00  0.00    +0.086 A 
ATOM      4  C   UNL     1       5.073   6.334 -10.397  0.00  0.00    +0.096 A 
ATOM      5  C   UNL     1       5.975   5.844  -9.459  0.00  0.00    +0.022 A 
ATOM      6  C   UNL     1       7.348   5.969  -9.649  0.00  0.00    +0.003 A 
ATOM      7  C   UNL     1       7.722   6.800 -10.697  0.00  0.00    +0.021 A 
ATOM      8  C   UNL     1       6.771   7.489 -11.432  0.00  0.00    +0.099 A 
ATOM      9  N   UNL     1       5.477   7.139 -11.382  0.00  0.00    -0.243 NA
ATOM     10  C   UNL     1       5.474   5.254  -8.305  0.00  0.00    +0.038 A 
ENDROOT
BRANCH   1  12
ATOM     11  C   UNL     1       3.654   5.214  -6.139  0.00  0.00    +0.252 C 
ATOM     12  O   UNL     1       3.592   5.083  -6.835  0.00  0.00    -0.471 OA
ENDBRANCH   1  12
BRANCH   3  13
ATOM     13  N   UNL     1       3.188   5.470 -11.620  0.00  0.00    -0.238 NA
BRANCH  13  14
ATOM     14  C   UNL     1       2.069   6.393 -12.283  0.00  0.00    +0.093 C 
ATOM     15  C   UNL     1       2.584   5.990 -13.820  0.00  0.00    +0.023 C 
BRANCH  14  16
ATOM     16  C   UNL     1       0.974   5.134 -12.286  0.00  0.00    +0.023 C 
BRANCH  16  17
ATOM     17  C   UNL     1       0.063   5.473 -11.143  0.00  0.00    +0.022 C 
BRANCH  17  18
ATOM     18  C   UNL     1       0.095   6.993 -11.009  0.00  0.00    +0.109 C 
ATOM     19  N   UNL     1      -1.121   7.540 -11.564  0.00  0.00    -0.131 NA
ENDBRANCH  17  18
ENDBRANCH  16  17
ENDBRANCH  14  16
ENDBRANCH  13  14
ENDBRANCH   3  13
TORSDOF 6
ENDMDL
MODEL 5
REMARK VINA RESULT:      -5.9      1.951      2.237
REMARK  Name = 
REMARK  6 active torsions:
REMARK  status: ('A' for Active; 'I' for Inactive)
REMARK    1  A    between atoms: O_2  and  C_3
REMARK    2  A    between atoms: C_11  and  N_12
REMARK    3  A    between atoms: N_12  and  C_13
REMARK    4  A    between atoms: C_13  and  C_15
REMARK    5  A    between atoms: C_15  and  C_16
REMARK    6  A    between atoms: C_16  and  C_17
REMARK                            x       y       z     vdW  Elec       q    Type
REMARK                         _______ _______ _______ _____ _____    ______ ____
ROOT
ATOM      1  C   UNL     1       0.348   5.795  -8.159  0.00  0.00    +0.140 A 
ATOM      2  C   UNL     1      -0.475   5.298  -7.153  0.00  0.00    +0.054 A 
ATOM      3  C   UNL     1      -0.130   5.463  -5.813  0.00  0.00    +0.086 A 
ATOM      4  C   UNL     1       1.192   5.836  -5.604  0.00  0.00    +0.096 A 
ATOM      5  C   UNL     1       1.946   6.514  -6.556  0.00  0.00    +0.022 A 
ATOM      6  C   UNL     1       3.152   7.119  -6.220  0.00  0.00    +0.003 A 
ATOM      7  C   UNL     1       3.636   6.801  -4.958  0.00  0.00    +0.021 A 
ATOM      8  C   UNL     1       2.974   5.891  -4.151  0.00  0.00    +0.099 A 
ATOM      9  N   UNL     1       1.703   5.542  -4.407  0.00  0.00    -0.243 NA
ATOM     10  C   UNL     1       1.482   6.545  -7.866  0.00  0.00    +0.038 A 
ENDROOT
BRANCH   1  12
ATOM     11  C   UNL     1       0.234   5.595 -10.171  0.00  0.00    +0.252 C 
ATOM     12  O   UNL     1       0.077   5.481  -9.487  0.00  0.00    -0.471 OA
ENDBRANCH   1  12
BRANCH   3  13
ATOM     13  N   UNL     1      -1.087   5.881  -4.829  0.00  0.00    -0.238 NA
BRANCH  13  14
ATOM     14  C   UNL     1      -1.231   7.465  -4.701  0.00  0.00    +0.093 C 
ATOM     15  C   UNL     1      -2.768   7.422  -5.352  0.00  0.00    +0.023 C 
BRANCH  14  16
ATOM     16  C   UNL     1      -1.847   7.325  -3.157  0.00  0.00    +0.023 C 
BRANCH  16  17
ATOM     17  C   UNL     1      -1.858   5.843  -2.927  0.00  0.00    +0.022 C 
BRANCH  17  18
ATOM     18  C   UNL     1      -1.357   5.629  -1.501  0.00  0.00    +0.109 C 
ATOM     19  N   UNL     1      -0.141   4.851  -1.540  0.00  0.00    -0.131 NA
ENDBRANCH  17  18
ENDBRANCH  16  17
ENDBRANCH  14  16
ENDBRANCH  13  14
ENDBRANCH   3  13
TORSDOF 6
ENDMDL
MODEL 6
REMARK VINA RESULT:      -5.9      1.453      2.105
REMARK  Name = 
REMARK  6 active torsions:
REMARK  status: ('A' for Active; 'I' for Inactive)
REMARK    1  A    between atoms: O_2  and  C_3
REMARK    2  A    between atoms: C_11  and  N_12
REMARK    3  A    between atoms: N_12  and  C_13
REMARK    4  A    between atoms: C_13  and  C_15
REMARK    5  A    between atoms: C_15  and  C_16
REMARK    6  A    between atoms: C_16  and  C_17
REMARK                            x       y       z     vdW  Elec       q    Type
REMARK                         _______ _______ _______ _____ _____    ______ ____
ROOT
ATOM      1  C   UNL     1       2.308   5.249  -6.342  0.00  0.00    +0.140 A 
ATOM      2  C   UNL     1       1.383   5.080  -5.317  0.00  0.00    +0.054 A 
ATOM      3  C   UNL     1       1.557   5.724  -4.095  0.00  0.00    +0.086 A 
ATOM      4  C   UNL     1       2.834   6.236  -3.894  0.00  0.00    +0.096 A 
ATOM      5  C   UNL     1       3.679   6.589  -4.941  0.00  0.00    +0.022 A 
ATOM      6  C   UNL     1       4.819   7.354  -4.716  0.00  0.00    +0.003 A 
ATOM      7  C   UNL     1       5.155   7.528  -3.381  0.00  0.00    +0.021 A 
ATOM      8  C   UNL     1       4.424   6.914  -2.377  0.00  0.00    +0.099 A 
ATOM      9  N   UNL     1       3.204   6.413  -2.624  0.00  0.00    -0.243 NA
ATOM     10  C   UNL     1       3.378   6.130  -6.217  0.00  0.00    +0.038 A 
ENDROOT
BRANCH   1  12
ATOM     11  C   UNL     1       2.530   4.021  -7.937  0.00  0.00    +0.252 C 
ATOM     12  O   UNL     1       2.209   4.475  -7.494  0.00  0.00    -0.471 OA
ENDBRANCH   1  12
BRANCH   3  13
ATOM     13  N   UNL     1       0.477   6.393  -3.428  0.00  0.00    -0.238 NA
BRANCH  13  14
ATOM     14  C   UNL     1      -0.874   5.548  -3.379  0.00  0.00    +0.093 C 
ATOM     15  C   UNL     1      -0.909   5.617  -1.711  0.00  0.00    +0.023 C 
BRANCH  14  16
ATOM     16  C   UNL     1      -1.795   6.936  -3.486  0.00  0.00    +0.023 C 
BRANCH  16  17
ATOM     17  C   UNL     1      -2.016   7.084  -4.962  0.00  0.00    +0.022 C 
BRANCH  17  18
ATOM     18  C   UNL     1      -2.358   5.691  -5.484  0.00  0.00    +0.109 C 
ATOM     19  N   UNL     1      -1.837   5.549  -6.824  0.00  0.00    -0.131 NA
ENDBRANCH  17  18
ENDBRANCH  16  17
ENDBRANCH  14  16
ENDBRANCH  13  14
ENDBRANCH   3  13
TORSDOF 6
ENDMDL
MODEL 7
REMARK VINA RESULT:      -5.9      2.498      5.524
REMARK  Name = 
REMARK  6 active torsions:
REMARK  status: ('A' for Active; 'I' for Inactive)
REMARK    1  A    between atoms: O_2  and  C_3
REMARK    2  A    between atoms: C_11  and  N_12
REMARK    3  A    between atoms: N_12  and  C_13
REMARK    4  A    between atoms: C_13  and  C_15
REMARK    5  A    between atoms: C_15  and  C_16
REMARK    6  A    between atoms: C_16  and  C_17
REMARK                            x       y       z     vdW  Elec       q    Type
REMARK                         _______ _______ _______ _____ _____    ______ ____
ROOT
ATOM      1  C   UNL     1      -0.869   5.618  -5.385  0.00  0.00    +0.140 A 
ATOM      2  C   UNL     1       0.339   5.474  -4.710  0.00  0.00    +0.054 A 
ATOM      3  C   UNL     1       1.533   5.358  -5.418  0.00  0.00    +0.086 A 
ATOM      4  C   UNL     1       1.373   5.069  -6.768  0.00  0.00    +0.096 A 
ATOM      5  C   UNL     1       0.226   5.400  -7.481  0.00  0.00    +0.022 A 
ATOM      6  C   UNL     1       0.207   5.359  -8.871  0.00  0.00    +0.003 A 
ATOM      7  C   UNL     1       1.313   4.757  -9.455  0.00  0.00    +0.021 A 
ATOM      8  C   UNL     1       2.308   4.189  -8.676  0.00  0.00    +0.099 A 
ATOM      9  N   UNL     1       2.409   4.481  -7.370  0.00  0.00    -0.243 NA
ATOM     10  C   UNL     1      -0.918   5.742  -6.769  0.00  0.00    +0.038 A 
ENDROOT
BRANCH   1  12
ATOM     11  C   UNL     1      -2.381   5.458  -4.047  0.00  0.00    +0.252 C 
ATOM     12  O   UNL     1      -2.064   5.568  -4.674  0.00  0.00    -0.471 OA
ENDBRANCH   1  12
BRANCH   3  13
ATOM     13  N   UNL     1       2.711   6.088  -5.046  0.00  0.00    -0.238 NA
BRANCH  13  14
ATOM     14  C   UNL     1       3.309   5.671  -3.627  0.00  0.00    +0.093 C 
ATOM     15  C   UNL     1       4.589   4.879  -4.350  0.00  0.00    +0.023 C 
BRANCH  14  16
ATOM     16  C   UNL     1       4.192   7.083  -3.537  0.00  0.00    +0.023 C 
BRANCH  16  17
ATOM     17  C   UNL     1       4.650   7.108  -2.109  0.00  0.00    +0.022 C 
BRANCH  17  18
ATOM     18  C   UNL     1       3.503   6.530  -1.284  0.00  0.00    +0.109 C 
ATOM     19  N   UNL     1       4.028   6.030  -0.034  0.00  0.00    -0.131 NA
ENDBRANCH  17  18
ENDBRANCH  16  17
ENDBRANCH  14  16
ENDBRANCH  13  14
ENDBRANCH   3  13
TORSDOF 6
ENDMDL
MODEL 8
REMARK VINA RESULT:      -5.8      4.167      6.150
REMARK  Name = 
REMARK  6 active torsions:
REMARK  status: ('A' for Active; 'I' for Inactive)
REMARK    1  A    between atoms: O_2  and  C_3
REMARK    2  A    between atoms: C_11  and  N_12
REMARK    3  A    between atoms: N_12  and  C_13
REMARK    4  A    between atoms: C_13  and  C_15
REMARK    5  A    between atoms: C_15  and  C_16
REMARK    6  A    between atoms: C_16  and  C_17
REMARK                            x       y       z     vdW  Elec       q    Type
REMARK                         _______ _______ _______ _____ _____    ______ ____
ROOT
ATOM      1  C   UNL     1       5.338   5.614  -9.593  0.00  0.00    +0.140 A 
ATOM      2  C   UNL     1       4.174   5.383 -10.319  0.00  0.00    +0.054 A 
ATOM      3  C   UNL     1       2.958   5.201  -9.665  0.00  0.00    +0.086 A 
ATOM      4  C   UNL     1       3.073   4.942  -8.304  0.00  0.00    +0.096 A 
ATOM      5  C   UNL     1       4.162   5.357  -7.546  0.00  0.00    +0.022 A 
ATOM      6  C   UNL     1       4.119   5.338  -6.155  0.00  0.00    +0.003 A 
ATOM      7  C   UNL     1       3.027   4.674  -5.612  0.00  0.00    +0.021 A 
ATOM      8  C   UNL     1       2.107   4.033  -6.425  0.00  0.00    +0.099 A 
ATOM      9  N   UNL     1       2.049   4.298  -7.739  0.00  0.00    -0.243 NA
ATOM     10  C   UNL     1       5.314   5.762  -8.210  0.00  0.00    +0.038 A 
ENDROOT
BRANCH   1  12
ATOM     11  C   UNL     1       7.272   5.673 -10.188  0.00  0.00    +0.252 C 
ATOM     12  O   UNL     1       6.565   5.630 -10.247  0.00  0.00    -0.471 OA
ENDBRANCH   1  12
BRANCH   3  13
ATOM     13  N   UNL     1       1.755   5.849 -10.103  0.00  0.00    -0.238 NA
BRANCH  13  14
ATOM     14  C   UNL     1       1.230   5.345 -11.523  0.00  0.00    +0.093 C 
ATOM     15  C   UNL     1      -0.014   4.490 -10.810  0.00  0.00    +0.023 C 
BRANCH  14  16
ATOM     16  C   UNL     1       0.255   6.689 -11.686  0.00  0.00    +0.023 C 
BRANCH  16  17
ATOM     17  C   UNL     1       0.656   7.241 -13.022  0.00  0.00    +0.022 C 
BRANCH  17  18
ATOM     18  C   UNL     1       1.400   6.118 -13.741  0.00  0.00    +0.109 C 
ATOM     19  N   UNL     1       1.754   6.562 -15.069  0.00  0.00    -0.131 NA
ENDBRANCH  17  18
ENDBRANCH  16  17
ENDBRANCH  14  16
ENDBRANCH  13  14
ENDBRANCH   3  13
TORSDOF 6
ENDMDL
MODEL 9
REMARK VINA RESULT:      -5.8      3.518      5.792
REMARK  Name = 
REMARK  6 active torsions:
REMARK  status: ('A' for Active; 'I' for Inactive)
REMARK    1  A    between atoms: O_2  and  C_3
REMARK    2  A    between atoms: C_11  and  N_12
REMARK    3  A    between atoms: N_12  and  C_13
REMARK    4  A    between atoms: C_13  and  C_15
REMARK    5  A    between atoms: C_15  and  C_16
REMARK    6  A    between atoms: C_16  and  C_17
REMARK                            x       y       z     vdW  Elec       q    Type
REMARK                         _______ _______ _______ _____ _____    ______ ____
ROOT
ATOM      1  C   UNL     1       2.914   5.616 -10.648  0.00  0.00    +0.140 A 
ATOM      2  C   UNL     1       3.270   4.840  -9.550  0.00  0.00    +0.054 A 
ATOM      3  C   UNL     1       4.492   5.036  -8.912  0.00  0.00    +0.086 A 
ATOM      4  C   UNL     1       5.404   5.790  -9.643  0.00  0.00    +0.096 A 
ATOM      5  C   UNL     1       5.019   6.715 -10.608  0.00  0.00    +0.022 A 
ATOM      6  C   UNL     1       5.921   7.646 -11.111  0.00  0.00    +0.003 A 
ATOM      7  C   UNL     1       7.246   7.431 -10.755  0.00  0.00    +0.021 A 
ATOM      8  C   UNL     1       7.611   6.321 -10.010  0.00  0.00    +0.099 A 
ATOM      9  N   UNL     1       6.691   5.610  -9.340  0.00  0.00    -0.243 NA
ATOM     10  C   UNL     1       3.715   6.666 -11.086  0.00  0.00    +0.038 A 
ENDROOT
BRANCH   1  12
ATOM     11  C   UNL     1       1.130   5.513 -11.601  0.00  0.00    +0.252 C 
ATOM     12  O   UNL     1       1.769   5.300 -11.372  0.00  0.00    -0.471 OA
ENDBRANCH   1  12
BRANCH   3  13
ATOM     13  N   UNL     1       4.604   5.089  -7.483  0.00  0.00    -0.238 NA
BRANCH  13  14
ATOM     14  C   UNL     1       3.625   6.145  -6.797  0.00  0.00    +0.093 C 
ATOM     15  C   UNL     1       2.735   4.924  -6.085  0.00  0.00    +0.023 C 
BRANCH  14  16
ATOM     16  C   UNL     1       4.611   6.251  -5.456  0.00  0.00    +0.023 C 
BRANCH  16  17
ATOM     17  C   UNL     1       4.019   7.395  -4.687  0.00  0.00    +0.022 C 
BRANCH  17  18
ATOM     18  C   UNL     1       4.073   6.993  -3.215  0.00  0.00    +0.109 C 
ATOM     19  N   UNL     1       4.478   5.610  -3.120  0.00  0.00    -0.131 NA
ENDBRANCH  17  18
ENDBRANCH  16  17
ENDBRANCH  14  16
ENDBRANCH  13  14
ENDBRANCH   3  13
TORSDOF 6
ENDMDL
