MODEL 1
REMARK VINA RESULT:      -5.3      0.000      0.000
REMARK  Name = 
REMARK  3 active torsions:
REMARK  status: ('A' for Active; 'I' for Inactive)
REMARK    1  A    between atoms: N_2  and  C_3
REMARK    2  A    between atoms: C_3  and  C_5
REMARK    3  A    between atoms: C_5  and  C_6
REMARK                            x       y       z     vdW  Elec       q    Type
REMARK                         _______ _______ _______ _____ _____    ______ ____
ROOT
ATOM      1  C   UNL     1       5.011   6.451 -10.167  0.00  0.00    -0.021 A 
ATOM      2  C   UNL     1       5.472   7.442 -11.002  0.00  0.00    -0.004 A 
ATOM      3  C   UNL     1       6.829   7.711 -11.068  0.00  0.00    -0.000 A 
ATOM      4  C   UNL     1       7.697   6.916 -10.339  0.00  0.00    -0.000 A 
ATOM      5  C   UNL     1       7.252   5.813  -9.616  0.00  0.00    -0.000 A 
ATOM      6  C   UNL     1       5.884   5.725  -9.395  0.00  0.00    -0.004 A 
ENDROOT
BRANCH   1   7
ATOM      7  C   UNL     1       3.597   6.562  -9.689  0.00  0.00    +0.044 C 
BRANCH   7   8
ATOM      8  C   UNL     1       3.762   5.797  -8.214  0.00  0.00    +0.077 C 
ATOM      9  C   UNL     1       2.903   7.004  -7.445  0.00  0.00    +0.019 C 
BRANCH   8  11
ATOM     10  C   UNL     1       2.717   3.872  -8.569  0.00  0.00    +0.107 C 
ATOM     11  N   UNL     1       2.428   4.950  -8.460  0.00  0.00    -0.218 NA
ENDBRANCH   8  11
ENDBRANCH   7   8
ENDBRANCH   1   7
TORSDOF 3
ENDMDL
MODEL 2
REMARK VINA RESULT:      -5.3      2.640      4.630
REMARK  Name = 
REMARK  3 active torsions:
REMARK  status: ('A' for Active; 'I' for Inactive)
REMARK    1  A    between atoms: N_2  and  C_3
REMARK    2  A    between atoms: C_3  and  C_5
REMARK    3  A    between atoms: C_5  and  C_6
REMARK                            x       y       z     vdW  Elec       q    Type
REMARK                         _______ _______ _______ _____ _____    ______ ____
ROOT
ATOM      1  C   UNL     1       6.188   6.616 -10.335  0.00  0.00    -0.021 A 
ATOM      2  C   UNL     1       4.910   7.074 -10.551  0.00  0.00    -0.004 A 
ATOM      3  C   UNL     1       3.861   6.565  -9.802  0.00  0.00    -0.000 A 
ATOM      4  C   UNL     1       4.145   5.656  -8.798  0.00  0.00    -0.000 A 
ATOM      5  C   UNL     1       5.453   5.307  -8.470  0.00  0.00    -0.000 A 
ATOM      6  C   UNL     1       6.437   5.657  -9.385  0.00  0.00    -0.004 A 
ENDROOT
BRANCH   1   7
ATOM      7  C   UNL     1       7.154   6.726 -11.473  0.00  0.00    +0.044 C 
BRANCH   7   8
ATOM      8  C   UNL     1       6.530   5.531 -12.458  0.00  0.00    +0.077 C 
ATOM      9  C   UNL     1       6.745   6.479 -13.815  0.00  0.00    +0.019 C 
BRANCH   8  11
ATOM     10  C   UNL     1       8.745   5.670 -12.472  0.00  0.00    +0.107 C 
ATOM     11  N   UNL     1       7.976   4.871 -12.642  0.00  0.00    -0.218 NA
ENDBRANCH   8  11
ENDBRANCH   7   8
ENDBRANCH   1   7
TORSDOF 3
ENDMDL
MODEL 3
REMARK VINA RESULT:      -5.3      0.737      1.922
REMARK  Name = 
REMARK  3 active torsions:
REMARK  status: ('A' for Active; 'I' for Inactive)
REMARK    1  A    between atoms: N_2  and  C_3
REMARK    2  A    between atoms: C_3  and  C_5
REMARK    3  A    between atoms: C_5  and  C_6
REMARK                            x       y       z     vdW  Elec       q    Type
REMARK                         _______ _______ _______ _____ _____    ______ ____
ROOT
ATOM      1  C   UNL     1       5.729   5.748  -9.597  0.00  0.00    -0.021 A 
ATOM      2  C   UNL     1       4.967   6.622 -10.336  0.00  0.00    -0.004 A 
ATOM      3  C   UNL     1       5.583   7.635 -11.053  0.00  0.00    -0.000 A 
ATOM      4  C   UNL     1       6.966   7.690 -11.065  0.00  0.00    -0.000 A 
ATOM      5  C   UNL     1       7.747   6.715 -10.449  0.00  0.00    -0.000 A 
ATOM      6  C   UNL     1       7.096   5.868  -9.562  0.00  0.00    -0.004 A 
ENDROOT
BRANCH   1   7
ATOM      7  C   UNL     1       5.066   5.078  -8.434  0.00  0.00    +0.044 C 
BRANCH   7   8
ATOM      8  C   UNL     1       3.491   5.546  -8.729  0.00  0.00    +0.077 C 
ATOM      9  C   UNL     1       2.956   3.970  -8.612  0.00  0.00    +0.019 C 
BRANCH   8  11
ATOM     10  C   UNL     1       2.988   6.878  -7.027  0.00  0.00    +0.107 C 
ATOM     11  N   UNL     1       3.229   5.793  -7.171  0.00  0.00    -0.218 NA
ENDBRANCH   8  11
ENDBRANCH   7   8
ENDBRANCH   1   7
TORSDOF 3
ENDMDL
MODEL 4
REMARK VINA RESULT:      -5.2      3.698      7.000
REMARK  Name = 
REMARK  3 active torsions:
REMARK  status: ('A' for Active; 'I' for Inactive)
REMARK    1  A    between atoms: N_2  and  C_3
REMARK    2  A    between atoms: C_3  and  C_5
REMARK    3  A    between atoms: C_5  and  C_6
REMARK                            x       y       z     vdW  Elec       q    Type
REMARK                         _______ _______ _______ _____ _____    ______ ____
ROOT
ATOM      1  C   UNL     1      -0.038   6.002  -6.381  0.00  0.00    -0.021 A 
ATOM      2  C   UNL     1      -0.061   6.928  -5.365  0.00  0.00    -0.004 A 
ATOM      3  C   UNL     1      -1.274   7.349  -4.844  0.00  0.00    -0.000 A 
ATOM      4  C   UNL     1      -2.436   6.761  -5.315  0.00  0.00    -0.000 A 
ATOM      5  C   UNL     1      -2.410   5.711  -6.230  0.00  0.00    -0.000 A 
ATOM      6  C   UNL     1      -1.207   5.488  -6.886  0.00  0.00    -0.004 A 
ENDROOT
BRANCH   1   7
ATOM      7  C   UNL     1       1.160   6.001  -7.278  0.00  0.00    +0.044 C 
BRANCH   7   8
ATOM      8  C   UNL     1       2.069   7.163  -6.497  0.00  0.00    +0.077 C 
ATOM      9  C   UNL     1       3.479   6.320  -6.794  0.00  0.00    +0.019 C 
BRANCH   8  11
ATOM     10  C   UNL     1       2.616   7.302  -8.643  0.00  0.00    +0.107 C 
ATOM     11  N   UNL     1       2.237   7.999  -7.850  0.00  0.00    -0.218 NA
ENDBRANCH   8  11
ENDBRANCH   7   8
ENDBRANCH   1   7
TORSDOF 3
ENDMDL
MODEL 5
REMARK VINA RESULT:      -5.0      4.031      7.065
REMARK  Name = 
REMARK  3 active torsions:
REMARK  status: ('A' for Active; 'I' for Inactive)
REMARK    1  A    between atoms: N_2  and  C_3
REMARK    2  A    between atoms: C_3  and  C_5
REMARK    3  A    between atoms: C_5  and  C_6
REMARK                            x       y       z     vdW  Elec       q    Type
REMARK                         _______ _______ _______ _____ _____    ______ ____
ROOT
ATOM      1  C   UNL     1      -0.118   5.808  -5.907  0.00  0.00    -0.021 A 
ATOM      2  C   UNL     1      -1.254   5.386  -6.556  0.00  0.00    -0.004 A 
ATOM      3  C   UNL     1      -2.477   5.960  -6.248  0.00  0.00    -0.000 A 
ATOM      4  C   UNL     1      -2.507   7.004  -5.338  0.00  0.00    -0.000 A 
ATOM      5  C   UNL     1      -1.341   7.540  -4.796  0.00  0.00    -0.000 A 
ATOM      6  C   UNL     1      -0.182   6.793  -4.953  0.00  0.00    -0.004 A 
ENDROOT
BRANCH   1   7
ATOM      7  C   UNL     1       1.020   4.840  -5.823  0.00  0.00    +0.044 C 
BRANCH   7   8
ATOM      8  C   UNL     1       1.902   5.361  -7.141  0.00  0.00    +0.077 C 
ATOM      9  C   UNL     1       3.259   5.590  -6.196  0.00  0.00    +0.019 C 
BRANCH   8  11
ATOM     10  C   UNL     1       2.665   3.837  -8.562  0.00  0.00    +0.107 C 
ATOM     11  N   UNL     1       2.347   3.864  -7.487  0.00  0.00    -0.218 NA
ENDBRANCH   8  11
ENDBRANCH   7   8
ENDBRANCH   1   7
TORSDOF 3
ENDMDL
MODEL 6
REMARK VINA RESULT:      -4.9      3.720      7.013
REMARK  Name = 
REMARK  3 active torsions:
REMARK  status: ('A' for Active; 'I' for Inactive)
REMARK    1  A    between atoms: N_2  and  C_3
REMARK    2  A    between atoms: C_3  and  C_5
REMARK    3  A    between atoms: C_5  and  C_6
REMARK                            x       y       z     vdW  Elec       q    Type
REMARK                         _______ _______ _______ _____ _____    ______ ____
ROOT
ATOM      1  C   UNL     1      -0.152   5.861  -6.412  0.00  0.00    -0.021 A 
ATOM      2  C   UNL     1      -0.034   6.838  -5.451  0.00  0.00    -0.004 A 
ATOM      3  C   UNL     1      -1.172   7.389  -4.885  0.00  0.00    -0.000 A 
ATOM      4  C   UNL     1      -2.406   6.882  -5.255  0.00  0.00    -0.000 A 
ATOM      5  C   UNL     1      -2.526   5.788  -6.108  0.00  0.00    -0.000 A 
ATOM      6  C   UNL     1      -1.389   5.427  -6.819  0.00  0.00    -0.004 A 
ENDROOT
BRANCH   1   7
ATOM      7  C   UNL     1       0.983   5.709  -7.375  0.00  0.00    +0.044 C 
BRANCH   7   8
ATOM      8  C   UNL     1       2.222   5.476  -6.280  0.00  0.00    +0.077 C 
ATOM      9  C   UNL     1       2.053   3.819  -6.378  0.00  0.00    +0.019 C 
BRANCH   8  11
ATOM     10  C   UNL     1       3.270   6.470  -7.965  0.00  0.00    +0.107 C 
ATOM     11  N   UNL     1       3.311   5.474  -7.452  0.00  0.00    -0.218 NA
ENDBRANCH   8  11
ENDBRANCH   7   8
ENDBRANCH   1   7
TORSDOF 3
ENDMDL
MODEL 7
REMARK VINA RESULT:      -4.9      3.931      6.955
REMARK  Name = 
REMARK  3 active torsions:
REMARK  status: ('A' for Active; 'I' for Inactive)
REMARK    1  A    between atoms: N_2  and  C_3
REMARK    2  A    between atoms: C_3  and  C_5
REMARK    3  A    between atoms: C_5  and  C_6
REMARK                            x       y       z     vdW  Elec       q    Type
REMARK                         _______ _______ _______ _____ _____    ______ ____
ROOT
ATOM      1  C   UNL     1      -0.021   5.855  -5.943  0.00  0.00    -0.021 A 
ATOM      2  C   UNL     1      -0.209   6.874  -5.039  0.00  0.00    -0.004 A 
ATOM      3  C   UNL     1      -1.470   7.424  -4.874  0.00  0.00    -0.000 A 
ATOM      4  C   UNL     1      -2.529   6.875  -5.577  0.00  0.00    -0.000 A 
ATOM      5  C   UNL     1      -2.374   5.743  -6.374  0.00  0.00    -0.000 A 
ATOM      6  C   UNL     1      -1.072   5.377  -6.687  0.00  0.00    -0.004 A 
ENDROOT
BRANCH   1   7
ATOM      7  C   UNL     1       1.355   5.687  -6.507  0.00  0.00    +0.044 C 
BRANCH   7   8
ATOM      8  C   UNL     1       1.063   6.215  -8.064  0.00  0.00    +0.077 C 
ATOM      9  C   UNL     1       2.125   7.489  -7.876  0.00  0.00    +0.019 C 
BRANCH   8  11
ATOM     10  C   UNL     1       1.779   4.625  -9.436  0.00  0.00    +0.107 C 
ATOM     11  N   UNL     1       2.225   5.280  -8.642  0.00  0.00    -0.218 NA
ENDBRANCH   8  11
ENDBRANCH   7   8
ENDBRANCH   1   7
TORSDOF 3
ENDMDL
MODEL 8
REMARK VINA RESULT:      -4.9      1.842      2.788
REMARK  Name = 
REMARK  3 active torsions:
REMARK  status: ('A' for Active; 'I' for Inactive)
REMARK    1  A    between atoms: N_2  and  C_3
REMARK    2  A    between atoms: C_3  and  C_5
REMARK    3  A    between atoms: C_5  and  C_6
REMARK                            x       y       z     vdW  Elec       q    Type
REMARK                         _______ _______ _______ _____ _____    ______ ____
ROOT
ATOM      1  C   UNL     1       6.421   7.118 -11.517  0.00  0.00    -0.021 A 
ATOM      2  C   UNL     1       7.485   6.689 -10.759  0.00  0.00    -0.004 A 
ATOM      3  C   UNL     1       8.498   5.950 -11.349  0.00  0.00    -0.000 A 
ATOM      4  C   UNL     1       8.445   5.729 -12.715  0.00  0.00    -0.000 A 
ATOM      5  C   UNL     1       7.454   6.294 -13.514  0.00  0.00    -0.000 A 
ATOM      6  C   UNL     1       6.351   6.821 -12.856  0.00  0.00    -0.004 A 
ENDROOT
BRANCH   1   7
ATOM      7  C   UNL     1       5.133   7.380 -10.801  0.00  0.00    +0.044 C 
BRANCH   7   8
ATOM      8  C   UNL     1       4.576   5.810 -10.688  0.00  0.00    +0.077 C 
ATOM      9  C   UNL     1       4.150   6.032  -9.090  0.00  0.00    +0.019 C 
BRANCH   8  11
ATOM     10  C   UNL     1       2.414   6.140 -10.314  0.00  0.00    +0.107 C 
ATOM     11  N   UNL     1       3.119   6.250 -11.179  0.00  0.00    -0.218 NA
ENDBRANCH   8  11
ENDBRANCH   7   8
ENDBRANCH   1   7
TORSDOF 3
ENDMDL
MODEL 9
REMARK VINA RESULT:      -4.8      4.597      7.261
REMARK  Name = 
REMARK  3 active torsions:
REMARK  status: ('A' for Active; 'I' for Inactive)
REMARK    1  A    between atoms: N_2  and  C_3
REMARK    2  A    between atoms: C_3  and  C_5
REMARK    3  A    between atoms: C_5  and  C_6
REMARK                            x       y       z     vdW  Elec       q    Type
REMARK                         _______ _______ _______ _____ _____    ______ ____
ROOT
ATOM      1  C   UNL     1       0.002   6.640  -5.492  0.00  0.00    -0.021 A 
ATOM      2  C   UNL     1      -0.185   5.695  -6.473  0.00  0.00    -0.004 A 
ATOM      3  C   UNL     1      -1.469   5.305  -6.818  0.00  0.00    -0.000 A 
ATOM      4  C   UNL     1      -2.539   5.940  -6.210  0.00  0.00    -0.000 A 
ATOM      5  C   UNL     1      -2.359   7.006  -5.333  0.00  0.00    -0.000 A 
ATOM      6  C   UNL     1      -1.072   7.202  -4.848  0.00  0.00    -0.004 A 
ENDROOT
BRANCH   1   7
ATOM      7  C   UNL     1       1.309   6.618  -4.762  0.00  0.00    +0.044 C 
BRANCH   7   8
ATOM      8  C   UNL     1       2.230   5.821  -5.904  0.00  0.00    +0.077 C 
ATOM      9  C   UNL     1       3.416   6.992  -5.826  0.00  0.00    +0.019 C 
BRANCH   8  11
ATOM     10  C   UNL     1       3.312   5.656  -3.974  0.00  0.00    +0.107 C 
ATOM     11  N   UNL     1       2.955   4.954  -4.773  0.00  0.00    -0.218 NA
ENDBRANCH   8  11
ENDBRANCH   7   8
ENDBRANCH   1   7
TORSDOF 3
ENDMDL
