MODEL 1
REMARK VINA RESULT:      -5.0      0.000      0.000
REMARK  Name = 
REMARK  13 active torsions:
REMARK  status: ('A' for Active; 'I' for Inactive)
REMARK    1  A    between atoms: C_2  and  C_3
REMARK    2  A    between atoms: C_3  and  C_4
REMARK    3  A    between atoms: C_4  and  C_5
REMARK    4  A    between atoms: C_5  and  C_6
REMARK    5  A    between atoms: C_6  and  C_7
REMARK    6  A    between atoms: C_7  and  C_8
REMARK    7  A    between atoms: C_8  and  C_9
REMARK    8  A    between atoms: C_9  and  C_10
REMARK    9  A    between atoms: C_10  and  C_11
REMARK   10  A    between atoms: C_11  and  C_12
REMARK   11  A    between atoms: C_12  and  O_13
REMARK   12  A    between atoms: O_13  and  C_14
REMARK   13  A    between atoms: C_14  and  C_15
REMARK                            x       y       z     vdW  Elec       q    Type
REMARK                         _______ _______ _______ _____ _____    ______ ____
ROOT
ATOM      1  C   UNL     1      -1.112   5.303  -6.559  0.00  0.00    +0.000 C 
ENDROOT
BRANCH   1   2
ATOM      2  C   UNL     1      -0.073   5.987  -5.696  0.00  0.00    +0.000 C 
BRANCH   2   3
ATOM      3  C   UNL     1       0.960   5.015  -5.180  0.00  0.00    +0.000 C 
BRANCH   3   4
ATOM      4  C   UNL     1       1.499   4.224  -6.366  0.00  0.00    +0.000 C 
BRANCH   4   5
ATOM      5  C   UNL     1       2.499   5.140  -7.054  0.00  0.00    +0.000 C 
BRANCH   5   6
ATOM      6  C   UNL     1       2.101   5.194  -8.525  0.00  0.00    +0.000 C 
BRANCH   6   8
ATOM      7  C   UNL     1       2.367   7.599  -7.853  0.00  0.00    +0.000 C 
ATOM      8  C   UNL     1       1.912   6.648  -8.943  0.00  0.00    +0.000 C 
ENDBRANCH   6   8
ENDBRANCH   5   6
ENDBRANCH   4   5
ENDBRANCH   3   4
ENDBRANCH   2   3
ENDBRANCH   1   2
BRANCH   1   9
ATOM      9  C   UNL     1      -2.473   5.670  -5.978  0.00  0.00    +0.000 C 
BRANCH   9  10
ATOM     10  C   UNL     1      -2.233   6.887  -5.092  0.00  0.00    +0.003 C 
BRANCH  10  11
ATOM     11  C   UNL     1      -2.920   6.655  -3.763  0.00  0.00    +0.032 C 
BRANCH  11  12
ATOM     12  C   UNL     1      -3.101   5.192  -3.456  0.00  0.00    +0.142 C 
BRANCH  12  13
ATOM     13  O   UNL     1      -2.433   4.796  -2.306  0.00  0.00    -0.351 OA
BRANCH  13  14
ATOM     14  C   UNL     1      -2.099   5.894  -1.534  0.00  0.00    +0.178 C 
BRANCH  14  15
ATOM     15  C   UNL     1      -0.674   5.667  -1.043  0.00  0.00    +0.214 C 
ATOM     16  O   UNL     1      -0.050   4.668  -1.789  0.00  0.00    -0.218 OA
ENDBRANCH  14  15
ENDBRANCH  13  14
ENDBRANCH  12  13
ENDBRANCH  11  12
ENDBRANCH  10  11
ENDBRANCH   9  10
ENDBRANCH   1   9
TORSDOF 13
ENDMDL
MODEL 2
REMARK VINA RESULT:      -4.8      5.383      8.521
REMARK  Name = 
REMARK  13 active torsions:
REMARK  status: ('A' for Active; 'I' for Inactive)
REMARK    1  A    between atoms: C_2  and  C_3
REMARK    2  A    between atoms: C_3  and  C_4
REMARK    3  A    between atoms: C_4  and  C_5
REMARK    4  A    between atoms: C_5  and  C_6
REMARK    5  A    between atoms: C_6  and  C_7
REMARK    6  A    between atoms: C_7  and  C_8
REMARK    7  A    between atoms: C_8  and  C_9
REMARK    8  A    between atoms: C_9  and  C_10
REMARK    9  A    between atoms: C_10  and  C_11
REMARK   10  A    between atoms: C_11  and  C_12
REMARK   11  A    between atoms: C_12  and  O_13
REMARK   12  A    between atoms: O_13  and  C_14
REMARK   13  A    between atoms: C_14  and  C_15
REMARK                            x       y       z     vdW  Elec       q    Type
REMARK                         _______ _______ _______ _____ _____    ______ ____
ROOT
ATOM      1  C   UNL     1       4.304   5.567  -7.731  0.00  0.00    +0.000 C 
ENDROOT
BRANCH   1   2
ATOM      2  C   UNL     1       3.398   5.410  -6.529  0.00  0.00    +0.000 C 
BRANCH   2   3
ATOM      3  C   UNL     1       2.449   4.247  -6.687  0.00  0.00    +0.000 C 
BRANCH   3   4
ATOM      4  C   UNL     1       1.073   4.689  -6.202  0.00  0.00    +0.000 C 
BRANCH   4   5
ATOM      5  C   UNL     1       0.711   5.906  -7.039  0.00  0.00    +0.000 C 
BRANCH   5   6
ATOM      6  C   UNL     1      -0.359   5.453  -8.027  0.00  0.00    +0.000 C 
BRANCH   6   8
ATOM      7  C   UNL     1       0.837   6.696  -9.852  0.00  0.00    +0.000 C 
ATOM      8  C   UNL     1       0.248   5.367  -9.423  0.00  0.00    +0.000 C 
ENDBRANCH   6   8
ENDBRANCH   5   6
ENDBRANCH   4   5
ENDBRANCH   3   4
ENDBRANCH   2   3
ENDBRANCH   1   2
BRANCH   1   9
ATOM      9  C   UNL     1       3.863   4.523  -8.749  0.00  0.00    +0.000 C 
BRANCH   9  10
ATOM     10  C   UNL     1       4.213   5.099 -10.116  0.00  0.00    +0.003 C 
BRANCH  10  11
ATOM     11  C   UNL     1       4.527   6.571  -9.950  0.00  0.00    +0.032 C 
BRANCH  11  12
ATOM     12  C   UNL     1       5.639   7.028 -10.856  0.00  0.00    +0.142 C 
BRANCH  12  13
ATOM     13  O   UNL     1       6.514   6.005 -11.194  0.00  0.00    -0.351 OA
BRANCH  13  14
ATOM     14  C   UNL     1       7.822   6.454 -11.167  0.00  0.00    +0.178 C 
BRANCH  14  15
ATOM     15  C   UNL     1       8.583   5.651 -12.216  0.00  0.00    +0.214 C 
ATOM     16  O   UNL     1       7.804   4.595 -12.687  0.00  0.00    -0.218 OA
ENDBRANCH  14  15
ENDBRANCH  13  14
ENDBRANCH  12  13
ENDBRANCH  11  12
ENDBRANCH  10  11
ENDBRANCH   9  10
ENDBRANCH   1   9
TORSDOF 13
ENDMDL
MODEL 3
REMARK VINA RESULT:      -4.7      1.848      2.406
REMARK  Name = 
REMARK  13 active torsions:
REMARK  status: ('A' for Active; 'I' for Inactive)
REMARK    1  A    between atoms: C_2  and  C_3
REMARK    2  A    between atoms: C_3  and  C_4
REMARK    3  A    between atoms: C_4  and  C_5
REMARK    4  A    between atoms: C_5  and  C_6
REMARK    5  A    between atoms: C_6  and  C_7
REMARK    6  A    between atoms: C_7  and  C_8
REMARK    7  A    between atoms: C_8  and  C_9
REMARK    8  A    between atoms: C_9  and  C_10
REMARK    9  A    between atoms: C_10  and  C_11
REMARK   10  A    between atoms: C_11  and  C_12
REMARK   11  A    between atoms: C_12  and  O_13
REMARK   12  A    between atoms: O_13  and  C_14
REMARK   13  A    between atoms: C_14  and  C_15
REMARK                            x       y       z     vdW  Elec       q    Type
REMARK                         _______ _______ _______ _____ _____    ______ ____
ROOT
ATOM      1  C   UNL     1       0.018   5.891  -6.251  0.00  0.00    +0.000 C 
ENDROOT
BRANCH   1   2
ATOM      2  C   UNL     1       0.799   4.947  -5.362  0.00  0.00    +0.000 C 
BRANCH   2   3
ATOM      3  C   UNL     1       2.187   4.690  -5.894  0.00  0.00    +0.000 C 
BRANCH   3   4
ATOM      4  C   UNL     1       2.582   5.870  -6.775  0.00  0.00    +0.000 C 
BRANCH   4   5
ATOM      5  C   UNL     1       3.592   6.670  -5.966  0.00  0.00    +0.000 C 
BRANCH   5   6
ATOM      6  C   UNL     1       4.437   5.658  -5.199  0.00  0.00    +0.000 C 
BRANCH   6   8
ATOM      7  C   UNL     1       5.126   7.844  -4.174  0.00  0.00    +0.000 C 
ATOM      8  C   UNL     1       5.067   6.341  -3.991  0.00  0.00    +0.000 C 
ENDBRANCH   6   8
ENDBRANCH   5   6
ENDBRANCH   4   5
ENDBRANCH   3   4
ENDBRANCH   2   3
ENDBRANCH   1   2
BRANCH   1   9
ATOM      9  C   UNL     1      -0.711   6.859  -5.327  0.00  0.00    +0.000 C 
BRANCH   9  10
ATOM     10  C   UNL     1      -2.165   6.403  -5.308  0.00  0.00    +0.003 C 
BRANCH  10  11
ATOM     11  C   UNL     1      -2.733   6.667  -3.929  0.00  0.00    +0.032 C 
BRANCH  11  12
ATOM     12  C   UNL     1      -3.235   5.414  -3.263  0.00  0.00    +0.142 C 
BRANCH  12  13
ATOM     13  O   UNL     1      -2.312   4.863  -2.386  0.00  0.00    -0.351 OA
BRANCH  13  14
ATOM     14  C   UNL     1      -2.021   5.751  -1.365  0.00  0.00    +0.178 C 
BRANCH  14  15
ATOM     15  C   UNL     1      -0.523   5.646  -1.106  0.00  0.00    +0.214 C 
ATOM     16  O   UNL     1       0.023   4.571  -1.806  0.00  0.00    -0.218 OA
ENDBRANCH  14  15
ENDBRANCH  13  14
ENDBRANCH  12  13
ENDBRANCH  11  12
ENDBRANCH  10  11
ENDBRANCH   9  10
ENDBRANCH   1   9
TORSDOF 13
ENDMDL
MODEL 4
REMARK VINA RESULT:      -4.7      1.234      2.353
REMARK  Name = 
REMARK  13 active torsions:
REMARK  status: ('A' for Active; 'I' for Inactive)
REMARK    1  A    between atoms: C_2  and  C_3
REMARK    2  A    between atoms: C_3  and  C_4
REMARK    3  A    between atoms: C_4  and  C_5
REMARK    4  A    between atoms: C_5  and  C_6
REMARK    5  A    between atoms: C_6  and  C_7
REMARK    6  A    between atoms: C_7  and  C_8
REMARK    7  A    between atoms: C_8  and  C_9
REMARK    8  A    between atoms: C_9  and  C_10
REMARK    9  A    between atoms: C_10  and  C_11
REMARK   10  A    between atoms: C_11  and  C_12
REMARK   11  A    between atoms: C_12  and  O_13
REMARK   12  A    between atoms: O_13  and  C_14
REMARK   13  A    between atoms: C_14  and  C_15
REMARK                            x       y       z     vdW  Elec       q    Type
REMARK                         _______ _______ _______ _____ _____    ______ ____
ROOT
ATOM      1  C   UNL     1       0.688   4.945  -5.121  0.00  0.00    +0.000 C 
ENDROOT
BRANCH   1   2
ATOM      2  C   UNL     1       1.584   4.197  -6.085  0.00  0.00    +0.000 C 
BRANCH   2   3
ATOM      3  C   UNL     1       2.976   4.777  -6.125  0.00  0.00    +0.000 C 
BRANCH   3   4
ATOM      4  C   UNL     1       3.389   4.916  -7.586  0.00  0.00    +0.000 C 
BRANCH   4   5
ATOM      5  C   UNL     1       3.434   6.411  -7.863  0.00  0.00    +0.000 C 
BRANCH   5   6
ATOM      6  C   UNL     1       2.858   6.613  -9.261  0.00  0.00    +0.000 C 
BRANCH   6   8
ATOM      7  C   UNL     1       0.581   6.080 -10.175  0.00  0.00    +0.000 C 
ATOM      8  C   UNL     1       1.362   6.883  -9.154  0.00  0.00    +0.000 C 
ENDBRANCH   6   8
ENDBRANCH   5   6
ENDBRANCH   4   5
ENDBRANCH   3   4
ENDBRANCH   2   3
ENDBRANCH   1   2
BRANCH   1   9
ATOM      9  C   UNL     1       0.040   6.075  -5.913  0.00  0.00    +0.000 C 
BRANCH   9  10
ATOM     10  C   UNL     1      -1.049   5.422  -6.756  0.00  0.00    +0.003 C 
BRANCH  10  11
ATOM     11  C   UNL     1      -2.388   5.696  -6.106  0.00  0.00    +0.032 C 
BRANCH  11  12
ATOM     12  C   UNL     1      -2.373   6.939  -5.257  0.00  0.00    +0.142 C 
BRANCH  12  13
ATOM     13  O   UNL     1      -2.988   6.760  -4.027  0.00  0.00    -0.351 OA
BRANCH  13  14
ATOM     14  C   UNL     1      -2.069   6.882  -3.000  0.00  0.00    +0.178 C 
BRANCH  14  15
ATOM     15  C   UNL     1      -2.358   5.753  -2.017  0.00  0.00    +0.214 C 
ATOM     16  O   UNL     1      -2.835   4.627  -2.687  0.00  0.00    -0.218 OA
ENDBRANCH  14  15
ENDBRANCH  13  14
ENDBRANCH  12  13
ENDBRANCH  11  12
ENDBRANCH  10  11
ENDBRANCH   9  10
ENDBRANCH   1   9
TORSDOF 13
ENDMDL
MODEL 5
REMARK VINA RESULT:      -4.7      6.065      9.544
REMARK  Name = 
REMARK  13 active torsions:
REMARK  status: ('A' for Active; 'I' for Inactive)
REMARK    1  A    between atoms: C_2  and  C_3
REMARK    2  A    between atoms: C_3  and  C_4
REMARK    3  A    between atoms: C_4  and  C_5
REMARK    4  A    between atoms: C_5  and  C_6
REMARK    5  A    between atoms: C_6  and  C_7
REMARK    6  A    between atoms: C_7  and  C_8
REMARK    7  A    between atoms: C_8  and  C_9
REMARK    8  A    between atoms: C_9  and  C_10
REMARK    9  A    between atoms: C_10  and  C_11
REMARK   10  A    between atoms: C_11  and  C_12
REMARK   11  A    between atoms: C_12  and  O_13
REMARK   12  A    between atoms: O_13  and  C_14
REMARK   13  A    between atoms: C_14  and  C_15
REMARK                            x       y       z     vdW  Elec       q    Type
REMARK                         _______ _______ _______ _____ _____    ______ ____
ROOT
ATOM      1  C   UNL     1       4.123   5.088  -8.972  0.00  0.00    +0.000 C 
ENDROOT
BRANCH   1   2
ATOM      2  C   UNL     1       3.581   6.376  -9.555  0.00  0.00    +0.000 C 
BRANCH   2   3
ATOM      3  C   UNL     1       2.985   7.268  -8.493  0.00  0.00    +0.000 C 
BRANCH   3   4
ATOM      4  C   UNL     1       2.198   6.393  -7.526  0.00  0.00    +0.000 C 
BRANCH   4   5
ATOM      5  C   UNL     1       2.554   6.890  -6.133  0.00  0.00    +0.000 C 
BRANCH   5   6
ATOM      6  C   UNL     1       3.355   5.779  -5.464  0.00  0.00    +0.000 C 
BRANCH   6   8
ATOM      7  C   UNL     1       4.635   7.657  -4.397  0.00  0.00    +0.000 C 
ATOM      8  C   UNL     1       4.732   6.309  -5.084  0.00  0.00    +0.000 C 
ENDBRANCH   6   8
ENDBRANCH   5   6
ENDBRANCH   4   5
ENDBRANCH   3   4
ENDBRANCH   2   3
ENDBRANCH   1   2
BRANCH   1   9
ATOM      9  C   UNL     1       5.604   5.323  -8.697  0.00  0.00    +0.000 C 
BRANCH   9  10
ATOM     10  C   UNL     1       6.156   6.004  -9.943  0.00  0.00    +0.003 C 
BRANCH  10  11
ATOM     11  C   UNL     1       7.548   5.470 -10.205  0.00  0.00    +0.032 C 
BRANCH  11  12
ATOM     12  C   UNL     1       8.017   5.746 -11.608  0.00  0.00    +0.142 C 
BRANCH  12  13
ATOM     13  O   UNL     1       7.615   4.774 -12.512  0.00  0.00    -0.351 OA
BRANCH  13  14
ATOM     14  C   UNL     1       7.268   5.347 -13.723  0.00  0.00    +0.178 C 
BRANCH  14  15
ATOM     15  C   UNL     1       5.797   5.733 -13.620  0.00  0.00    +0.214 C 
ATOM     16  O   UNL     1       5.001   4.599 -13.465  0.00  0.00    -0.218 OA
ENDBRANCH  14  15
ENDBRANCH  13  14
ENDBRANCH  12  13
ENDBRANCH  11  12
ENDBRANCH  10  11
ENDBRANCH   9  10
ENDBRANCH   1   9
TORSDOF 13
ENDMDL
MODEL 6
REMARK VINA RESULT:      -4.7      1.581      2.155
REMARK  Name = 
REMARK  13 active torsions:
REMARK  status: ('A' for Active; 'I' for Inactive)
REMARK    1  A    between atoms: C_2  and  C_3
REMARK    2  A    between atoms: C_3  and  C_4
REMARK    3  A    between atoms: C_4  and  C_5
REMARK    4  A    between atoms: C_5  and  C_6
REMARK    5  A    between atoms: C_6  and  C_7
REMARK    6  A    between atoms: C_7  and  C_8
REMARK    7  A    between atoms: C_8  and  C_9
REMARK    8  A    between atoms: C_9  and  C_10
REMARK    9  A    between atoms: C_10  and  C_11
REMARK   10  A    between atoms: C_11  and  C_12
REMARK   11  A    between atoms: C_12  and  O_13
REMARK   12  A    between atoms: O_13  and  C_14
REMARK   13  A    between atoms: C_14  and  C_15
REMARK                            x       y       z     vdW  Elec       q    Type
REMARK                         _______ _______ _______ _____ _____    ______ ____
ROOT
ATOM      1  C   UNL     1      -2.478   5.594  -6.080  0.00  0.00    +0.000 C 
ENDROOT
BRANCH   1   2
ATOM      2  C   UNL     1      -1.360   5.193  -7.019  0.00  0.00    +0.000 C 
BRANCH   2   3
ATOM      3  C   UNL     1      -0.015   5.672  -6.530  0.00  0.00    +0.000 C 
BRANCH   3   4
ATOM      4  C   UNL     1       1.044   5.194  -7.517  0.00  0.00    +0.000 C 
BRANCH   4   5
ATOM      5  C   UNL     1       0.772   5.944  -8.812  0.00  0.00    +0.000 C 
BRANCH   5   6
ATOM      6  C   UNL     1       0.926   4.933  -9.942  0.00  0.00    +0.000 C 
BRANCH   6   8
ATOM      7  C   UNL     1      -0.307   6.768 -11.132  0.00  0.00    +0.000 C 
ATOM      8  C   UNL     1      -0.049   5.276 -11.062  0.00  0.00    +0.000 C 
ENDBRANCH   6   8
ENDBRANCH   5   6
ENDBRANCH   4   5
ENDBRANCH   3   4
ENDBRANCH   2   3
ENDBRANCH   1   2
BRANCH   1   9
ATOM      9  C   UNL     1      -1.963   6.777  -5.268  0.00  0.00    +0.000 C 
BRANCH   9  10
ATOM     10  C   UNL     1      -2.794   6.801  -3.991  0.00  0.00    +0.003 C 
BRANCH  10  11
ATOM     11  C   UNL     1      -2.704   5.439  -3.335  0.00  0.00    +0.032 C 
BRANCH  11  12
ATOM     12  C   UNL     1      -2.355   5.526  -1.873  0.00  0.00    +0.142 C 
BRANCH  12  13
ATOM     13  O   UNL     1      -1.122   4.961  -1.580  0.00  0.00    -0.351 OA
BRANCH  13  14
ATOM     14  C   UNL     1      -0.142   5.935  -1.519  0.00  0.00    +0.178 C 
BRANCH  14  15
ATOM     15  C   UNL     1       1.188   5.236  -1.776  0.00  0.00    +0.214 C 
ATOM     16  O   UNL     1       1.756   4.804  -0.578  0.00  0.00    -0.218 OA
ENDBRANCH  14  15
ENDBRANCH  13  14
ENDBRANCH  12  13
ENDBRANCH  11  12
ENDBRANCH  10  11
ENDBRANCH   9  10
ENDBRANCH   1   9
TORSDOF 13
ENDMDL
MODEL 7
REMARK VINA RESULT:      -4.6      2.702      5.648
REMARK  Name = 
REMARK  13 active torsions:
REMARK  status: ('A' for Active; 'I' for Inactive)
REMARK    1  A    between atoms: C_2  and  C_3
REMARK    2  A    between atoms: C_3  and  C_4
REMARK    3  A    between atoms: C_4  and  C_5
REMARK    4  A    between atoms: C_5  and  C_6
REMARK    5  A    between atoms: C_6  and  C_7
REMARK    6  A    between atoms: C_7  and  C_8
REMARK    7  A    between atoms: C_8  and  C_9
REMARK    8  A    between atoms: C_9  and  C_10
REMARK    9  A    between atoms: C_10  and  C_11
REMARK   10  A    between atoms: C_11  and  C_12
REMARK   11  A    between atoms: C_12  and  O_13
REMARK   12  A    between atoms: O_13  and  C_14
REMARK   13  A    between atoms: C_14  and  C_15
REMARK                            x       y       z     vdW  Elec       q    Type
REMARK                         _______ _______ _______ _____ _____    ______ ____
ROOT
ATOM      1  C   UNL     1      -0.296   6.166  -6.054  0.00  0.00    +0.000 C 
ENDROOT
BRANCH   1   2
ATOM      2  C   UNL     1      -1.772   5.906  -6.268  0.00  0.00    +0.000 C 
BRANCH   2   3
ATOM      3  C   UNL     1      -2.630   6.733  -5.342  0.00  0.00    +0.000 C 
BRANCH   3   4
ATOM      4  C   UNL     1      -1.746   7.795  -4.700  0.00  0.00    +0.000 C 
BRANCH   4   5
ATOM      5  C   UNL     1      -1.972   7.671  -3.201  0.00  0.00    +0.000 C 
BRANCH   5   6
ATOM      6  C   UNL     1      -3.049   6.610  -3.009  0.00  0.00    +0.000 C 
BRANCH   6   8
ATOM      7  C   UNL     1      -1.779   6.027  -0.922  0.00  0.00    +0.000 C 
ATOM      8  C   UNL     1      -2.498   5.484  -2.141  0.00  0.00    +0.000 C 
ENDBRANCH   6   8
ENDBRANCH   5   6
ENDBRANCH   4   5
ENDBRANCH   3   4
ENDBRANCH   2   3
ENDBRANCH   1   2
BRANCH   1   9
ATOM      9  C   UNL     1       0.314   4.853  -5.578  0.00  0.00    +0.000 C 
BRANCH   9  10
ATOM     10  C   UNL     1       1.534   5.235  -4.750  0.00  0.00    +0.003 C 
BRANCH  10  11
ATOM     11  C   UNL     1       1.086   5.498  -3.328  0.00  0.00    +0.032 C 
BRANCH  11  12
ATOM     12  C   UNL     1       2.006   6.441  -2.599  0.00  0.00    +0.142 C 
BRANCH  12  13
ATOM     13  O   UNL     1       2.647   7.332  -3.448  0.00  0.00    -0.351 OA
BRANCH  13  14
ATOM     14  C   UNL     1       3.891   7.673  -2.947  0.00  0.00    +0.178 C 
BRANCH  14  15
ATOM     15  C   UNL     1       4.837   7.751  -4.139  0.00  0.00    +0.214 C 
ATOM     16  O   UNL     1       4.154   7.488  -5.326  0.00  0.00    -0.218 OA
ENDBRANCH  14  15
ENDBRANCH  13  14
ENDBRANCH  12  13
ENDBRANCH  11  12
ENDBRANCH  10  11
ENDBRANCH   9  10
ENDBRANCH   1   9
TORSDOF 13
ENDMDL
MODEL 8
REMARK VINA RESULT:      -4.6      1.860      3.652
REMARK  Name = 
REMARK  13 active torsions:
REMARK  status: ('A' for Active; 'I' for Inactive)
REMARK    1  A    between atoms: C_2  and  C_3
REMARK    2  A    between atoms: C_3  and  C_4
REMARK    3  A    between atoms: C_4  and  C_5
REMARK    4  A    between atoms: C_5  and  C_6
REMARK    5  A    between atoms: C_6  and  C_7
REMARK    6  A    between atoms: C_7  and  C_8
REMARK    7  A    between atoms: C_8  and  C_9
REMARK    8  A    between atoms: C_9  and  C_10
REMARK    9  A    between atoms: C_10  and  C_11
REMARK   10  A    between atoms: C_11  and  C_12
REMARK   11  A    between atoms: C_12  and  O_13
REMARK   12  A    between atoms: O_13  and  C_14
REMARK   13  A    between atoms: C_14  and  C_15
REMARK                            x       y       z     vdW  Elec       q    Type
REMARK                         _______ _______ _______ _____ _____    ______ ____
ROOT
ATOM      1  C   UNL     1       2.350   6.520  -5.845  0.00  0.00    +0.000 C 
ENDROOT
BRANCH   1   2
ATOM      2  C   UNL     1       3.112   6.601  -7.151  0.00  0.00    +0.000 C 
BRANCH   2   3
ATOM      3  C   UNL     1       2.412   7.481  -8.158  0.00  0.00    +0.000 C 
BRANCH   3   4
ATOM      4  C   UNL     1       2.167   6.657  -9.417  0.00  0.00    +0.000 C 
BRANCH   4   5
ATOM      5  C   UNL     1       0.708   6.230  -9.354  0.00  0.00    +0.000 C 
BRANCH   5   6
ATOM      6  C   UNL     1       0.401   5.532 -10.674  0.00  0.00    +0.000 C 
BRANCH   6   8
ATOM      7  C   UNL     1      -0.685   7.590 -11.618  0.00  0.00    +0.000 C 
ATOM      8  C   UNL     1       0.410   6.557 -11.802  0.00  0.00    +0.000 C 
ENDBRANCH   6   8
ENDBRANCH   5   6
ENDBRANCH   4   5
ENDBRANCH   3   4
ENDBRANCH   2   3
ENDBRANCH   1   2
BRANCH   1   9
ATOM      9  C   UNL     1       2.241   5.040  -5.495  0.00  0.00    +0.000 C 
BRANCH   9  10
ATOM     10  C   UNL     1       0.915   4.569  -6.079  0.00  0.00    +0.003 C 
BRANCH  10  11
ATOM     11  C   UNL     1      -0.149   5.593  -5.740  0.00  0.00    +0.032 C 
BRANCH  11  12
ATOM     12  C   UNL     1      -1.435   5.355  -6.486  0.00  0.00    +0.142 C 
BRANCH  12  13
ATOM     13  O   UNL     1      -2.556   5.475  -5.678  0.00  0.00    -0.351 OA
BRANCH  13  14
ATOM     14  C   UNL     1      -2.197   5.869  -4.401  0.00  0.00    +0.178 C 
BRANCH  14  15
ATOM     15  C   UNL     1      -3.193   5.221  -3.446  0.00  0.00    +0.214 C 
ATOM     16  O   UNL     1      -2.564   4.849  -2.259  0.00  0.00    -0.218 OA
ENDBRANCH  14  15
ENDBRANCH  13  14
ENDBRANCH  12  13
ENDBRANCH  11  12
ENDBRANCH  10  11
ENDBRANCH   9  10
ENDBRANCH   1   9
TORSDOF 13
ENDMDL
MODEL 9
REMARK VINA RESULT:      -4.6      2.492      3.462
REMARK  Name = 
REMARK  13 active torsions:
REMARK  status: ('A' for Active; 'I' for Inactive)
REMARK    1  A    between atoms: C_2  and  C_3
REMARK    2  A    between atoms: C_3  and  C_4
REMARK    3  A    between atoms: C_4  and  C_5
REMARK    4  A    between atoms: C_5  and  C_6
REMARK    5  A    between atoms: C_6  and  C_7
REMARK    6  A    between atoms: C_7  and  C_8
REMARK    7  A    between atoms: C_8  and  C_9
REMARK    8  A    between atoms: C_9  and  C_10
REMARK    9  A    between atoms: C_10  and  C_11
REMARK   10  A    between atoms: C_11  and  C_12
REMARK   11  A    between atoms: C_12  and  O_13
REMARK   12  A    between atoms: O_13  and  C_14
REMARK   13  A    between atoms: C_14  and  C_15
REMARK                            x       y       z     vdW  Elec       q    Type
REMARK                         _______ _______ _______ _____ _____    ______ ____
ROOT
ATOM      1  C   UNL     1       1.383   5.266  -8.081  0.00  0.00    +0.000 C 
ENDROOT
BRANCH   1   2
ATOM      2  C   UNL     1       1.907   6.636  -8.454  0.00  0.00    +0.000 C 
BRANCH   2   3
ATOM      3  C   UNL     1       3.397   6.623  -8.698  0.00  0.00    +0.000 C 
BRANCH   3   4
ATOM      4  C   UNL     1       4.036   5.696  -7.671  0.00  0.00    +0.000 C 
BRANCH   4   5
ATOM      5  C   UNL     1       5.283   5.136  -8.339  0.00  0.00    +0.000 C 
BRANCH   5   6
ATOM      6  C   UNL     1       5.496   5.946  -9.613  0.00  0.00    +0.000 C 
BRANCH   6   8
ATOM      7  C   UNL     1       7.294   7.182 -10.856  0.00  0.00    +0.000 C 
ATOM      8  C   UNL     1       6.989   6.043  -9.904  0.00  0.00    +0.000 C 
ENDBRANCH   6   8
ENDBRANCH   5   6
ENDBRANCH   4   5
ENDBRANCH   3   4
ENDBRANCH   2   3
ENDBRANCH   1   2
BRANCH   1   9
ATOM      9  C   UNL     1       0.400   5.472  -6.935  0.00  0.00    +0.000 C 
BRANCH   9  10
ATOM     10  C   UNL     1      -0.987   5.270  -7.534  0.00  0.00    +0.003 C 
BRANCH  10  11
ATOM     11  C   UNL     1      -2.019   5.684  -6.506  0.00  0.00    +0.032 C 
BRANCH  11  12
ATOM     12  C   UNL     1      -1.459   5.715  -5.109  0.00  0.00    +0.142 C 
BRANCH  12  13
ATOM     13  O   UNL     1      -2.418   5.459  -4.139  0.00  0.00    -0.351 OA
BRANCH  13  14
ATOM     14  C   UNL     1      -2.823   6.635  -3.532  0.00  0.00    +0.178 C 
BRANCH  14  15
ATOM     15  C   UNL     1      -3.105   6.299  -2.072  0.00  0.00    +0.214 C 
ATOM     16  O   UNL     1      -2.526   5.079  -1.727  0.00  0.00    -0.218 OA
ENDBRANCH  14  15
ENDBRANCH  13  14
ENDBRANCH  12  13
ENDBRANCH  11  12
ENDBRANCH  10  11
ENDBRANCH   9  10
ENDBRANCH   1   9
TORSDOF 13
ENDMDL
