MODEL 1
REMARK VINA RESULT:      -5.5      0.000      0.000
REMARK  Name = 
REMARK  2 active torsions:
REMARK  status: ('A' for Active; 'I' for Inactive)
REMARK    1  A    between atoms: O_2  and  C_3
REMARK    2  A    between atoms: C_3  and  C_5
REMARK                            x       y       z     vdW  Elec       q    Type
REMARK                         _______ _______ _______ _____ _____    ______ ____
ROOT
ATOM      1  C   UNL     1       4.983   6.596 -10.124  0.00  0.00    +0.114 A 
ATOM      2  C   UNL     1       5.911   5.758  -9.520  0.00  0.00    +0.202 A 
ATOM      3  O   UNL     1       5.502   5.091  -8.361  0.00  0.00    -0.286 OA
ATOM      4  C   UNL     1       7.206   5.652 -10.012  0.00  0.00    +0.038 A 
ATOM      5  C   UNL     1       7.626   6.502 -11.016  0.00  0.00    -0.019 A 
ATOM      6  C   UNL     1       8.691   5.977 -11.924  0.00  0.00    +0.031 C 
ATOM      7  C   UNL     1       6.836   7.576 -11.332  0.00  0.00    -0.004 A 
ATOM      8  C   UNL     1       5.511   7.566 -10.949  0.00  0.00    +0.009 A 
ENDROOT
BRANCH   1   9
ATOM      9  C   UNL     1       3.576   6.197 -10.160  0.00  0.00    +0.344 C 
ATOM     10  O   UNL     1       3.138   5.357 -11.003  0.00  0.00    -0.245 OA
BRANCH   9  12
ATOM     11  C   UNL     1       2.757   7.268  -8.103  0.00  0.00    +0.256 C 
ATOM     12  O   UNL     1       2.593   6.886  -9.451  0.00  0.00    -0.441 OA
ENDBRANCH   9  12
ENDBRANCH   1   9
TORSDOF 2
ENDMDL
MODEL 2
REMARK VINA RESULT:      -5.3      4.475      7.343
REMARK  Name = 
REMARK  2 active torsions:
REMARK  status: ('A' for Active; 'I' for Inactive)
REMARK    1  A    between atoms: O_2  and  C_3
REMARK    2  A    between atoms: C_3  and  C_5
REMARK                            x       y       z     vdW  Elec       q    Type
REMARK                         _______ _______ _______ _____ _____    ______ ____
ROOT
ATOM      1  C   UNL     1       0.507   5.844  -7.314  0.00  0.00    +0.114 A 
ATOM      2  C   UNL     1       0.818   6.493  -6.126  0.00  0.00    +0.202 A 
ATOM      3  O   UNL     1       2.175   6.636  -5.819  0.00  0.00    -0.286 OA
ATOM      4  C   UNL     1      -0.182   6.910  -5.256  0.00  0.00    +0.038 A 
ATOM      5  C   UNL     1      -1.491   6.541  -5.494  0.00  0.00    -0.019 A 
ATOM      6  C   UNL     1      -2.543   7.475  -4.987  0.00  0.00    +0.031 C 
ATOM      7  C   UNL     1      -1.735   5.583  -6.443  0.00  0.00    -0.004 A 
ATOM      8  C   UNL     1      -0.762   5.310  -7.382  0.00  0.00    +0.009 A 
ENDROOT
BRANCH   1   9
ATOM      9  C   UNL     1       1.339   6.076  -8.495  0.00  0.00    +0.344 C 
ATOM     10  O   UNL     1       1.412   7.214  -9.051  0.00  0.00    -0.245 OA
BRANCH   9  12
ATOM     11  C   UNL     1       2.611   3.974  -8.613  0.00  0.00    +0.256 C 
ATOM     12  O   UNL     1       1.898   5.028  -9.224  0.00  0.00    -0.441 OA
ENDBRANCH   9  12
ENDBRANCH   1   9
TORSDOF 2
ENDMDL
MODEL 3
REMARK VINA RESULT:      -5.2      1.870      3.139
REMARK  Name = 
REMARK  2 active torsions:
REMARK  status: ('A' for Active; 'I' for Inactive)
REMARK    1  A    between atoms: O_2  and  C_3
REMARK    2  A    between atoms: C_3  and  C_5
REMARK                            x       y       z     vdW  Elec       q    Type
REMARK                         _______ _______ _______ _____ _____    ______ ____
ROOT
ATOM      1  C   UNL     1       4.128   5.908  -8.366  0.00  0.00    +0.114 A 
ATOM      2  C   UNL     1       3.728   6.506  -9.554  0.00  0.00    +0.202 A 
ATOM      3  O   UNL     1       2.351   6.619  -9.774  0.00  0.00    -0.286 OA
ATOM      4  C   UNL     1       4.660   6.904 -10.504  0.00  0.00    +0.038 A 
ATOM      5  C   UNL     1       5.989   6.563 -10.341  0.00  0.00    -0.019 A 
ATOM      6  C   UNL     1       6.989   7.491 -10.951  0.00  0.00    +0.031 C 
ATOM      7  C   UNL     1       6.311   5.645  -9.375  0.00  0.00    -0.004 A 
ATOM      8  C   UNL     1       5.407   5.395  -8.364  0.00  0.00    +0.009 A 
ENDROOT
BRANCH   1   9
ATOM      9  C   UNL     1       3.372   6.173  -7.142  0.00  0.00    +0.344 C 
ATOM     10  O   UNL     1       3.251   7.344  -6.669  0.00  0.00    -0.245 OA
BRANCH   9  12
ATOM     11  C   UNL     1       2.183   4.058  -6.742  0.00  0.00    +0.256 C 
ATOM     12  O   UNL     1       2.956   5.150  -6.292  0.00  0.00    -0.441 OA
ENDBRANCH   9  12
ENDBRANCH   1   9
TORSDOF 2
ENDMDL
MODEL 4
REMARK VINA RESULT:      -5.2      4.801      7.715
REMARK  Name = 
REMARK  2 active torsions:
REMARK  status: ('A' for Active; 'I' for Inactive)
REMARK    1  A    between atoms: O_2  and  C_3
REMARK    2  A    between atoms: C_3  and  C_5
REMARK                            x       y       z     vdW  Elec       q    Type
REMARK                         _______ _______ _______ _____ _____    ______ ____
ROOT
ATOM      1  C   UNL     1       0.362   5.115  -6.474  0.00  0.00    +0.114 A 
ATOM      2  C   UNL     1       0.329   5.440  -5.124  0.00  0.00    +0.202 A 
ATOM      3  O   UNL     1       1.385   4.975  -4.334  0.00  0.00    -0.286 OA
ATOM      4  C   UNL     1      -0.748   6.132  -4.581  0.00  0.00    +0.038 A 
ATOM      5  C   UNL     1      -1.868   6.365  -5.354  0.00  0.00    -0.019 A 
ATOM      6  C   UNL     1      -2.661   7.586  -5.016  0.00  0.00    +0.031 C 
ATOM      7  C   UNL     1      -1.982   5.706  -6.551  0.00  0.00    -0.004 A 
ATOM      8  C   UNL     1      -0.851   5.164  -7.125  0.00  0.00    +0.009 A 
ENDROOT
BRANCH   1   9
ATOM      9  C   UNL     1       1.646   5.115  -7.177  0.00  0.00    +0.344 C 
ATOM     10  O   UNL     1       2.186   4.043  -7.587  0.00  0.00    -0.245 OA
BRANCH   9  12
ATOM     11  C   UNL     1       2.041   7.467  -7.779  0.00  0.00    +0.256 C 
ATOM     12  O   UNL     1       2.465   6.242  -7.222  0.00  0.00    -0.441 OA
ENDBRANCH   9  12
ENDBRANCH   1   9
TORSDOF 2
ENDMDL
MODEL 5
REMARK VINA RESULT:      -5.0      8.136      9.783
REMARK  Name = 
REMARK  2 active torsions:
REMARK  status: ('A' for Active; 'I' for Inactive)
REMARK    1  A    between atoms: O_2  and  C_3
REMARK    2  A    between atoms: C_3  and  C_5
REMARK                            x       y       z     vdW  Elec       q    Type
REMARK                         _______ _______ _______ _____ _____    ______ ____
ROOT
ATOM      1  C   UNL     1      -1.270   6.346  -3.046  0.00  0.00    +0.114 A 
ATOM      2  C   UNL     1      -0.143   5.801  -3.647  0.00  0.00    +0.202 A 
ATOM      3  O   UNL     1       0.961   5.563  -2.822  0.00  0.00    -0.286 OA
ATOM      4  C   UNL     1      -0.101   5.577  -5.017  0.00  0.00    +0.038 A 
ATOM      5  C   UNL     1      -1.127   6.041  -5.816  0.00  0.00    -0.019 A 
ATOM      6  C   UNL     1      -1.387   5.272  -7.071  0.00  0.00    +0.031 C 
ATOM      7  C   UNL     1      -2.034   6.911  -5.270  0.00  0.00    -0.004 A 
ATOM      8  C   UNL     1      -2.143   6.988  -3.897  0.00  0.00    +0.009 A 
ENDROOT
BRANCH   1   9
ATOM      9  C   UNL     1      -1.644   5.910  -1.700  0.00  0.00    +0.344 C 
ATOM     10  O   UNL     1      -2.545   5.039  -1.503  0.00  0.00    -0.245 OA
BRANCH   9  12
ATOM     11  C   UNL     1      -1.983   7.618   0.037  0.00  0.00    +0.256 C 
ATOM     12  O   UNL     1      -1.222   6.590  -0.558  0.00  0.00    -0.441 OA
ENDBRANCH   9  12
ENDBRANCH   1   9
TORSDOF 2
ENDMDL
MODEL 6
REMARK VINA RESULT:      -4.9      3.149      4.418
REMARK  Name = 
REMARK  2 active torsions:
REMARK  status: ('A' for Active; 'I' for Inactive)
REMARK    1  A    between atoms: O_2  and  C_3
REMARK    2  A    between atoms: C_3  and  C_5
REMARK                            x       y       z     vdW  Elec       q    Type
REMARK                         _______ _______ _______ _____ _____    ______ ____
ROOT
ATOM      1  C   UNL     1       3.190   6.427  -8.801  0.00  0.00    +0.114 A 
ATOM      2  C   UNL     1       2.834   7.192  -7.698  0.00  0.00    +0.202 A 
ATOM      3  O   UNL     1       2.054   8.327  -7.941  0.00  0.00    -0.286 OA
ATOM      4  C   UNL     1       3.300   6.876  -6.428  0.00  0.00    +0.038 A 
ATOM      5  C   UNL     1       4.249   5.885  -6.276  0.00  0.00    -0.019 A 
ATOM      6  C   UNL     1       4.238   5.153  -4.973  0.00  0.00    +0.031 C 
ATOM      7  C   UNL     1       4.876   5.408  -7.397  0.00  0.00    -0.004 A 
ATOM      8  C   UNL     1       4.294   5.620  -8.630  0.00  0.00    +0.009 A 
ENDROOT
BRANCH   1   9
ATOM      9  C   UNL     1       2.222   6.235  -9.881  0.00  0.00    +0.344 C 
ATOM     10  O   UNL     1       2.483   6.554 -11.081  0.00  0.00    -0.245 OA
BRANCH   9  12
ATOM     11  C   UNL     1       0.227   4.842 -10.243  0.00  0.00    +0.256 C 
ATOM     12  O   UNL     1       0.885   5.930  -9.631  0.00  0.00    -0.441 OA
ENDBRANCH   9  12
ENDBRANCH   1   9
TORSDOF 2
ENDMDL
MODEL 7
REMARK VINA RESULT:      -4.8      4.674      8.156
REMARK  Name = 
REMARK  2 active torsions:
REMARK  status: ('A' for Active; 'I' for Inactive)
REMARK    1  A    between atoms: O_2  and  C_3
REMARK    2  A    between atoms: C_3  and  C_5
REMARK                            x       y       z     vdW  Elec       q    Type
REMARK                         _______ _______ _______ _____ _____    ______ ____
ROOT
ATOM      1  C   UNL     1       0.360   6.208  -6.054  0.00  0.00    +0.114 A 
ATOM      2  C   UNL     1      -0.737   5.660  -6.704  0.00  0.00    +0.202 A 
ATOM      3  O   UNL     1      -0.574   5.329  -8.053  0.00  0.00    -0.286 OA
ATOM      4  C   UNL     1      -1.958   5.521  -6.054  0.00  0.00    +0.038 A 
ATOM      5  C   UNL     1      -2.130   6.073  -4.800  0.00  0.00    -0.019 A 
ATOM      6  C   UNL     1      -3.120   5.395  -3.910  0.00  0.00    +0.031 C 
ATOM      7  C   UNL     1      -1.176   6.941  -4.335  0.00  0.00    -0.004 A 
ATOM      8  C   UNL     1       0.074   6.935  -4.919  0.00  0.00    +0.009 A 
ENDROOT
BRANCH   1   9
ATOM      9  C   UNL     1       1.699   5.703  -6.360  0.00  0.00    +0.344 C 
ATOM     10  O   UNL     1       2.269   4.831  -5.637  0.00  0.00    -0.245 OA
BRANCH   9  12
ATOM     11  C   UNL     1       2.256   7.599  -7.825  0.00  0.00    +0.256 C 
ATOM     12  O   UNL     1       2.523   6.315  -7.304  0.00  0.00    -0.441 OA
ENDBRANCH   9  12
ENDBRANCH   1   9
TORSDOF 2
ENDMDL
MODEL 8
REMARK VINA RESULT:      -4.8      7.356      8.757
REMARK  Name = 
REMARK  2 active torsions:
REMARK  status: ('A' for Active; 'I' for Inactive)
REMARK    1  A    between atoms: O_2  and  C_3
REMARK    2  A    between atoms: C_3  and  C_5
REMARK                            x       y       z     vdW  Elec       q    Type
REMARK                         _______ _______ _______ _____ _____    ______ ____
ROOT
ATOM      1  C   UNL     1       0.399   5.880  -3.819  0.00  0.00    +0.114 A 
ATOM      2  C   UNL     1       0.593   5.216  -5.024  0.00  0.00    +0.202 A 
ATOM      3  O   UNL     1       1.819   4.567  -5.199  0.00  0.00    -0.286 OA
ATOM      4  C   UNL     1      -0.365   5.265  -6.029  0.00  0.00    +0.038 A 
ATOM      5  C   UNL     1      -1.452   6.106  -5.896  0.00  0.00    -0.019 A 
ATOM      6  C   UNL     1      -2.704   5.683  -6.595  0.00  0.00    +0.031 C 
ATOM      7  C   UNL     1      -1.434   7.038  -4.891  0.00  0.00    -0.004 A 
ATOM      8  C   UNL     1      -0.565   6.864  -3.834  0.00  0.00    +0.009 A 
ENDROOT
BRANCH   1   9
ATOM      9  C   UNL     1       0.914   5.286  -2.585  0.00  0.00    +0.344 C 
ATOM     10  O   UNL     1       0.170   4.627  -1.796  0.00  0.00    -0.245 OA
BRANCH   9  12
ATOM     11  C   UNL     1       2.867   6.775  -2.457  0.00  0.00    +0.256 C 
ATOM     12  O   UNL     1       2.171   5.609  -2.076  0.00  0.00    -0.441 OA
ENDBRANCH   9  12
ENDBRANCH   1   9
TORSDOF 2
ENDMDL
MODEL 9
REMARK VINA RESULT:      -4.8      5.357      6.298
REMARK  Name = 
REMARK  2 active torsions:
REMARK  status: ('A' for Active; 'I' for Inactive)
REMARK    1  A    between atoms: O_2  and  C_3
REMARK    2  A    between atoms: C_3  and  C_5
REMARK                            x       y       z     vdW  Elec       q    Type
REMARK                         _______ _______ _______ _____ _____    ______ ____
ROOT
ATOM      1  C   UNL     1       3.399   5.340  -5.507  0.00  0.00    +0.114 A 
ATOM      2  C   UNL     1       3.448   6.727  -5.520  0.00  0.00    +0.202 A 
ATOM      3  O   UNL     1       2.935   7.369  -6.651  0.00  0.00    -0.286 OA
ATOM      4  C   UNL     1       4.050   7.431  -4.483  0.00  0.00    +0.038 A 
ATOM      5  C   UNL     1       4.743   6.745  -3.505  0.00  0.00    -0.019 A 
ATOM      6  C   UNL     1       4.796   7.390  -2.158  0.00  0.00    +0.031 C 
ATOM      7  C   UNL     1       5.018   5.418  -3.712  0.00  0.00    -0.004 A 
ATOM      8  C   UNL     1       4.286   4.723  -4.652  0.00  0.00    +0.009 A 
ENDROOT
BRANCH   1   9
ATOM      9  C   UNL     1       2.231   4.661  -6.069  0.00  0.00    +0.344 C 
ATOM     10  O   UNL     1       2.261   4.105  -7.209  0.00  0.00    -0.245 OA
BRANCH   9  12
ATOM     11  C   UNL     1      -0.172   5.145  -6.279  0.00  0.00    +0.256 C 
ATOM     12  O   UNL     1       0.959   4.793  -5.513  0.00  0.00    -0.441 OA
ENDBRANCH   9  12
ENDBRANCH   1   9
TORSDOF 2
ENDMDL
