MODEL 1
REMARK VINA RESULT:      40.9      0.000      0.000
REMARK  Name = 
REMARK  3 active torsions:
REMARK  status: ('A' for Active; 'I' for Inactive)
REMARK    1  A    between atoms: C_17  and  O_18
REMARK    2  A    between atoms: O_18  and  C_19
REMARK    3  A    between atoms: C_32  and  C_33
REMARK                            x       y       z     vdW  Elec       q    Type
REMARK                         _______ _______ _______ _____ _____    ______ ____
ROOT
ATOM      1  C   UNL     1      -4.583  13.880 -14.853  0.00  0.00    +0.007 C 
ATOM      2  C   UNL     1      -3.335  12.935 -14.395  0.00  0.00    +0.053 C 
ATOM      3  C   UNL     1      -2.384  14.307 -14.089  0.00  0.00    +0.159 C 
ATOM      4  O   UNL     1      -1.455  13.551 -13.182  0.00  0.00    -0.223 OA
ATOM      5  C   UNL     1      -1.306  14.186 -15.382  0.00  0.00    +0.071 C 
ATOM      6  C   UNL     1      -2.301  14.847 -16.451  0.00  0.00    +0.006 C 
ATOM      7  C   UNL     1      -1.641  12.607 -15.891  0.00  0.00    +0.171 C 
ATOM      8  C   UNL     1      -0.825  12.844 -17.301  0.00  0.00    +0.047 C 
ATOM      9  O   UNL     1      -0.497  12.071 -15.020  0.00  0.00    -0.452 OA
ATOM     10  C   UNL     1       0.803  12.401 -15.469  0.00  0.00    +0.319 C 
ATOM     11  O   UNL     1       1.717  12.851 -14.681  0.00  0.00    -0.250 OA
ATOM     12  C   UNL     1       0.973  11.507 -16.576  0.00  0.00    +0.142 C 
ATOM     13  C   UNL     1       2.554  11.456 -17.031  0.00  0.00    +0.166 C 
ATOM     14  O   UNL     1       3.146  11.432 -15.629  0.00  0.00    -0.222 OA
ATOM     15  C   UNL     1       2.493   9.822 -17.258  0.00  0.00    +0.066 C 
ATOM     16  C   UNL     1       3.061   9.194 -15.854  0.00  0.00    +0.157 C 
ATOM     17  O   UNL     1       1.698   8.591 -15.539  0.00  0.00    -0.223 OA
ATOM     18  C   UNL     1       3.578   7.768 -16.486  0.00  0.00    +0.066 C 
ATOM     19  C   UNL     1       5.210   7.789 -16.250  0.00  0.00    +0.155 C 
ATOM     20  O   UNL     1       5.140   8.543 -14.938  0.00  0.00    -0.223 OA
ATOM     21  C   UNL     1       5.335   6.352 -15.460  0.00  0.00    +0.036 C 
ATOM     22  C   UNL     1       5.062   6.103 -14.291  0.00  0.00    +0.038 C 
ATOM     23  C   UNL     1       5.387   6.341 -12.753  0.00  0.00    +0.183 C 
ATOM     24  O   UNL     1       4.231   7.314 -12.606  0.00  0.00    -0.220 OA
ATOM     25  C   UNL     1       4.338   5.063 -12.233  0.00  0.00    +0.189 C 
ATOM     26  O   UNL     1       4.827   4.061 -13.248  0.00  0.00    -0.220 OA
ATOM     27  C   UNL     1       5.420   4.567 -11.120  0.00  0.00    +0.100 C 
ATOM     28  C   UNL     1       5.052   5.147  -9.827  0.00  0.00    +0.156 C 
ATOM     29  O   UNL     1       5.735   6.049  -9.517  0.00  0.00    -0.296 OA
ATOM     30  C   UNL     1       4.700   4.205  -8.711  0.00  0.00    +0.098 C 
ATOM     31  C   UNL     1       3.060   4.246  -8.677  0.00  0.00    +0.172 C 
ATOM     32  O   UNL     1       2.889   2.760  -8.464  0.00  0.00    -0.222 OA
ATOM     33  C   UNL     1       2.852   4.495  -7.001  0.00  0.00    +0.164 C 
ATOM     34  C   UNL     1       3.567   6.034  -7.061  0.00  0.00    +0.168 C 
ATOM     35  O   UNL     1       2.412   6.594  -7.857  0.00  0.00    -0.222 OA
ATOM     36  C   UNL     1       2.912   6.512  -5.638  0.00  0.00    +0.068 C 
ATOM     37  C   UNL     1       1.405   5.854  -5.697  0.00  0.00    +0.142 C 
ATOM     38  C   UNL     1       0.681   7.292  -5.478  0.00  0.00    +0.003 C 
ATOM     39  C   UNL     1      -0.271   7.271  -6.380  0.00  0.00    -0.002 C 
ATOM     40  C   UNL     1      -1.619   7.826  -6.136  0.00  0.00    -0.000 C 
ATOM     41  C   UNL     1      -1.586   9.041  -5.657  0.00  0.00    -0.000 C 
ATOM     42  C   UNL     1      -2.860   9.705  -5.318  0.00  0.00    -0.000 C 
ATOM     43  C   UNL     1      -3.882   9.442  -6.091  0.00  0.00    -0.000 C 
ATOM     44  C   UNL     1      -4.679  10.620  -6.504  0.00  0.00    -0.005 C 
ATOM     45  C   UNL     1      -3.919  11.444  -7.234  0.00  0.00    -0.026 C 
ATOM     46  C   UNL     1      -4.360  11.505  -8.651  0.00  0.00    +0.031 C 
ATOM     47  C   UNL     1      -4.419  12.988  -8.990  0.00  0.00    +0.031 C 
ATOM     48  C   UNL     1      -3.328  13.221 -10.002  0.00  0.00    -0.026 C 
ATOM     49  C   UNL     1      -3.341  12.403 -10.989  0.00  0.00    -0.005 C 
ATOM     50  C   UNL     1      -4.128  13.261 -11.940  0.00  0.00    -0.005 C 
ATOM     51  C   UNL     1      -3.845  12.799 -12.929  0.00  0.00    -0.024 C 
ENDROOT
BRANCH  33  52
ATOM     52  C   UNL     1       4.074   3.657  -6.468  0.00  0.00    +0.369 C 
ATOM     53  O   UNL     1       3.729   3.051  -5.250  0.00  0.00    -0.245 OA
ATOM     54  O   UNL     1       5.228   4.052  -6.597  0.00  0.00    -0.245 OA
ENDBRANCH  33  52
BRANCH  37  55
ATOM     55  O   UNL     1       1.407   5.530  -4.210  0.00  0.00    -0.327 OA
BRANCH  55  56
ATOM     56  C   UNL     1       1.774   6.950  -3.821  0.00  0.00    +0.268 C 
ATOM     57  C   UNL     1       0.983   7.045  -2.300  0.00  0.00    +0.228 C 
ATOM     58  O   UNL     1      -0.290   6.410  -2.828  0.00  0.00    -0.216 OA
ATOM     59  C   UNL     1       1.348   5.677  -1.392  0.00  0.00    +0.160 C 
ATOM     60  N   UNL     1       1.227   4.530  -2.420  0.00  0.00    -0.127 NA
ATOM     61  C   UNL     1       3.044   5.706  -1.413  0.00  0.00    +0.199 C 
ATOM     62  O   UNL     1       3.107   6.198   0.002  0.00  0.00    -0.219 OA
ATOM     63  C   UNL     1       3.183   7.295  -2.022  0.00  0.00    +0.150 C 
ATOM     64  C   UNL     1       4.821   7.224  -1.939  0.00  0.00    +0.035 C 
ATOM     65  O   UNL     1       3.174   6.599  -3.354  0.00  0.00    -0.328 OA
ENDBRANCH  55  56
ENDBRANCH  37  55
TORSDOF 3
ENDMDL
