MODEL 1
REMARK VINA RESULT:      -7.8      0.000      0.000
REMARK  Name = 
REMARK  8 active torsions:
REMARK  status: ('A' for Active; 'I' for Inactive)
REMARK    1  A    between atoms: O_2  and  N_3
REMARK    2  A    between atoms: C_4  and  C_5
REMARK    3  A    between atoms: C_4  and  C_25
REMARK    4  A    between atoms: N_7  and  CA_8
REMARK    5  A    between atoms: CA_12  and  C_13
REMARK    6  A    between atoms: C_16  and  C_17
REMARK    7  A    between atoms: C_17  and  O_18
REMARK    8  A    between atoms: O_18  and  C_19
REMARK                            x       y       z     vdW  Elec       q    Type
REMARK                         _______ _______ _______ _____ _____    ______ ____
ROOT
ATOM      1  CA  UNL     1       0.836   5.941  -9.054  0.00  0.00    +0.201 C 
ATOM      2  C   UNL     1       2.185   6.564  -9.885  0.00  0.00    +0.157 C 
ATOM      3  N   UNL     1       1.635   5.706 -11.018  0.00  0.00    -0.242 N 
ATOM      4  CA  UNL     1       2.436   5.814 -12.193  0.00  0.00    +0.131 C 
ATOM      5  C   UNL     1       3.767   5.904 -12.188  0.00  0.00    +0.030 C 
ATOM      6  C   UNL     1       4.587   5.456 -11.017  0.00  0.00    +0.086 C 
ATOM      7  S   UNL     1       3.558   5.291  -9.519  0.00  0.00    -0.114 S 
ATOM      8  C   UNL     1       0.967   4.742 -10.160  0.00  0.00    +0.253 C 
ATOM      9  O   UNL     1      -0.176   4.288 -10.522  0.00  0.00    -0.273 OA
ENDROOT
BRANCH   4  10
ATOM     10  C   UNL     1       1.708   5.634 -13.459  0.00  0.00    +0.401 C 
ATOM     11  OXT UNL     1       1.164   6.728 -14.143  0.00  0.00    -0.239 OA
ATOM     12  O   UNL     1       1.253   4.493 -13.695  0.00  0.00    -0.239 OA
ENDBRANCH   4  10
BRANCH   1  14
ATOM     13  C   UNL     1       1.106   5.437  -6.602  0.00  0.00    +0.289 C 
ATOM     14  N   UNL     1       1.659   5.216  -7.878  0.00  0.00    -0.190 NA
ATOM     15  O   UNL     1       0.004   4.810  -6.538  0.00  0.00    -0.266 OA
BRANCH  13  17
ATOM     16  N   UNL     1       1.017   6.905  -4.786  0.00  0.00    -0.075 NA
ATOM     17  C   UNL     1       1.745   6.055  -5.456  0.00  0.00    +0.208 C 
BRANCH  17  18
ATOM     18  C   UNL     1       2.737   5.315  -4.655  0.00  0.00    +0.171 A 
ATOM     19  O   UNL     1       3.875   4.844  -5.086  0.00  0.00    -0.449 OA
ATOM     20  C   UNL     1       4.746   4.681  -4.127  0.00  0.00    +0.180 A 
ATOM     21  C   UNL     1       4.174   5.090  -2.952  0.00  0.00    +0.044 A 
ATOM     22  C   UNL     1       2.881   5.469  -3.281  0.00  0.00    +0.043 A 
ENDBRANCH  17  18
BRANCH  16  24
ATOM     23  C   UNL     1      -1.092   7.446  -4.879  0.00  0.00    +0.288 C 
ATOM     24  O   UNL     1      -0.323   7.082  -5.095  0.00  0.00    -0.373 OA
ENDBRANCH  16  24
ENDBRANCH  13  17
ENDBRANCH   1  14
BRANCH   5  25
ATOM     25  C   UNL     1       4.418   5.715 -13.527  0.00  0.00    +0.235 C 
BRANCH  25  26
ATOM     26  O   UNL     1       5.492   4.814 -13.449  0.00  0.00    -0.428 OA
BRANCH  26  27
ATOM     27  C   UNL     1       6.755   5.351 -13.713  0.00  0.00    +0.441 C 
ATOM     28  O   UNL     1       6.813   6.596 -13.945  0.00  0.00    -0.223 OA
ATOM     29  N   UNL     1       7.848   4.822 -12.954  0.00  0.00    -0.048 NA
ENDBRANCH  26  27
ENDBRANCH  25  26
ENDBRANCH   5  25
TORSDOF 8
ENDMDL
MODEL 2
REMARK VINA RESULT:      -7.6      2.404      8.291
REMARK  Name = 
REMARK  8 active torsions:
REMARK  status: ('A' for Active; 'I' for Inactive)
REMARK    1  A    between atoms: O_2  and  N_3
REMARK    2  A    between atoms: C_4  and  C_5
REMARK    3  A    between atoms: C_4  and  C_25
REMARK    4  A    between atoms: N_7  and  CA_8
REMARK    5  A    between atoms: CA_12  and  C_13
REMARK    6  A    between atoms: C_16  and  C_17
REMARK    7  A    between atoms: C_17  and  O_18
REMARK    8  A    between atoms: O_18  and  C_19
REMARK                            x       y       z     vdW  Elec       q    Type
REMARK                         _______ _______ _______ _____ _____    ______ ____
ROOT
ATOM      1  CA  UNL     1       2.588   5.180  -9.258  0.00  0.00    +0.201 C 
ATOM      2  C   UNL     1       2.860   4.494  -7.724  0.00  0.00    +0.157 C 
ATOM      3  N   UNL     1       1.964   5.640  -7.271  0.00  0.00    -0.242 N 
ATOM      4  CA  UNL     1       1.757   5.617  -5.860  0.00  0.00    +0.131 C 
ATOM      5  C   UNL     1       2.694   5.287  -4.969  0.00  0.00    +0.030 C 
ATOM      6  C   UNL     1       4.154   5.344  -5.298  0.00  0.00    +0.086 C 
ATOM      7  S   UNL     1       4.419   5.402  -7.102  0.00  0.00    -0.114 S 
ATOM      8  C   UNL     1       2.289   6.525  -8.376  0.00  0.00    +0.253 C 
ATOM      9  O   UNL     1       1.354   7.240  -8.884  0.00  0.00    -0.273 OA
ENDROOT
BRANCH   4  10
ATOM     10  C   UNL     1       0.467   6.167  -5.413  0.00  0.00    +0.401 C 
ATOM     11  OXT UNL     1      -0.641   5.335  -5.204  0.00  0.00    -0.239 OA
ATOM     12  O   UNL     1       0.273   7.387  -5.605  0.00  0.00    -0.239 OA
ENDBRANCH   4  10
BRANCH   1  14
ATOM     13  C   UNL     1       4.348   5.771 -10.959  0.00  0.00    +0.289 C 
ATOM     14  N   UNL     1       4.127   5.502  -9.594  0.00  0.00    -0.190 NA
ATOM     15  O   UNL     1       3.810   6.888 -11.230  0.00  0.00    -0.266 OA
BRANCH  13  17
ATOM     16  N   UNL     1       4.738   4.816 -13.056  0.00  0.00    -0.075 NA
ATOM     17  C   UNL     1       5.225   5.061 -11.870  0.00  0.00    +0.208 C 
BRANCH  17  18
ATOM     18  C   UNL     1       6.684   5.260 -11.824  0.00  0.00    +0.171 A 
ATOM     19  O   UNL     1       7.534   4.935 -12.760  0.00  0.00    -0.449 OA
ATOM     20  C   UNL     1       8.638   5.630 -12.698  0.00  0.00    +0.180 A 
ATOM     21  C   UNL     1       8.533   6.514 -11.658  0.00  0.00    +0.044 A 
ATOM     22  C   UNL     1       7.298   6.261 -11.080  0.00  0.00    +0.043 A 
ENDBRANCH  17  18
BRANCH  16  24
ATOM     23  C   UNL     1       2.863   5.353 -14.027  0.00  0.00    +0.288 C 
ATOM     24  O   UNL     1       3.510   5.334 -13.434  0.00  0.00    -0.373 OA
ENDBRANCH  16  24
ENDBRANCH  13  17
ENDBRANCH   1  14
BRANCH   5  25
ATOM     25  C   UNL     1       2.351   5.609  -3.544  0.00  0.00    +0.235 C 
BRANCH  25  26
ATOM     26  O   UNL     1       3.215   4.953  -2.652  0.00  0.00    -0.428 OA
BRANCH  26  27
ATOM     27  C   UNL     1       2.946   5.144  -1.294  0.00  0.00    +0.441 C 
ATOM     28  O   UNL     1       2.112   4.353  -0.757  0.00  0.00    -0.223 OA
ATOM     29  N   UNL     1       4.054   5.513  -0.466  0.00  0.00    -0.048 NA
ENDBRANCH  26  27
ENDBRANCH  25  26
ENDBRANCH   5  25
TORSDOF 8
ENDMDL
MODEL 3
REMARK VINA RESULT:      -7.5      3.211      5.569
REMARK  Name = 
REMARK  8 active torsions:
REMARK  status: ('A' for Active; 'I' for Inactive)
REMARK    1  A    between atoms: O_2  and  N_3
REMARK    2  A    between atoms: C_4  and  C_5
REMARK    3  A    between atoms: C_4  and  C_25
REMARK    4  A    between atoms: N_7  and  CA_8
REMARK    5  A    between atoms: CA_12  and  C_13
REMARK    6  A    between atoms: C_16  and  C_17
REMARK    7  A    between atoms: C_17  and  O_18
REMARK    8  A    between atoms: O_18  and  C_19
REMARK                            x       y       z     vdW  Elec       q    Type
REMARK                         _______ _______ _______ _____ _____    ______ ____
ROOT
ATOM      1  CA  UNL     1       2.565   5.035  -4.955  0.00  0.00    +0.201 C 
ATOM      2  C   UNL     1       1.705   4.365  -6.262  0.00  0.00    +0.157 C 
ATOM      3  N   UNL     1       2.501   5.392  -7.057  0.00  0.00    -0.242 N 
ATOM      4  CA  UNL     1       2.199   5.325  -8.449  0.00  0.00    +0.131 C 
ATOM      5  C   UNL     1       0.981   5.095  -8.943  0.00  0.00    +0.030 C 
ATOM      6  C   UNL     1      -0.258   5.326  -8.134  0.00  0.00    +0.086 C 
ATOM      7  S   UNL     1       0.131   5.439  -6.355  0.00  0.00    -0.114 S 
ATOM      8  C   UNL     1       2.677   6.325  -5.957  0.00  0.00    +0.253 C 
ATOM      9  O   UNL     1       3.799   6.932  -5.842  0.00  0.00    -0.273 OA
ENDROOT
BRANCH   4  10
ATOM     10  C   UNL     1       3.302   5.714  -9.343  0.00  0.00    +0.401 C 
ATOM     11  OXT UNL     1       4.195   4.761  -9.848  0.00  0.00    -0.239 OA
ATOM     12  O   UNL     1       3.655   6.914  -9.320  0.00  0.00    -0.239 OA
ENDBRANCH   4  10
BRANCH   1  14
ATOM     13  C   UNL     1       1.588   5.880  -2.794  0.00  0.00    +0.289 C 
ATOM     14  N   UNL     1       1.283   5.540  -4.126  0.00  0.00    -0.190 NA
ATOM     15  O   UNL     1       2.287   6.939  -2.810  0.00  0.00    -0.266 OA
BRANCH  13  17
ATOM     16  N   UNL     1       1.849   4.586  -0.866  0.00  0.00    -0.075 NA
ATOM     17  C   UNL     1       1.031   5.305  -1.584  0.00  0.00    +0.208 C 
BRANCH  17  18
ATOM     18  C   UNL     1      -0.010   6.015  -0.820  0.00  0.00    +0.171 A 
ATOM     19  O   UNL     1       0.181   7.027  -0.017  0.00  0.00    -0.449 OA
ATOM     20  C   UNL     1      -0.892   7.753   0.139  0.00  0.00    +0.180 A 
ATOM     21  C   UNL     1      -1.890   7.218  -0.631  0.00  0.00    +0.044 A 
ATOM     22  C   UNL     1      -1.338   6.091  -1.223  0.00  0.00    +0.043 A 
ENDBRANCH  17  18
BRANCH  16  24
ATOM     23  C   UNL     1       4.012   4.327  -0.934  0.00  0.00    +0.288 C 
ATOM     24  O   UNL     1       3.193   4.507  -1.195  0.00  0.00    -0.373 OA
ENDBRANCH  16  24
ENDBRANCH  13  17
ENDBRANCH   1  14
BRANCH   5  25
ATOM     25  C   UNL     1       0.836   5.355 -10.414  0.00  0.00    +0.235 C 
BRANCH  25  26
ATOM     26  O   UNL     1      -0.311   6.118 -10.685  0.00  0.00    -0.428 OA
BRANCH  26  27
ATOM     27  C   UNL     1      -0.197   7.032 -11.736  0.00  0.00    +0.441 C 
ATOM     28  O   UNL     1      -0.620   8.209 -11.522  0.00  0.00    -0.223 OA
ATOM     29  N   UNL     1       0.988   6.948 -12.534  0.00  0.00    -0.048 NA
ENDBRANCH  26  27
ENDBRANCH  25  26
ENDBRANCH   5  25
TORSDOF 8
ENDMDL
MODEL 4
REMARK VINA RESULT:      -7.4      2.829      8.636
REMARK  Name = 
REMARK  8 active torsions:
REMARK  status: ('A' for Active; 'I' for Inactive)
REMARK    1  A    between atoms: O_2  and  N_3
REMARK    2  A    between atoms: C_4  and  C_5
REMARK    3  A    between atoms: C_4  and  C_25
REMARK    4  A    between atoms: N_7  and  CA_8
REMARK    5  A    between atoms: CA_12  and  C_13
REMARK    6  A    between atoms: C_16  and  C_17
REMARK    7  A    between atoms: C_17  and  O_18
REMARK    8  A    between atoms: O_18  and  C_19
REMARK                            x       y       z     vdW  Elec       q    Type
REMARK                         _______ _______ _______ _____ _____    ______ ____
ROOT
ATOM      1  CA  UNL     1       2.163   5.399  -6.950  0.00  0.00    +0.201 C 
ATOM      2  C   UNL     1       2.852   4.496  -5.683  0.00  0.00    +0.157 C 
ATOM      3  N   UNL     1       2.091   5.496  -4.821  0.00  0.00    -0.242 N 
ATOM      4  CA  UNL     1       2.274   5.235  -3.431  0.00  0.00    +0.131 C 
ATOM      5  C   UNL     1       3.423   4.826  -2.888  0.00  0.00    +0.030 C 
ATOM      6  C   UNL     1       4.738   5.026  -3.575  0.00  0.00    +0.086 C 
ATOM      7  S   UNL     1       4.505   5.388  -5.349  0.00  0.00    -0.114 S 
ATOM      8  C   UNL     1       2.090   6.565  -5.805  0.00  0.00    +0.253 C 
ATOM      9  O   UNL     1       1.041   7.292  -5.918  0.00  0.00    -0.273 OA
ENDROOT
BRANCH   4  10
ATOM     10  C   UNL     1       1.144   5.624  -2.572  0.00  0.00    +0.401 C 
ATOM     11  OXT UNL     1       0.165   4.695  -2.199  0.00  0.00    -0.239 OA
ATOM     12  O   UNL     1       0.867   6.842  -2.516  0.00  0.00    -0.239 OA
ENDBRANCH   4  10
BRANCH   1  14
ATOM     13  C   UNL     1       3.390   6.341  -8.937  0.00  0.00    +0.289 C 
ATOM     14  N   UNL     1       3.548   5.867  -7.621  0.00  0.00    -0.190 NA
ATOM     15  O   UNL     1       2.770   7.448  -8.884  0.00  0.00    -0.266 OA
BRANCH  13  17
ATOM     16  N   UNL     1       3.195   5.384 -11.060  0.00  0.00    -0.075 NA
ATOM     17  C   UNL     1       4.010   5.827 -10.143  0.00  0.00    +0.208 C 
BRANCH  17  18
ATOM     18  C   UNL     1       5.266   6.406 -10.653  0.00  0.00    +0.171 A 
ATOM     19  O   UNL     1       5.401   7.581 -11.207  0.00  0.00    -0.449 OA
ATOM     20  C   UNL     1       6.620   8.038 -11.120  0.00  0.00    +0.180 A 
ATOM     21  C   UNL     1       7.377   7.124 -10.436  0.00  0.00    +0.044 A 
ATOM     22  C   UNL     1       6.521   6.067 -10.162  0.00  0.00    +0.043 A 
ENDBRANCH  17  18
BRANCH  16  24
ATOM     23  C   UNL     1       1.027   5.457 -11.276  0.00  0.00    +0.288 C 
ATOM     24  O   UNL     1       1.824   5.534 -10.916  0.00  0.00    -0.373 OA
ENDBRANCH  16  24
ENDBRANCH  13  17
ENDBRANCH   1  14
BRANCH   5  25
ATOM     25  C   UNL     1       3.473   4.894  -1.389  0.00  0.00    +0.235 C 
BRANCH  25  26
ATOM     26  O   UNL     1       4.349   5.902  -0.955  0.00  0.00    -0.428 OA
BRANCH  26  27
ATOM     27  C   UNL     1       3.796   6.859  -0.099  0.00  0.00    +0.441 C 
ATOM     28  O   UNL     1       4.156   6.818   1.117  0.00  0.00    -0.223 OA
ATOM     29  N   UNL     1       3.618   8.174  -0.636  0.00  0.00    -0.048 NA
ENDBRANCH  26  27
ENDBRANCH  25  26
ENDBRANCH   5  25
TORSDOF 8
ENDMDL
MODEL 5
REMARK VINA RESULT:      -7.4      2.507      8.686
REMARK  Name = 
REMARK  8 active torsions:
REMARK  status: ('A' for Active; 'I' for Inactive)
REMARK    1  A    between atoms: O_2  and  N_3
REMARK    2  A    between atoms: C_4  and  C_5
REMARK    3  A    between atoms: C_4  and  C_25
REMARK    4  A    between atoms: N_7  and  CA_8
REMARK    5  A    between atoms: CA_12  and  C_13
REMARK    6  A    between atoms: C_16  and  C_17
REMARK    7  A    between atoms: C_17  and  O_18
REMARK    8  A    between atoms: O_18  and  C_19
REMARK                            x       y       z     vdW  Elec       q    Type
REMARK                         _______ _______ _______ _____ _____    ______ ____
ROOT
ATOM      1  CA  UNL     1       3.479   6.591  -7.510  0.00  0.00    +0.201 C 
ATOM      2  C   UNL     1       2.074   7.223  -6.787  0.00  0.00    +0.157 C 
ATOM      3  N   UNL     1       2.529   6.364  -5.614  0.00  0.00    -0.242 N 
ATOM      4  CA  UNL     1       1.640   6.478  -4.505  0.00  0.00    +0.131 C 
ATOM      5  C   UNL     1       0.314   6.575  -4.613  0.00  0.00    +0.030 C 
ATOM      6  C   UNL     1      -0.415   6.130  -5.843  0.00  0.00    +0.086 C 
ATOM      7  S   UNL     1       0.726   5.956  -7.256  0.00  0.00    -0.114 S 
ATOM      8  C   UNL     1       3.256   5.394  -6.417  0.00  0.00    +0.253 C 
ATOM      9  O   UNL     1       4.365   4.935  -5.967  0.00  0.00    -0.273 OA
ENDROOT
BRANCH   4  10
ATOM     10  C   UNL     1       2.268   6.296  -3.186  0.00  0.00    +0.401 C 
ATOM     11  OXT UNL     1       2.891   7.364  -2.528  0.00  0.00    -0.239 OA
ATOM     12  O   UNL     1       2.576   5.129  -2.859  0.00  0.00    -0.239 OA
ENDBRANCH   4  10
BRANCH   1  14
ATOM     13  C   UNL     1       3.647   5.273  -9.650  0.00  0.00    +0.289 C 
ATOM     14  N   UNL     1       2.746   5.869  -8.746  0.00  0.00    -0.190 NA
ATOM     15  O   UNL     1       4.175   4.273  -9.074  0.00  0.00    -0.266 OA
BRANCH  13  17
ATOM     16  N   UNL     1       2.722   5.448 -11.788  0.00  0.00    -0.075 NA
ATOM     17  C   UNL     1       3.800   5.559 -11.063  0.00  0.00    +0.208 C 
BRANCH  17  18
ATOM     18  C   UNL     1       4.763   6.574 -11.528  0.00  0.00    +0.171 A 
ATOM     19  O   UNL     1       5.173   7.612 -10.850  0.00  0.00    -0.449 OA
ATOM     20  C   UNL     1       6.331   8.052 -11.260  0.00  0.00    +0.180 A 
ATOM     21  C   UNL     1       6.763   7.246 -12.279  0.00  0.00    +0.044 A 
ATOM     22  C   UNL     1       5.750   6.318 -12.472  0.00  0.00    +0.043 A 
ENDBRANCH  17  18
BRANCH  16  24
ATOM     23  C   UNL     1       0.642   5.022 -11.296  0.00  0.00    +0.288 C 
ATOM     24  O   UNL     1       1.494   5.203 -11.192  0.00  0.00    -0.373 OA
ENDBRANCH  16  24
ENDBRANCH  13  17
ENDBRANCH   1  14
BRANCH   5  25
ATOM     25  C   UNL     1      -0.439   6.392  -3.327  0.00  0.00    +0.235 C 
BRANCH  25  26
ATOM     26  O   UNL     1      -1.821   6.548  -3.521  0.00  0.00    -0.428 OA
BRANCH  26  27
ATOM     27  C   UNL     1      -2.639   5.710  -2.758  0.00  0.00    +0.441 C 
ATOM     28  O   UNL     1      -3.438   4.955  -3.391  0.00  0.00    -0.223 OA
ATOM     29  N   UNL     1      -2.050   5.129  -1.590  0.00  0.00    -0.048 NA
ENDBRANCH  26  27
ENDBRANCH  25  26
ENDBRANCH   5  25
TORSDOF 8
ENDMDL
MODEL 6
REMARK VINA RESULT:      -7.2      1.451      2.989
REMARK  Name = 
REMARK  8 active torsions:
REMARK  status: ('A' for Active; 'I' for Inactive)
REMARK    1  A    between atoms: O_2  and  N_3
REMARK    2  A    between atoms: C_4  and  C_5
REMARK    3  A    between atoms: C_4  and  C_25
REMARK    4  A    between atoms: N_7  and  CA_8
REMARK    5  A    between atoms: CA_12  and  C_13
REMARK    6  A    between atoms: C_16  and  C_17
REMARK    7  A    between atoms: C_17  and  O_18
REMARK    8  A    between atoms: O_18  and  C_19
REMARK                            x       y       z     vdW  Elec       q    Type
REMARK                         _______ _______ _______ _____ _____    ______ ____
ROOT
ATOM      1  CA  UNL     1       1.321   6.222  -8.243  0.00  0.00    +0.201 C 
ATOM      2  C   UNL     1       2.745   6.957  -8.818  0.00  0.00    +0.157 C 
ATOM      3  N   UNL     1       2.476   6.074 -10.030  0.00  0.00    -0.242 N 
ATOM      4  CA  UNL     1       3.465   6.257 -11.042  0.00  0.00    +0.131 C 
ATOM      5  C   UNL     1       4.763   6.448 -10.797  0.00  0.00    +0.030 C 
ATOM      6  C   UNL     1       5.391   6.050  -9.497  0.00  0.00    +0.086 C 
ATOM      7  S   UNL     1       4.125   5.787  -8.209  0.00  0.00    -0.114 S 
ATOM      8  C   UNL     1       1.742   5.051  -9.306  0.00  0.00    +0.253 C 
ATOM      9  O   UNL     1       0.721   4.516  -9.867  0.00  0.00    -0.273 OA
ENDROOT
BRANCH   4  10
ATOM     10  C   UNL     1       2.993   6.039 -12.418  0.00  0.00    +0.401 C 
ATOM     11  OXT UNL     1       1.881   6.727 -12.920  0.00  0.00    -0.239 OA
ATOM     12  O   UNL     1       3.340   4.975 -12.976  0.00  0.00    -0.239 OA
ENDBRANCH   4  10
BRANCH   1  14
ATOM     13  C   UNL     1       1.011   5.090  -6.016  0.00  0.00    +0.289 C 
ATOM     14  N   UNL     1       1.973   5.547  -6.937  0.00  0.00    -0.190 NA
ATOM     15  O   UNL     1       0.423   4.089  -6.528  0.00  0.00    -0.266 OA
BRANCH  13  17
ATOM     16  N   UNL     1       1.903   5.376  -3.876  0.00  0.00    -0.075 NA
ATOM     17  C   UNL     1       0.848   5.495  -4.633  0.00  0.00    +0.208 C 
BRANCH  17  18
ATOM     18  C   UNL     1      -0.059   6.600  -4.271  0.00  0.00    +0.171 A 
ATOM     19  O   UNL     1      -0.472   7.547  -5.069  0.00  0.00    -0.449 OA
ATOM     20  C   UNL     1      -1.594   8.082  -4.672  0.00  0.00    +0.180 A 
ATOM     21  C   UNL     1      -1.997   7.443  -3.530  0.00  0.00    +0.044 A 
ATOM     22  C   UNL     1      -1.004   6.514  -3.255  0.00  0.00    +0.043 A 
ENDBRANCH  17  18
BRANCH  16  24
ATOM     23  C   UNL     1       3.947   4.739  -4.283  0.00  0.00    +0.288 C 
ATOM     24  O   UNL     1       3.124   5.011  -4.421  0.00  0.00    -0.373 OA
ENDBRANCH  16  24
ENDBRANCH  13  17
ENDBRANCH   1  14
BRANCH   5  25
ATOM     25  C   UNL     1       5.656   6.327 -11.997  0.00  0.00    +0.235 C 
BRANCH  25  26
ATOM     26  O   UNL     1       7.007   6.481 -11.643  0.00  0.00    -0.428 OA
BRANCH  26  27
ATOM     27  C   UNL     1       7.872   5.483 -12.100  0.00  0.00    +0.441 C 
ATOM     28  O   UNL     1       7.414   4.681 -12.970  0.00  0.00    -0.223 OA
ATOM     29  N   UNL     1       9.243   5.854 -12.277  0.00  0.00    -0.048 NA
ENDBRANCH  26  27
ENDBRANCH  25  26
ENDBRANCH   5  25
TORSDOF 8
ENDMDL
MODEL 7
REMARK VINA RESULT:      -7.2      2.847      9.363
REMARK  Name = 
REMARK  8 active torsions:
REMARK  status: ('A' for Active; 'I' for Inactive)
REMARK    1  A    between atoms: O_2  and  N_3
REMARK    2  A    between atoms: C_4  and  C_5
REMARK    3  A    between atoms: C_4  and  C_25
REMARK    4  A    between atoms: N_7  and  CA_8
REMARK    5  A    between atoms: CA_12  and  C_13
REMARK    6  A    between atoms: C_16  and  C_17
REMARK    7  A    between atoms: C_17  and  O_18
REMARK    8  A    between atoms: O_18  and  C_19
REMARK                            x       y       z     vdW  Elec       q    Type
REMARK                         _______ _______ _______ _____ _____    ______ ____
ROOT
ATOM      1  CA  UNL     1       3.976   6.224  -6.095  0.00  0.00    +0.201 C 
ATOM      2  C   UNL     1       2.675   6.786  -5.152  0.00  0.00    +0.157 C 
ATOM      3  N   UNL     1       3.323   5.908  -4.089  0.00  0.00    -0.242 N 
ATOM      4  CA  UNL     1       2.605   5.958  -2.858  0.00  0.00    +0.131 C 
ATOM      5  C   UNL     1       1.275   6.014  -2.767  0.00  0.00    +0.030 C 
ATOM      6  C   UNL     1       0.385   5.583  -3.892  0.00  0.00    +0.086 C 
ATOM      7  S   UNL     1       1.310   5.490  -5.462  0.00  0.00    -0.114 S 
ATOM      8  C   UNL     1       3.951   4.988  -5.022  0.00  0.00    +0.253 C 
ATOM      9  O   UNL     1       5.127   4.553  -4.756  0.00  0.00    -0.273 OA
ENDROOT
BRANCH   4  10
ATOM     10  C   UNL     1       3.425   5.758  -1.652  0.00  0.00    +0.401 C 
ATOM     11  OXT UNL     1       3.985   6.845  -0.970  0.00  0.00    -0.239 OA
ATOM     12  O   UNL     1       3.925   4.624  -1.488  0.00  0.00    -0.239 OA
ENDBRANCH   4  10
BRANCH   1  14
ATOM     13  C   UNL     1       3.712   5.518  -8.497  0.00  0.00    +0.289 C 
ATOM     14  N   UNL     1       3.090   5.515  -7.234  0.00  0.00    -0.190 NA
ATOM     15  O   UNL     1       4.704   4.728  -8.448  0.00  0.00    -0.266 OA
BRANCH  13  17
ATOM     16  N   UNL     1       4.104   6.681 -10.485  0.00  0.00    -0.075 NA
ATOM     17  C   UNL     1       3.214   6.104  -9.727  0.00  0.00    +0.208 C 
BRANCH  17  18
ATOM     18  C   UNL     1       2.080   5.497 -10.448  0.00  0.00    +0.171 A 
ATOM     19  O   UNL     1       1.352   4.497 -10.032  0.00  0.00    -0.449 OA
ATOM     20  C   UNL     1       0.169   4.474 -10.583  0.00  0.00    +0.180 A 
ATOM     21  C   UNL     1       0.065   5.550 -11.424  0.00  0.00    +0.044 A 
ATOM     22  C   UNL     1       1.294   6.190 -11.361  0.00  0.00    +0.043 A 
ENDBRANCH  17  18
BRANCH  16  24
ATOM     23  C   UNL     1       6.280   6.791 -10.401  0.00  0.00    +0.288 C 
ATOM     24  O   UNL     1       5.453   6.605 -10.172  0.00  0.00    -0.373 OA
ENDBRANCH  16  24
ENDBRANCH  13  17
ENDBRANCH   1  14
BRANCH   5  25
ATOM     25  C   UNL     1       0.725   5.768  -1.392  0.00  0.00    +0.235 C 
BRANCH  25  26
ATOM     26  O   UNL     1      -0.428   4.967  -1.442  0.00  0.00    -0.428 OA
BRANCH  26  27
ATOM     27  C   UNL     1      -1.641   5.638  -1.263  0.00  0.00    +0.441 C 
ATOM     28  O   UNL     1      -2.680   5.079  -1.727  0.00  0.00    -0.223 OA
ATOM     29  N   UNL     1      -1.821   6.315  -0.014  0.00  0.00    -0.048 NA
ENDBRANCH  26  27
ENDBRANCH  25  26
ENDBRANCH   5  25
TORSDOF 8
ENDMDL
MODEL 8
REMARK VINA RESULT:      -7.0      2.618      8.537
REMARK  Name = 
REMARK  8 active torsions:
REMARK  status: ('A' for Active; 'I' for Inactive)
REMARK    1  A    between atoms: O_2  and  N_3
REMARK    2  A    between atoms: C_4  and  C_5
REMARK    3  A    between atoms: C_4  and  C_25
REMARK    4  A    between atoms: N_7  and  CA_8
REMARK    5  A    between atoms: CA_12  and  C_13
REMARK    6  A    between atoms: C_16  and  C_17
REMARK    7  A    between atoms: C_17  and  O_18
REMARK    8  A    between atoms: O_18  and  C_19
REMARK                            x       y       z     vdW  Elec       q    Type
REMARK                         _______ _______ _______ _____ _____    ______ ____
ROOT
ATOM      1  CA  UNL     1       4.175   6.345  -9.273  0.00  0.00    +0.201 C 
ATOM      2  C   UNL     1       2.635   6.864  -8.766  0.00  0.00    +0.157 C 
ATOM      3  N   UNL     1       2.617   5.502  -8.084  0.00  0.00    -0.242 N 
ATOM      4  CA  UNL     1       1.405   5.293  -7.362  0.00  0.00    +0.131 C 
ATOM      5  C   UNL     1       0.204   5.697  -7.779  0.00  0.00    +0.030 C 
ATOM      6  C   UNL     1      -0.073   6.002  -9.220  0.00  0.00    +0.086 C 
ATOM      7  S   UNL     1       1.478   6.242 -10.150  0.00  0.00    -0.114 S 
ATOM      8  C   UNL     1       3.534   4.862  -9.012  0.00  0.00    +0.253 C 
ATOM      9  O   UNL     1       4.396   4.035  -8.549  0.00  0.00    -0.273 OA
ENDROOT
BRANCH   4  10
ATOM     10  C   UNL     1       1.528   4.423  -6.182  0.00  0.00    +0.401 C 
ATOM     11  OXT UNL     1       1.666   4.962  -4.896  0.00  0.00    -0.239 OA
ATOM     12  O   UNL     1       1.897   3.245  -6.380  0.00  0.00    -0.239 OA
ENDBRANCH   4  10
BRANCH   1  14
ATOM     13  C   UNL     1       5.027   6.156 -11.635  0.00  0.00    +0.289 C 
ATOM     14  N   UNL     1       3.884   6.410 -10.853  0.00  0.00    -0.190 NA
ATOM     15  O   UNL     1       5.327   4.931 -11.503  0.00  0.00    -0.266 OA
BRANCH  13  17
ATOM     16  N   UNL     1       6.583   7.816 -12.168  0.00  0.00    -0.075 NA
ATOM     17  C   UNL     1       5.641   7.032 -12.615  0.00  0.00    +0.208 C 
BRANCH  17  18
ATOM     18  C   UNL     1       5.798   6.605 -14.017  0.00  0.00    +0.171 A 
ATOM     19  O   UNL     1       4.945   6.816 -14.983  0.00  0.00    -0.449 OA
ATOM     20  C   UNL     1       5.506   6.786 -16.161  0.00  0.00    +0.180 A 
ATOM     21  C   UNL     1       6.847   6.562 -15.995  0.00  0.00    +0.044 A 
ATOM     22  C   UNL     1       7.032   6.418 -14.627  0.00  0.00    +0.043 A 
ENDBRANCH  17  18
BRANCH  16  24
ATOM     23  C   UNL     1       7.655   7.397 -10.317  0.00  0.00    +0.288 C 
ATOM     24  O   UNL     1       7.038   7.698 -10.863  0.00  0.00    -0.373 OA
ENDBRANCH  16  24
ENDBRANCH  13  17
ENDBRANCH   1  14
BRANCH   5  25
ATOM     25  C   UNL     1      -0.956   5.124  -7.018  0.00  0.00    +0.235 C 
BRANCH  25  26
ATOM     26  O   UNL     1      -1.822   6.135  -6.573  0.00  0.00    -0.428 OA
BRANCH  26  27
ATOM     27  C   UNL     1      -1.764   6.426  -5.207  0.00  0.00    +0.441 C 
ATOM     28  O   UNL     1      -1.558   5.452  -4.420  0.00  0.00    -0.223 OA
ATOM     29  N   UNL     1      -1.121   7.651  -4.839  0.00  0.00    -0.048 NA
ENDBRANCH  26  27
ENDBRANCH  25  26
ENDBRANCH   5  25
TORSDOF 8
ENDMDL
MODEL 9
REMARK VINA RESULT:      -7.0      2.060      4.354
REMARK  Name = 
REMARK  8 active torsions:
REMARK  status: ('A' for Active; 'I' for Inactive)
REMARK    1  A    between atoms: O_2  and  N_3
REMARK    2  A    between atoms: C_4  and  C_5
REMARK    3  A    between atoms: C_4  and  C_25
REMARK    4  A    between atoms: N_7  and  CA_8
REMARK    5  A    between atoms: CA_12  and  C_13
REMARK    6  A    between atoms: C_16  and  C_17
REMARK    7  A    between atoms: C_17  and  O_18
REMARK    8  A    between atoms: O_18  and  C_19
REMARK                            x       y       z     vdW  Elec       q    Type
REMARK                         _______ _______ _______ _____ _____    ______ ____
ROOT
ATOM      1  CA  UNL     1       2.457   4.883  -8.402  0.00  0.00    +0.201 C 
ATOM      2  C   UNL     1       1.691   4.664  -9.906  0.00  0.00    +0.157 C 
ATOM      3  N   UNL     1       2.883   5.470 -10.408  0.00  0.00    -0.242 N 
ATOM      4  CA  UNL     1       2.832   5.654 -11.821  0.00  0.00    +0.131 C 
ATOM      5  C   UNL     1       1.711   5.873 -12.510  0.00  0.00    +0.030 C 
ATOM      6  C   UNL     1       0.468   6.392 -11.855  0.00  0.00    +0.086 C 
ATOM      7  S   UNL     1       0.543   6.181 -10.044  0.00  0.00    -0.114 S 
ATOM      8  C   UNL     1       3.119   6.174  -9.159  0.00  0.00    +0.253 C 
ATOM      9  O   UNL     1       4.330   6.382  -8.793  0.00  0.00    -0.273 OA
ENDROOT
BRANCH   4  10
ATOM     10  C   UNL     1       4.144   5.774 -12.478  0.00  0.00    +0.401 C 
ATOM     11  OXT UNL     1       4.704   4.697 -13.177  0.00  0.00    -0.239 OA
ATOM     12  O   UNL     1       4.900   6.685 -12.076  0.00  0.00    -0.239 OA
ENDBRANCH   4  10
BRANCH   1  14
ATOM     13  C   UNL     1       1.542   6.044  -6.363  0.00  0.00    +0.289 C 
ATOM     14  N   UNL     1       1.249   5.670  -7.689  0.00  0.00    -0.190 NA
ATOM     15  O   UNL     1       2.426   6.954  -6.398  0.00  0.00    -0.266 OA
BRANCH  13  17
ATOM     16  N   UNL     1       1.546   5.146  -4.206  0.00  0.00    -0.075 NA
ATOM     17  C   UNL     1       0.825   5.667  -5.159  0.00  0.00    +0.208 C 
BRANCH  17  18
ATOM     18  C   UNL     1      -0.346   6.438  -4.705  0.00  0.00    +0.171 A 
ATOM     19  O   UNL     1      -0.526   7.722  -4.856  0.00  0.00    -0.449 OA
ATOM     20  C   UNL     1      -1.786   8.059  -4.821  0.00  0.00    +0.180 A 
ATOM     21  C   UNL     1      -2.532   6.922  -4.658  0.00  0.00    +0.044 A 
ATOM     22  C   UNL     1      -1.614   5.888  -4.555  0.00  0.00    +0.043 A 
ENDBRANCH  17  18
BRANCH  16  24
ATOM     23  C   UNL     1       3.687   4.797  -3.989  0.00  0.00    +0.288 C 
ATOM     24  O   UNL     1       2.927   5.094  -4.315  0.00  0.00    -0.373 OA
ENDBRANCH  16  24
ENDBRANCH  13  17
ENDBRANCH   1  14
BRANCH   5  25
ATOM     25  C   UNL     1       1.918   6.325 -13.926  0.00  0.00    +0.235 C 
BRANCH  25  26
ATOM     26  O   UNL     1       0.786   6.062 -14.715  0.00  0.00    -0.428 OA
BRANCH  26  27
ATOM     27  C   UNL     1       0.338   7.123 -15.507  0.00  0.00    +0.441 C 
ATOM     28  O   UNL     1       0.492   8.293 -15.041  0.00  0.00    -0.223 OA
ATOM     29  N   UNL     1       0.541   6.999 -16.919  0.00  0.00    -0.048 NA
ENDBRANCH  26  27
ENDBRANCH  25  26
ENDBRANCH   5  25
TORSDOF 8
ENDMDL
