MODEL 1
REMARK VINA RESULT:      -7.6      0.000      0.000
REMARK  Name = 
REMARK  3 active torsions:
REMARK  status: ('A' for Active; 'I' for Inactive)
REMARK    1  A    between atoms: C_2  and  C_3
REMARK    2  A    between atoms: C_2  and  C_6
REMARK    3  A    between atoms: C_9  and  C_10
REMARK                            x       y       z     vdW  Elec       q    Type
REMARK                         _______ _______ _______ _____ _____    ______ ____
ROOT
ATOM      1  C   UNL     1       5.771   6.361 -10.845  0.00  0.00    -0.010 A 
ATOM      2  C   UNL     1       4.522   6.829 -10.640  0.00  0.00    +0.026 A 
ATOM      3  C   UNL     1       3.971   6.612  -9.381  0.00  0.00    +0.140 A 
ATOM      4  F   UNL     1       3.073   7.491  -8.845  0.00  0.00    -0.204 F 
ATOM      5  C   UNL     1       4.609   5.727  -8.520  0.00  0.00    +0.027 A 
ATOM      6  C   UNL     1       5.947   5.411  -8.734  0.00  0.00    +0.002 A 
ATOM      7  C   UNL     1       6.596   5.817  -9.898  0.00  0.00    -0.004 A 
ENDROOT
BRANCH   5   8
ATOM      8  C   UNL     1       3.833   5.202  -7.412  0.00  0.00    +0.002 A 
ATOM      9  C   UNL     1       3.903   5.881  -6.221  0.00  0.00    +0.000 A 
ATOM     10  C   UNL     1       3.147   5.449  -5.169  0.00  0.00    +0.000 A 
ATOM     11  C   UNL     1       2.228   4.431  -5.394  0.00  0.00    +0.000 A 
ATOM     12  C   UNL     1       2.008   3.901  -6.654  0.00  0.00    +0.000 A 
ATOM     13  C   UNL     1       2.701   4.458  -7.694  0.00  0.00    +0.000 A 
ENDBRANCH   5   8
BRANCH   1  15
ATOM     14  C   UNL     1       8.011   6.741 -11.547  0.00  0.00    +0.017 C 
ATOM     15  C   UNL     1       6.495   6.739 -12.257  0.00  0.00    +0.126 C 
BRANCH  15  16
ATOM     16  C   UNL     1       6.543   5.173 -12.732  0.00  0.00    +0.368 C 
ATOM     17  O   UNL     1       7.722   4.606 -13.020  0.00  0.00    -0.245 OA
ATOM     18  O   UNL     1       5.524   4.900 -13.431  0.00  0.00    -0.245 OA
ENDBRANCH  15  16
ENDBRANCH   1  15
TORSDOF 3
ENDMDL
MODEL 2
REMARK VINA RESULT:      -7.4      1.135      1.946
REMARK  Name = 
REMARK  3 active torsions:
REMARK  status: ('A' for Active; 'I' for Inactive)
REMARK    1  A    between atoms: C_2  and  C_3
REMARK    2  A    between atoms: C_2  and  C_6
REMARK    3  A    between atoms: C_9  and  C_10
REMARK                            x       y       z     vdW  Elec       q    Type
REMARK                         _______ _______ _______ _____ _____    ______ ____
ROOT
ATOM      1  C   UNL     1       5.586   6.400 -10.805  0.00  0.00    -0.010 A 
ATOM      2  C   UNL     1       6.239   5.832  -9.769  0.00  0.00    +0.026 A 
ATOM      3  C   UNL     1       5.458   5.369  -8.715  0.00  0.00    +0.140 A 
ATOM      4  F   UNL     1       5.853   4.297  -7.966  0.00  0.00    -0.204 F 
ATOM      5  C   UNL     1       4.119   5.738  -8.667  0.00  0.00    +0.027 A 
ATOM      6  C   UNL     1       3.492   6.184  -9.826  0.00  0.00    +0.002 A 
ATOM      7  C   UNL     1       4.229   6.441 -10.979  0.00  0.00    -0.004 A 
ENDROOT
BRANCH   5   8
ATOM      8  C   UNL     1       3.438   5.606  -7.393  0.00  0.00    +0.002 A 
ATOM      9  C   UNL     1       2.642   4.500  -7.221  0.00  0.00    +0.000 A 
ATOM     10  C   UNL     1       2.025   4.311  -6.016  0.00  0.00    +0.000 A 
ATOM     11  C   UNL     1       2.350   5.167  -4.971  0.00  0.00    +0.000 A 
ATOM     12  C   UNL     1       3.321   6.146  -5.092  0.00  0.00    +0.000 A 
ATOM     13  C   UNL     1       3.998   6.208  -6.279  0.00  0.00    +0.000 A 
ENDBRANCH   5   8
BRANCH   1  15
ATOM     14  C   UNL     1       7.886   6.827 -11.232  0.00  0.00    +0.017 C 
ATOM     15  C   UNL     1       6.464   6.810 -12.117  0.00  0.00    +0.126 C 
BRANCH  15  16
ATOM     16  C   UNL     1       6.596   5.253 -12.602  0.00  0.00    +0.368 C 
ATOM     17  O   UNL     1       7.793   4.652 -12.575  0.00  0.00    -0.245 OA
ATOM     18  O   UNL     1       5.798   5.027 -13.558  0.00  0.00    -0.245 OA
ENDBRANCH  15  16
ENDBRANCH   1  15
TORSDOF 3
ENDMDL
MODEL 3
REMARK VINA RESULT:      -7.3      4.495      6.472
REMARK  Name = 
REMARK  3 active torsions:
REMARK  status: ('A' for Active; 'I' for Inactive)
REMARK    1  A    between atoms: C_2  and  C_3
REMARK    2  A    between atoms: C_2  and  C_6
REMARK    3  A    between atoms: C_9  and  C_10
REMARK                            x       y       z     vdW  Elec       q    Type
REMARK                         _______ _______ _______ _____ _____    ______ ____
ROOT
ATOM      1  C   UNL     1       0.766   5.506  -7.623  0.00  0.00    -0.010 A 
ATOM      2  C   UNL     1       1.357   5.444  -6.412  0.00  0.00    +0.026 A 
ATOM      3  C   UNL     1       0.515   5.377  -5.306  0.00  0.00    +0.140 A 
ATOM      4  F   UNL     1       0.897   4.721  -4.171  0.00  0.00    -0.204 F 
ATOM      5  C   UNL     1      -0.839   5.633  -5.486  0.00  0.00    +0.027 A 
ATOM      6  C   UNL     1      -1.389   5.536  -6.759  0.00  0.00    +0.002 A 
ATOM      7  C   UNL     1      -0.573   5.373  -7.876  0.00  0.00    -0.004 A 
ENDROOT
BRANCH   5   8
ATOM      8  C   UNL     1      -1.615   5.963  -4.305  0.00  0.00    +0.002 A 
ATOM      9  C   UNL     1      -1.420   7.207  -3.756  0.00  0.00    +0.000 A 
ATOM     10  C   UNL     1      -2.169   7.576  -2.675  0.00  0.00    +0.000 A 
ATOM     11  C   UNL     1      -3.198   6.734  -2.270  0.00  0.00    +0.000 A 
ATOM     12  C   UNL     1      -3.529   5.585  -2.967  0.00  0.00    +0.000 A 
ATOM     13  C   UNL     1      -2.830   5.329  -4.115  0.00  0.00    +0.000 A 
ENDBRANCH   5   8
BRANCH   1  15
ATOM     14  C   UNL     1       0.639   6.307  -9.859  0.00  0.00    +0.017 C 
ATOM     15  C   UNL     1       1.728   5.430  -8.938  0.00  0.00    +0.126 C 
BRANCH  15  16
ATOM     16  C   UNL     1       2.607   6.724  -8.455  0.00  0.00    +0.368 C 
ATOM     17  O   UNL     1       2.033   7.934  -8.413  0.00  0.00    -0.245 OA
ATOM     18  O   UNL     1       3.804   6.607  -8.849  0.00  0.00    -0.245 OA
ENDBRANCH  15  16
ENDBRANCH   1  15
TORSDOF 3
ENDMDL
MODEL 4
REMARK VINA RESULT:      -7.2      4.410      6.243
REMARK  Name = 
REMARK  3 active torsions:
REMARK  status: ('A' for Active; 'I' for Inactive)
REMARK    1  A    between atoms: C_2  and  C_3
REMARK    2  A    between atoms: C_2  and  C_6
REMARK    3  A    between atoms: C_9  and  C_10
REMARK                            x       y       z     vdW  Elec       q    Type
REMARK                         _______ _______ _______ _____ _____    ______ ____
ROOT
ATOM      1  C   UNL     1       0.746   5.897  -7.614  0.00  0.00    -0.010 A 
ATOM      2  C   UNL     1      -0.457   5.285  -7.645  0.00  0.00    +0.026 A 
ATOM      3  C   UNL     1      -1.305   5.514  -6.566  0.00  0.00    +0.140 A 
ATOM      4  F   UNL     1      -2.661   5.505  -6.724  0.00  0.00    -0.204 F 
ATOM      5  C   UNL     1      -0.785   6.126  -5.431  0.00  0.00    +0.027 A 
ATOM      6  C   UNL     1       0.395   6.854  -5.528  0.00  0.00    +0.002 A 
ATOM      7  C   UNL     1       1.157   6.823  -6.694  0.00  0.00    -0.004 A 
ENDROOT
BRANCH   5   8
ATOM      8  C   UNL     1      -1.538   5.986  -4.198  0.00  0.00    +0.002 A 
ATOM      9  C   UNL     1      -0.856   5.527  -3.098  0.00  0.00    +0.000 A 
ATOM     10  C   UNL     1      -1.516   5.432  -1.905  0.00  0.00    +0.000 A 
ATOM     11  C   UNL     1      -2.806   5.943  -1.825  0.00  0.00    +0.000 A 
ATOM     12  C   UNL     1      -3.405   6.605  -2.883  0.00  0.00    +0.000 A 
ATOM     13  C   UNL     1      -2.652   6.785  -4.011  0.00  0.00    +0.000 A 
ENDBRANCH   5   8
BRANCH   1  15
ATOM     14  C   UNL     1       2.509   7.181  -8.561  0.00  0.00    +0.017 C 
ATOM     15  C   UNL     1       1.693   5.768  -8.936  0.00  0.00    +0.126 C 
BRANCH  15  16
ATOM     16  C   UNL     1       2.742   4.770  -8.173  0.00  0.00    +0.368 C 
ATOM     17  O   UNL     1       3.996   5.181  -7.943  0.00  0.00    -0.245 OA
ATOM     18  O   UNL     1       2.523   3.570  -8.511  0.00  0.00    -0.245 OA
ENDBRANCH  15  16
ENDBRANCH   1  15
TORSDOF 3
ENDMDL
MODEL 5
REMARK VINA RESULT:      -7.1      3.053      6.328
REMARK  Name = 
REMARK  3 active torsions:
REMARK  status: ('A' for Active; 'I' for Inactive)
REMARK    1  A    between atoms: C_2  and  C_3
REMARK    2  A    between atoms: C_2  and  C_6
REMARK    3  A    between atoms: C_9  and  C_10
REMARK                            x       y       z     vdW  Elec       q    Type
REMARK                         _______ _______ _______ _____ _____    ______ ____
ROOT
ATOM      1  C   UNL     1       3.870   5.955  -7.969  0.00  0.00    -0.010 A 
ATOM      2  C   UNL     1       5.036   5.278  -7.930  0.00  0.00    +0.026 A 
ATOM      3  C   UNL     1       5.882   5.424  -9.026  0.00  0.00    +0.140 A 
ATOM      4  F   UNL     1       7.238   5.343  -8.883  0.00  0.00    -0.204 F 
ATOM      5  C   UNL     1       5.383   6.028 -10.175  0.00  0.00    +0.027 A 
ATOM      6  C   UNL     1       4.247   6.825 -10.088  0.00  0.00    +0.002 A 
ATOM      7  C   UNL     1       3.500   6.874  -8.913  0.00  0.00    -0.004 A 
ENDROOT
BRANCH   5   8
ATOM      8  C   UNL     1       6.111   5.807 -11.410  0.00  0.00    +0.002 A 
ATOM      9  C   UNL     1       5.368   5.537 -12.534  0.00  0.00    +0.000 A 
ATOM     10  C   UNL     1       6.013   5.375 -13.727  0.00  0.00    +0.000 A 
ATOM     11  C   UNL     1       7.376   5.638 -13.779  0.00  0.00    +0.000 A 
ATOM     12  C   UNL     1       8.076   6.124 -12.689  0.00  0.00    +0.000 A 
ATOM     13  C   UNL     1       7.358   6.390 -11.555  0.00  0.00    +0.000 A 
ENDBRANCH   5   8
BRANCH   1  15
ATOM     14  C   UNL     1       2.039   7.237  -7.156  0.00  0.00    +0.017 C 
ATOM     15  C   UNL     1       2.934   5.922  -6.633  0.00  0.00    +0.126 C 
BRANCH  15  16
ATOM     16  C   UNL     1       1.942   4.788  -7.271  0.00  0.00    +0.368 C 
ATOM     17  O   UNL     1       0.712   5.138  -7.673  0.00  0.00    -0.245 OA
ATOM     18  O   UNL     1       2.124   3.677  -6.694  0.00  0.00    -0.245 OA
ENDBRANCH  15  16
ENDBRANCH   1  15
TORSDOF 3
ENDMDL
MODEL 6
REMARK VINA RESULT:      -7.0      1.840      2.551
REMARK  Name = 
REMARK  3 active torsions:
REMARK  status: ('A' for Active; 'I' for Inactive)
REMARK    1  A    between atoms: C_2  and  C_3
REMARK    2  A    between atoms: C_2  and  C_6
REMARK    3  A    between atoms: C_9  and  C_10
REMARK                            x       y       z     vdW  Elec       q    Type
REMARK                         _______ _______ _______ _____ _____    ______ ____
ROOT
ATOM      1  C   UNL     1       6.080   6.441 -10.271  0.00  0.00    -0.010 A 
ATOM      2  C   UNL     1       5.821   5.357  -9.509  0.00  0.00    +0.026 A 
ATOM      3  C   UNL     1       4.490   5.134  -9.168  0.00  0.00    +0.140 A 
ATOM      4  F   UNL     1       4.017   3.867  -8.974  0.00  0.00    -0.204 F 
ATOM      5  C   UNL     1       3.566   6.146  -9.400  0.00  0.00    +0.027 A 
ATOM      6  C   UNL     1       3.870   7.151 -10.312  0.00  0.00    +0.002 A 
ATOM      7  C   UNL     1       5.150   7.261 -10.850  0.00  0.00    -0.004 A 
ENDROOT
BRANCH   5   8
ATOM      8  C   UNL     1       2.307   6.072  -8.684  0.00  0.00    +0.002 A 
ATOM      9  C   UNL     1       1.227   5.571  -9.367  0.00  0.00    +0.000 A 
ATOM     10  C   UNL     1       0.035   5.436  -8.712  0.00  0.00    +0.000 A 
ATOM     11  C   UNL     1       0.008   5.673  -7.343  0.00  0.00    +0.000 A 
ATOM     12  C   UNL     1       1.152   5.965  -6.621  0.00  0.00    +0.000 A 
ATOM     13  C   UNL     1       2.338   5.962  -7.304  0.00  0.00    +0.000 A 
ENDBRANCH   5   8
BRANCH   1  15
ATOM     14  C   UNL     1       8.137   5.286  -9.976  0.00  0.00    +0.017 C 
ATOM     15  C   UNL     1       7.606   6.636 -10.810  0.00  0.00    +0.126 C 
BRANCH  15  16
ATOM     16  C   UNL     1       7.288   5.846 -12.208  0.00  0.00    +0.368 C 
ATOM     17  O   UNL     1       7.690   4.576 -12.355  0.00  0.00    -0.245 OA
ATOM     18  O   UNL     1       7.357   6.647 -13.185  0.00  0.00    -0.245 OA
ENDBRANCH  15  16
ENDBRANCH   1  15
TORSDOF 3
ENDMDL
MODEL 7
REMARK VINA RESULT:      -7.0      5.509      8.431
REMARK  Name = 
REMARK  3 active torsions:
REMARK  status: ('A' for Active; 'I' for Inactive)
REMARK    1  A    between atoms: C_2  and  C_3
REMARK    2  A    between atoms: C_2  and  C_6
REMARK    3  A    between atoms: C_9  and  C_10
REMARK                            x       y       z     vdW  Elec       q    Type
REMARK                         _______ _______ _______ _____ _____    ______ ____
ROOT
ATOM      1  C   UNL     1      -0.696   6.294  -4.297  0.00  0.00    -0.010 A 
ATOM      2  C   UNL     1      -1.182   6.392  -5.552  0.00  0.00    +0.026 A 
ATOM      3  C   UNL     1      -0.409   5.839  -6.568  0.00  0.00    +0.140 A 
ATOM      4  F   UNL     1      -0.990   5.324  -7.692  0.00  0.00    -0.204 F 
ATOM      5  C   UNL     1       0.897   5.462  -6.280  0.00  0.00    +0.027 A 
ATOM      6  C   UNL     1       1.270   5.249  -4.957  0.00  0.00    +0.002 A 
ATOM      7  C   UNL     1       0.412   5.588  -3.913  0.00  0.00    -0.004 A 
ENDROOT
BRANCH   5   8
ATOM      8  C   UNL     1       1.800   5.284  -7.401  0.00  0.00    +0.002 A 
ATOM      9  C   UNL     1       2.460   6.399  -7.857  0.00  0.00    +0.000 A 
ATOM     10  C   UNL     1       3.358   6.263  -8.877  0.00  0.00    +0.000 A 
ATOM     11  C   UNL     1       3.674   4.980  -9.309  0.00  0.00    +0.000 A 
ATOM     12  C   UNL     1       3.167   3.849  -8.694  0.00  0.00    +0.000 A 
ATOM     13  C   UNL     1       2.373   4.039  -7.596  0.00  0.00    +0.000 A 
ENDBRANCH   5   8
BRANCH   1  15
ATOM     14  C   UNL     1      -2.843   7.303  -4.138  0.00  0.00    +0.017 C 
ATOM     15  C   UNL     1      -1.653   6.796  -3.075  0.00  0.00    +0.126 C 
BRANCH  15  16
ATOM     16  C   UNL     1      -2.268   5.297  -2.849  0.00  0.00    +0.368 C 
ATOM     17  O   UNL     1      -3.354   4.917  -3.537  0.00  0.00    -0.245 OA
ATOM     18  O   UNL     1      -2.136   4.952  -1.638  0.00  0.00    -0.245 OA
ENDBRANCH  15  16
ENDBRANCH   1  15
TORSDOF 3
ENDMDL
MODEL 8
REMARK VINA RESULT:      -6.8      2.721      3.539
REMARK  Name = 
REMARK  3 active torsions:
REMARK  status: ('A' for Active; 'I' for Inactive)
REMARK    1  A    between atoms: C_2  and  C_3
REMARK    2  A    between atoms: C_2  and  C_6
REMARK    3  A    between atoms: C_9  and  C_10
REMARK                            x       y       z     vdW  Elec       q    Type
REMARK                         _______ _______ _______ _____ _____    ______ ____
ROOT
ATOM      1  C   UNL     1       3.717   5.327 -10.053  0.00  0.00    -0.010 A 
ATOM      2  C   UNL     1       3.756   4.527  -8.966  0.00  0.00    +0.026 A 
ATOM      3  C   UNL     1       2.615   4.495  -8.170  0.00  0.00    +0.140 A 
ATOM      4  F   UNL     1       2.275   3.371  -7.474  0.00  0.00    -0.204 F 
ATOM      5  C   UNL     1       1.629   5.452  -8.383  0.00  0.00    +0.027 A 
ATOM      6  C   UNL     1       1.587   6.130  -9.596  0.00  0.00    +0.002 A 
ATOM      7  C   UNL     1       2.621   6.000 -10.521  0.00  0.00    -0.004 A 
ENDROOT
BRANCH   5   8
ATOM      8  C   UNL     1       0.671   5.667  -7.315  0.00  0.00    +0.002 A 
ATOM      9  C   UNL     1       0.968   6.643  -6.395  0.00  0.00    +0.000 A 
ATOM     10  C   UNL     1       0.066   6.912  -5.404  0.00  0.00    +0.000 A 
ATOM     11  C   UNL     1      -1.175   6.290  -5.458  0.00  0.00    +0.000 A 
ATOM     12  C   UNL     1      -1.547   5.474  -6.513  0.00  0.00    +0.000 A 
ATOM     13  C   UNL     1      -0.655   5.340  -7.542  0.00  0.00    +0.000 A 
ENDBRANCH   5   8
BRANCH   1  15
ATOM     14  C   UNL     1       4.132   6.086 -12.267  0.00  0.00    +0.017 C 
ATOM     15  C   UNL     1       4.980   5.263 -11.082  0.00  0.00    +0.126 C 
BRANCH  15  16
ATOM     16  C   UNL     1       5.671   6.593 -10.426  0.00  0.00    +0.368 C 
ATOM     17  O   UNL     1       5.556   7.774 -11.050  0.00  0.00    -0.245 OA
ATOM     18  O   UNL     1       6.760   6.283  -9.860  0.00  0.00    -0.245 OA
ENDBRANCH  15  16
ENDBRANCH   1  15
TORSDOF 3
ENDMDL
MODEL 9
REMARK VINA RESULT:      -6.7      3.493      6.546
REMARK  Name = 
REMARK  3 active torsions:
REMARK  status: ('A' for Active; 'I' for Inactive)
REMARK    1  A    between atoms: C_2  and  C_3
REMARK    2  A    between atoms: C_2  and  C_6
REMARK    3  A    between atoms: C_9  and  C_10
REMARK                            x       y       z     vdW  Elec       q    Type
REMARK                         _______ _______ _______ _____ _____    ______ ____
ROOT
ATOM      1  C   UNL     1       2.150   5.595  -7.899  0.00  0.00    -0.010 A 
ATOM      2  C   UNL     1       3.207   4.757  -7.897  0.00  0.00    +0.026 A 
ATOM      3  C   UNL     1       4.325   5.157  -8.623  0.00  0.00    +0.140 A 
ATOM      4  F   UNL     1       5.582   4.784  -8.240  0.00  0.00    -0.204 F 
ATOM      5  C   UNL     1       4.202   6.234  -9.493  0.00  0.00    +0.027 A 
ATOM      6  C   UNL     1       3.149   7.128  -9.328  0.00  0.00    +0.002 A 
ATOM      7  C   UNL     1       2.120   6.856  -8.430  0.00  0.00    -0.004 A 
ENDROOT
BRANCH   5   8
ATOM      8  C   UNL     1       5.216   6.377 -10.520  0.00  0.00    +0.002 A 
ATOM      9  C   UNL     1       5.312   5.370 -11.449  0.00  0.00    +0.000 A 
ATOM     10  C   UNL     1       6.219   5.492 -12.463  0.00  0.00    +0.000 A 
ATOM     11  C   UNL     1       6.900   6.696 -12.595  0.00  0.00    +0.000 A 
ATOM     12  C   UNL     1       6.635   7.787 -11.785  0.00  0.00    +0.000 A 
ATOM     13  C   UNL     1       5.628   7.652 -10.869  0.00  0.00    +0.000 A 
ENDBRANCH   5   8
BRANCH   1  15
ATOM     14  C   UNL     1       1.778   4.055  -6.126  0.00  0.00    +0.017 C 
ATOM     15  C   UNL     1       0.890   5.221  -6.933  0.00  0.00    +0.126 C 
BRANCH  15  16
ATOM     16  C   UNL     1       1.237   6.436  -5.893  0.00  0.00    +0.368 C 
ATOM     17  O   UNL     1       2.165   6.249  -4.945  0.00  0.00    -0.245 OA
ATOM     18  O   UNL     1       0.188   7.094  -5.628  0.00  0.00    -0.245 OA
ENDBRANCH  15  16
ENDBRANCH   1  15
TORSDOF 3
ENDMDL
