MODEL 1
REMARK VINA RESULT:      -7.8      0.000      0.000
REMARK  Name = 
REMARK  8 active torsions:
REMARK  status: ('A' for Active; 'I' for Inactive)
REMARK    1  A    between atoms: C_2  and  C_3
REMARK    2  A    between atoms: C_3  and  C_4
REMARK    3  A    between atoms: C_4  and  N_5
REMARK    4  A    between atoms: N_5  and  C_6
REMARK    5  A    between atoms: C_8  and  C_9
REMARK    6  A    between atoms: C_13  and  S_14
REMARK    7  A    between atoms: C_18  and  O_19
REMARK    8  A    between atoms: O_19  and  C_20
REMARK                            x       y       z     vdW  Elec       q    Type
REMARK                         _______ _______ _______ _____ _____    ______ ____
ROOT
ATOM      1  C   UNL     1       3.533   5.625  -7.388  0.00  0.00    +0.101 A 
ATOM      2  C   UNL     1       2.345   5.590  -8.101  0.00  0.00    +0.178 A 
ATOM      3  C   UNL     1       2.482   5.470  -9.478  0.00  0.00    +0.161 A 
ATOM      4  C   UNL     1       3.726   5.384 -10.089  0.00  0.00    +0.030 A 
ATOM      5  C   UNL     1       4.876   5.544  -9.346  0.00  0.00    +0.083 A 
ATOM      6  C   UNL     1       4.771   5.531  -7.980  0.00  0.00    +0.026 A 
ENDROOT
BRANCH   3   7
ATOM      7  S   UNL     1       1.098   5.787 -10.514  0.00  0.00    +0.096 S 
ATOM      8  O   UNL     1       0.556   7.181 -10.288  0.00  0.00    -0.150 OA
ATOM      9  O   UNL     1      -0.025   4.840 -10.249  0.00  0.00    -0.150 OA
ATOM     10  N   UNL     1       1.576   5.725 -12.182  0.00  0.00    +0.039 NA
ENDBRANCH   3   7
BRANCH   5  11
ATOM     11  C   UNL     1       6.141   5.797 -10.048  0.00  0.00    +0.388 C 
ATOM     12  O   UNL     1       7.296   5.529  -9.309  0.00  0.00    -0.241 OA
ATOM     13  O   UNL     1       6.177   5.420 -11.256  0.00  0.00    -0.241 OA
ENDBRANCH   5  11
BRANCH   1  14
ATOM     14  N   UNL     1       3.466   5.747  -5.965  0.00  0.00    -0.234 NA
BRANCH  14  15
ATOM     15  C   UNL     1       3.934   6.943  -5.282  0.00  0.00    +0.112 C 
BRANCH  15  16
ATOM     16  C   UNL     1       5.008   6.610  -4.254  0.00  0.00    +0.023 C 
BRANCH  16  18
ATOM     17  C   UNL     1       4.116   5.136  -2.501  0.00  0.00    +0.000 C 
ATOM     18  C   UNL     1       4.777   5.158  -3.867  0.00  0.00    +0.002 C 
ENDBRANCH  16  18
ENDBRANCH  15  16
ENDBRANCH  14  15
ENDBRANCH   1  14
BRANCH   2  19
ATOM     19  O   UNL     1       1.311   6.401  -7.642  0.00  0.00    -0.451 OA
BRANCH  19  20
ATOM     20  C   UNL     1       0.370   6.006  -6.718  0.00  0.00    +0.145 A 
ATOM     21  C   UNL     1       0.208   6.826  -5.607  0.00  0.00    +0.037 A 
ATOM     22  C   UNL     1      -1.038   7.019  -5.021  0.00  0.00    +0.003 A 
ATOM     23  C   UNL     1      -2.179   6.490  -5.610  0.00  0.00    +0.000 A 
ATOM     24  C   UNL     1      -1.975   5.460  -6.522  0.00  0.00    +0.003 A 
ATOM     25  C   UNL     1      -0.703   5.180  -7.005  0.00  0.00    +0.037 A 
ENDBRANCH  19  20
ENDBRANCH   2  19
TORSDOF 8
ENDMDL
MODEL 2
REMARK VINA RESULT:      -7.5      2.679      5.307
REMARK  Name = 
REMARK  8 active torsions:
REMARK  status: ('A' for Active; 'I' for Inactive)
REMARK    1  A    between atoms: C_2  and  C_3
REMARK    2  A    between atoms: C_3  and  C_4
REMARK    3  A    between atoms: C_4  and  N_5
REMARK    4  A    between atoms: N_5  and  C_6
REMARK    5  A    between atoms: C_8  and  C_9
REMARK    6  A    between atoms: C_13  and  S_14
REMARK    7  A    between atoms: C_18  and  O_19
REMARK    8  A    between atoms: O_19  and  C_20
REMARK                            x       y       z     vdW  Elec       q    Type
REMARK                         _______ _______ _______ _____ _____    ______ ____
ROOT
ATOM      1  C   UNL     1       2.904   6.089  -8.906  0.00  0.00    +0.101 A 
ATOM      2  C   UNL     1       2.374   5.941  -7.633  0.00  0.00    +0.178 A 
ATOM      3  C   UNL     1       1.016   5.653  -7.586  0.00  0.00    +0.161 A 
ATOM      4  C   UNL     1       0.252   5.517  -8.738  0.00  0.00    +0.030 A 
ATOM      5  C   UNL     1       0.802   5.791  -9.971  0.00  0.00    +0.083 A 
ATOM      6  C   UNL     1       2.160   5.947 -10.054  0.00  0.00    +0.026 A 
ENDROOT
BRANCH   3   7
ATOM      7  S   UNL     1       0.153   5.811  -6.063  0.00  0.00    +0.096 S 
ATOM      8  O   UNL     1       0.220   7.229  -5.543  0.00  0.00    -0.150 OA
ATOM      9  O   UNL     1       0.731   4.934  -5.002  0.00  0.00    -0.150 OA
ATOM     10  N   UNL     1      -1.533   5.467  -6.295  0.00  0.00    +0.039 NA
ENDBRANCH   3   7
BRANCH   5  11
ATOM     11  C   UNL     1      -0.096   5.980 -11.118  0.00  0.00    +0.388 C 
ATOM     12  O   UNL     1      -0.587   7.278 -11.283  0.00  0.00    -0.241 OA
ATOM     13  O   UNL     1       0.259   5.400 -12.187  0.00  0.00    -0.241 OA
ENDBRANCH   5  11
BRANCH   1  14
ATOM     14  N   UNL     1       4.297   6.387  -9.029  0.00  0.00    -0.234 NA
BRANCH  14  15
ATOM     15  C   UNL     1       5.304   5.338  -8.990  0.00  0.00    +0.112 C 
BRANCH  15  16
ATOM     16  C   UNL     1       6.656   5.848  -9.473  0.00  0.00    +0.023 C 
BRANCH  16  18
ATOM     17  C   UNL     1       6.968   7.711 -11.046  0.00  0.00    +0.000 C 
ATOM     18  C   UNL     1       6.441   6.293 -10.911  0.00  0.00    +0.002 C 
ENDBRANCH  16  18
ENDBRANCH  15  16
ENDBRANCH  14  15
ENDBRANCH   1  14
BRANCH   2  19
ATOM     19  O   UNL     1       2.871   6.782  -6.642  0.00  0.00    -0.451 OA
BRANCH  19  20
ATOM     20  C   UNL     1       3.854   6.426  -5.746  0.00  0.00    +0.145 A 
ATOM     21  C   UNL     1       4.185   7.368  -4.779  0.00  0.00    +0.037 A 
ATOM     22  C   UNL     1       4.538   6.992  -3.489  0.00  0.00    +0.003 A 
ATOM     23  C   UNL     1       4.449   5.663  -3.096  0.00  0.00    +0.000 A 
ATOM     24  C   UNL     1       4.404   4.725  -4.121  0.00  0.00    +0.003 A 
ATOM     25  C   UNL     1       4.185   5.119  -5.436  0.00  0.00    +0.037 A 
ENDBRANCH  19  20
ENDBRANCH   2  19
TORSDOF 8
ENDMDL
MODEL 3
REMARK VINA RESULT:      -7.4      2.674      4.923
REMARK  Name = 
REMARK  8 active torsions:
REMARK  status: ('A' for Active; 'I' for Inactive)
REMARK    1  A    between atoms: C_2  and  C_3
REMARK    2  A    between atoms: C_3  and  C_4
REMARK    3  A    between atoms: C_4  and  N_5
REMARK    4  A    between atoms: N_5  and  C_6
REMARK    5  A    between atoms: C_8  and  C_9
REMARK    6  A    between atoms: C_13  and  S_14
REMARK    7  A    between atoms: C_18  and  O_19
REMARK    8  A    between atoms: O_19  and  C_20
REMARK                            x       y       z     vdW  Elec       q    Type
REMARK                         _______ _______ _______ _____ _____    ______ ____
ROOT
ATOM      1  C   UNL     1       1.766   6.428  -6.411  0.00  0.00    +0.101 A 
ATOM      2  C   UNL     1       2.228   6.152  -7.689  0.00  0.00    +0.178 A 
ATOM      3  C   UNL     1       3.592   5.908  -7.789  0.00  0.00    +0.161 A 
ATOM      4  C   UNL     1       4.427   5.932  -6.679  0.00  0.00    +0.030 A 
ATOM      5  C   UNL     1       3.938   6.328  -5.453  0.00  0.00    +0.083 A 
ATOM      6  C   UNL     1       2.582   6.445  -5.303  0.00  0.00    +0.026 A 
ENDROOT
BRANCH   3   7
ATOM      7  S   UNL     1       4.357   5.918  -9.370  0.00  0.00    +0.096 S 
ATOM      8  O   UNL     1       4.238   7.275 -10.025  0.00  0.00    -0.150 OA
ATOM      9  O   UNL     1       3.728   4.933 -10.300  0.00  0.00    -0.150 OA
ATOM     10  N   UNL     1       6.059   5.613  -9.211  0.00  0.00    +0.039 NA
ENDBRANCH   3   7
BRANCH   5  11
ATOM     11  C   UNL     1       4.892   6.680  -4.392  0.00  0.00    +0.388 C 
ATOM     12  O   UNL     1       5.194   8.041  -4.290  0.00  0.00    -0.241 OA
ATOM     13  O   UNL     1       4.723   6.083  -3.289  0.00  0.00    -0.241 OA
ENDBRANCH   5  11
BRANCH   1  14
ATOM     14  N   UNL     1       0.372   6.689  -6.236  0.00  0.00    -0.234 NA
BRANCH  14  15
ATOM     15  C   UNL     1      -0.584   5.610  -6.046  0.00  0.00    +0.112 C 
BRANCH  15  16
ATOM     16  C   UNL     1      -1.541   5.912  -4.899  0.00  0.00    +0.023 C 
BRANCH  16  18
ATOM     17  C   UNL     1      -2.083   8.122  -3.969  0.00  0.00    +0.000 C 
ATOM     18  C   UNL     1      -2.159   7.264  -5.219  0.00  0.00    +0.002 C 
ENDBRANCH  16  18
ENDBRANCH  15  16
ENDBRANCH  14  15
ENDBRANCH   1  14
BRANCH   2  19
ATOM     19  O   UNL     1       1.639   6.854  -8.737  0.00  0.00    -0.451 OA
BRANCH  19  20
ATOM     20  C   UNL     1       0.708   6.321  -9.600  0.00  0.00    +0.145 A 
ATOM     21  C   UNL     1       0.545   6.972 -10.817  0.00  0.00    +0.037 A 
ATOM     22  C   UNL     1       0.270   6.270 -11.985  0.00  0.00    +0.003 A 
ATOM     23  C   UNL     1       0.274   4.882 -11.987  0.00  0.00    +0.000 A 
ATOM     24  C   UNL     1       0.149   4.269 -10.745  0.00  0.00    +0.003 A 
ATOM     25  C   UNL     1       0.290   5.003  -9.573  0.00  0.00    +0.037 A 
ENDBRANCH  19  20
ENDBRANCH   2  19
TORSDOF 8
ENDMDL
MODEL 4
REMARK VINA RESULT:      -7.1      5.224      7.348
REMARK  Name = 
REMARK  8 active torsions:
REMARK  status: ('A' for Active; 'I' for Inactive)
REMARK    1  A    between atoms: C_2  and  C_3
REMARK    2  A    between atoms: C_3  and  C_4
REMARK    3  A    between atoms: C_4  and  N_5
REMARK    4  A    between atoms: N_5  and  C_6
REMARK    5  A    between atoms: C_8  and  C_9
REMARK    6  A    between atoms: C_13  and  S_14
REMARK    7  A    between atoms: C_18  and  O_19
REMARK    8  A    between atoms: O_19  and  C_20
REMARK                            x       y       z     vdW  Elec       q    Type
REMARK                         _______ _______ _______ _____ _____    ______ ____
ROOT
ATOM      1  C   UNL     1       1.153   5.625  -2.975  0.00  0.00    +0.101 A 
ATOM      2  C   UNL     1       0.187   6.227  -2.184  0.00  0.00    +0.178 A 
ATOM      3  C   UNL     1       0.635   6.700  -0.957  0.00  0.00    +0.161 A 
ATOM      4  C   UNL     1       1.962   6.583  -0.562  0.00  0.00    +0.030 A 
ATOM      5  C   UNL     1       2.854   5.870  -1.335  0.00  0.00    +0.083 A 
ATOM      6  C   UNL     1       2.472   5.511  -2.600  0.00  0.00    +0.026 A 
ENDROOT
BRANCH   3   7
ATOM      7  S   UNL     1      -0.534   7.137   0.279  0.00  0.00    +0.096 S 
ATOM      8  O   UNL     1       0.122   7.248   1.636  0.00  0.00    -0.150 OA
ATOM      9  O   UNL     1      -1.618   6.117   0.407  0.00  0.00    -0.150 OA
ATOM     10  N   UNL     1      -1.202   8.704  -0.058  0.00  0.00    +0.039 NA
ENDBRANCH   3   7
BRANCH   5  11
ATOM     11  C   UNL     1       4.136   5.466  -0.742  0.00  0.00    +0.388 C 
ATOM     12  O   UNL     1       4.498   6.154   0.419  0.00  0.00    -0.241 OA
ATOM     13  O   UNL     1       4.353   4.219  -0.717  0.00  0.00    -0.241 OA
ENDBRANCH   5  11
BRANCH   1  14
ATOM     14  N   UNL     1       0.761   5.115  -4.252  0.00  0.00    -0.234 NA
BRANCH  14  15
ATOM     15  C   UNL     1       1.530   5.400  -5.452  0.00  0.00    +0.112 C 
BRANCH  15  16
ATOM     16  C   UNL     1       1.105   6.721  -6.083  0.00  0.00    +0.023 C 
BRANCH  16  18
ATOM     17  C   UNL     1       3.533   7.049  -5.895  0.00  0.00    +0.000 C 
ATOM     18  C   UNL     1       2.333   7.252  -6.803  0.00  0.00    +0.002 C 
ENDBRANCH  16  18
ENDBRANCH  15  16
ENDBRANCH  14  15
ENDBRANCH   1  14
BRANCH   2  19
ATOM     19  O   UNL     1      -1.087   5.670  -2.212  0.00  0.00    -0.451 OA
BRANCH  19  20
ATOM     20  C   UNL     1      -2.067   6.022  -3.113  0.00  0.00    +0.145 A 
ATOM     21  C   UNL     1      -2.041   7.332  -3.579  0.00  0.00    +0.037 A 
ATOM     22  C   UNL     1      -2.398   7.645  -4.885  0.00  0.00    +0.003 A 
ATOM     23  C   UNL     1      -2.674   6.636  -5.798  0.00  0.00    +0.000 A 
ATOM     24  C   UNL     1      -2.977   5.391  -5.260  0.00  0.00    +0.003 A 
ATOM     25  C   UNL     1      -2.744   5.122  -3.917  0.00  0.00    +0.037 A 
ENDBRANCH  19  20
ENDBRANCH   2  19
TORSDOF 8
ENDMDL
MODEL 5
REMARK VINA RESULT:      -7.1      1.609      2.124
REMARK  Name = 
REMARK  8 active torsions:
REMARK  status: ('A' for Active; 'I' for Inactive)
REMARK    1  A    between atoms: C_2  and  C_3
REMARK    2  A    between atoms: C_3  and  C_4
REMARK    3  A    between atoms: C_4  and  N_5
REMARK    4  A    between atoms: N_5  and  C_6
REMARK    5  A    between atoms: C_8  and  C_9
REMARK    6  A    between atoms: C_13  and  S_14
REMARK    7  A    between atoms: C_18  and  O_19
REMARK    8  A    between atoms: O_19  and  C_20
REMARK                            x       y       z     vdW  Elec       q    Type
REMARK                         _______ _______ _______ _____ _____    ______ ____
ROOT
ATOM      1  C   UNL     1       4.048   5.921  -8.377  0.00  0.00    +0.101 A 
ATOM      2  C   UNL     1       2.745   5.755  -8.820  0.00  0.00    +0.178 A 
ATOM      3  C   UNL     1       2.610   5.451 -10.169  0.00  0.00    +0.161 A 
ATOM      4  C   UNL     1       3.710   5.316 -11.006  0.00  0.00    +0.030 A 
ATOM      5  C   UNL     1       4.974   5.608 -10.543  0.00  0.00    +0.083 A 
ATOM      6  C   UNL     1       5.146   5.780  -9.195  0.00  0.00    +0.026 A 
ENDROOT
BRANCH   3   7
ATOM      7  S   UNL     1       1.032   5.584 -10.930  0.00  0.00    +0.096 S 
ATOM      8  O   UNL     1       0.025   4.677 -10.260  0.00  0.00    -0.150 OA
ATOM      9  O   UNL     1       1.073   5.194 -12.371  0.00  0.00    -0.150 OA
ATOM     10  N   UNL     1       0.416   7.197 -10.748  0.00  0.00    +0.039 NA
ENDBRANCH   3   7
BRANCH   5  11
ATOM     11  C   UNL     1       6.057   5.797 -11.517  0.00  0.00    +0.388 C 
ATOM     12  O   UNL     1       5.976   4.998 -12.661  0.00  0.00    -0.241 OA
ATOM     13  O   UNL     1       6.398   6.999 -11.725  0.00  0.00    -0.241 OA
ENDBRANCH   5  11
BRANCH   1  14
ATOM     14  N   UNL     1       4.260   6.236  -7.000  0.00  0.00    -0.234 NA
BRANCH  14  15
ATOM     15  C   UNL     1       4.418   5.194  -5.998  0.00  0.00    +0.112 C 
BRANCH  15  16
ATOM     16  C   UNL     1       4.689   5.784  -4.620  0.00  0.00    +0.023 C 
BRANCH  16  18
ATOM     17  C   UNL     1       4.498   7.895  -3.375  0.00  0.00    +0.000 C 
ATOM     18  C   UNL     1       4.492   7.285  -4.765  0.00  0.00    +0.002 C 
ENDBRANCH  16  18
ENDBRANCH  15  16
ENDBRANCH  14  15
ENDBRANCH   1  14
BRANCH   2  19
ATOM     19  O   UNL     1       1.780   6.592  -8.268  0.00  0.00    -0.451 OA
BRANCH  19  20
ATOM     20  C   UNL     1       1.013   6.271  -7.170  0.00  0.00    +0.145 A 
ATOM     21  C   UNL     1       0.846   4.917  -6.903  0.00  0.00    +0.037 A 
ATOM     22  C   UNL     1       0.775   4.437  -5.601  0.00  0.00    +0.003 A 
ATOM     23  C   UNL     1       0.993   5.289  -4.526  0.00  0.00    +0.000 A 
ATOM     24  C   UNL     1       0.868   6.648  -4.789  0.00  0.00    +0.003 A 
ATOM     25  C   UNL     1       0.802   7.116  -6.096  0.00  0.00    +0.037 A 
ENDBRANCH  19  20
ENDBRANCH   2  19
TORSDOF 8
ENDMDL
MODEL 6
REMARK VINA RESULT:      -7.0      3.238      5.684
REMARK  Name = 
REMARK  8 active torsions:
REMARK  status: ('A' for Active; 'I' for Inactive)
REMARK    1  A    between atoms: C_2  and  C_3
REMARK    2  A    between atoms: C_3  and  C_4
REMARK    3  A    between atoms: C_4  and  N_5
REMARK    4  A    between atoms: N_5  and  C_6
REMARK    5  A    between atoms: C_8  and  C_9
REMARK    6  A    between atoms: C_13  and  S_14
REMARK    7  A    between atoms: C_18  and  O_19
REMARK    8  A    between atoms: O_19  and  C_20
REMARK                            x       y       z     vdW  Elec       q    Type
REMARK                         _______ _______ _______ _____ _____    ______ ____
ROOT
ATOM      1  C   UNL     1       3.748   5.507 -12.778  0.00  0.00    +0.101 A 
ATOM      2  C   UNL     1       2.892   5.624 -11.694  0.00  0.00    +0.178 A 
ATOM      3  C   UNL     1       1.622   6.102 -11.989  0.00  0.00    +0.161 A 
ATOM      4  C   UNL     1       1.241   6.429 -13.284  0.00  0.00    +0.030 A 
ATOM      5  C   UNL     1       2.166   6.406 -14.305  0.00  0.00    +0.083 A 
ATOM      6  C   UNL     1       3.379   5.818 -14.067  0.00  0.00    +0.026 A 
ENDROOT
BRANCH   3   7
ATOM      7  S   UNL     1       0.580   6.647 -10.684  0.00  0.00    +0.096 S 
ATOM      8  O   UNL     1       1.368   7.397  -9.634  0.00  0.00    -0.150 OA
ATOM      9  O   UNL     1      -0.087   5.506  -9.989  0.00  0.00    -0.150 OA
ATOM     10  N   UNL     1      -0.598   7.771 -11.290  0.00  0.00    +0.039 NA
ENDBRANCH   3   7
BRANCH   5  11
ATOM     11  C   UNL     1       1.839   7.079 -15.570  0.00  0.00    +0.388 C 
ATOM     12  O   UNL     1       2.927   7.326 -16.412  0.00  0.00    -0.241 OA
ATOM     13  O   UNL     1       0.793   6.666 -16.151  0.00  0.00    -0.241 OA
ENDBRANCH   5  11
BRANCH   1  14
ATOM     14  N   UNL     1       5.072   5.021 -12.547  0.00  0.00    -0.234 NA
BRANCH  14  15
ATOM     15  C   UNL     1       6.212   5.922 -12.484  0.00  0.00    +0.112 C 
BRANCH  15  16
ATOM     16  C   UNL     1       7.006   5.724 -11.199  0.00  0.00    +0.023 C 
BRANCH  16  18
ATOM     17  C   UNL     1       6.400   8.099 -11.384  0.00  0.00    +0.000 C 
ATOM     18  C   UNL     1       7.333   7.120 -10.694  0.00  0.00    +0.002 C 
ENDBRANCH  16  18
ENDBRANCH  15  16
ENDBRANCH  14  15
ENDBRANCH   1  14
BRANCH   2  19
ATOM     19  O   UNL     1       3.453   6.040 -10.490  0.00  0.00    -0.451 OA
BRANCH  19  20
ATOM     20  C   UNL     1       3.693   5.208  -9.420  0.00  0.00    +0.145 A 
ATOM     21  C   UNL     1       4.552   5.690  -8.439  0.00  0.00    +0.037 A 
ATOM     22  C   UNL     1       4.358   5.395  -7.094  0.00  0.00    +0.003 A 
ATOM     23  C   UNL     1       3.222   4.709  -6.684  0.00  0.00    +0.000 A 
ATOM     24  C   UNL     1       2.547   4.000  -7.670  0.00  0.00    +0.003 A 
ATOM     25  C   UNL     1       2.839   4.198  -9.014  0.00  0.00    +0.037 A 
ENDBRANCH  19  20
ENDBRANCH   2  19
TORSDOF 8
ENDMDL
MODEL 7
REMARK VINA RESULT:      -7.0      4.154      7.226
REMARK  Name = 
REMARK  8 active torsions:
REMARK  status: ('A' for Active; 'I' for Inactive)
REMARK    1  A    between atoms: C_2  and  C_3
REMARK    2  A    between atoms: C_3  and  C_4
REMARK    3  A    between atoms: C_4  and  N_5
REMARK    4  A    between atoms: N_5  and  C_6
REMARK    5  A    between atoms: C_8  and  C_9
REMARK    6  A    between atoms: C_13  and  S_14
REMARK    7  A    between atoms: C_18  and  O_19
REMARK    8  A    between atoms: O_19  and  C_20
REMARK                            x       y       z     vdW  Elec       q    Type
REMARK                         _______ _______ _______ _____ _____    ______ ____
ROOT
ATOM      1  C   UNL     1      -0.279   5.653  -2.902  0.00  0.00    +0.101 A 
ATOM      2  C   UNL     1       1.025   6.115  -2.986  0.00  0.00    +0.178 A 
ATOM      3  C   UNL     1       1.435   6.510  -4.254  0.00  0.00    +0.161 A 
ATOM      4  C   UNL     1       0.588   6.450  -5.353  0.00  0.00    +0.030 A 
ATOM      5  C   UNL     1      -0.658   5.872  -5.238  0.00  0.00    +0.083 A 
ATOM      6  C   UNL     1      -1.131   5.598  -3.982  0.00  0.00    +0.026 A 
ENDROOT
BRANCH   3   7
ATOM      7  S   UNL     1       3.146   6.755  -4.570  0.00  0.00    +0.096 S 
ATOM      8  O   UNL     1       3.914   5.458  -4.449  0.00  0.00    -0.150 OA
ATOM      9  O   UNL     1       3.760   7.712  -3.603  0.00  0.00    -0.150 OA
ATOM     10  N   UNL     1       3.379   7.297  -6.203  0.00  0.00    +0.039 NA
ENDBRANCH   3   7
BRANCH   5  11
ATOM     11  C   UNL     1      -1.383   5.507  -6.462  0.00  0.00    +0.388 C 
ATOM     12  O   UNL     1      -2.668   6.044  -6.575  0.00  0.00    -0.241 OA
ATOM     13  O   UNL     1      -0.697   5.527  -7.526  0.00  0.00    -0.241 OA
ENDBRANCH   5  11
BRANCH   1  14
ATOM     14  N   UNL     1      -0.767   5.230  -1.627  0.00  0.00    -0.234 NA
BRANCH  14  15
ATOM     15  C   UNL     1      -2.072   5.645  -1.138  0.00  0.00    +0.112 C 
BRANCH  15  16
ATOM     16  C   UNL     1      -2.145   7.157  -0.964  0.00  0.00    +0.023 C 
BRANCH  16  18
ATOM     17  C   UNL     1      -2.288   8.132   1.288  0.00  0.00    +0.000 C 
ATOM     18  C   UNL     1      -1.351   7.470   0.294  0.00  0.00    +0.002 C 
ENDBRANCH  16  18
ENDBRANCH  15  16
ENDBRANCH  14  15
ENDBRANCH   1  14
BRANCH   2  19
ATOM     19  O   UNL     1       1.972   5.476  -2.193  0.00  0.00    -0.451 OA
BRANCH  19  20
ATOM     20  C   UNL     1       2.524   6.020  -1.054  0.00  0.00    +0.145 A 
ATOM     21  C   UNL     1       3.834   5.658  -0.764  0.00  0.00    +0.037 A 
ATOM     22  C   UNL     1       4.723   6.556  -0.185  0.00  0.00    +0.003 A 
ATOM     23  C   UNL     1       4.358   7.881   0.007  0.00  0.00    +0.000 A 
ATOM     24  C   UNL     1       2.994   8.148  -0.013  0.00  0.00    +0.003 A 
ATOM     25  C   UNL     1       2.090   7.195  -0.467  0.00  0.00    +0.037 A 
ENDBRANCH  19  20
ENDBRANCH   2  19
TORSDOF 8
ENDMDL
MODEL 8
REMARK VINA RESULT:      -6.9      4.249      7.763
REMARK  Name = 
REMARK  8 active torsions:
REMARK  status: ('A' for Active; 'I' for Inactive)
REMARK    1  A    between atoms: C_2  and  C_3
REMARK    2  A    between atoms: C_3  and  C_4
REMARK    3  A    between atoms: C_4  and  N_5
REMARK    4  A    between atoms: N_5  and  C_6
REMARK    5  A    between atoms: C_8  and  C_9
REMARK    6  A    between atoms: C_13  and  S_14
REMARK    7  A    between atoms: C_18  and  O_19
REMARK    8  A    between atoms: O_19  and  C_20
REMARK                            x       y       z     vdW  Elec       q    Type
REMARK                         _______ _______ _______ _____ _____    ______ ____
ROOT
ATOM      1  C   UNL     1       3.636   5.696 -12.951  0.00  0.00    +0.101 A 
ATOM      2  C   UNL     1       3.338   5.831 -11.604  0.00  0.00    +0.178 A 
ATOM      3  C   UNL     1       2.051   5.455 -11.240  0.00  0.00    +0.161 A 
ATOM      4  C   UNL     1       1.136   4.971 -12.166  0.00  0.00    +0.030 A 
ATOM      5  C   UNL     1       1.444   4.969 -13.509  0.00  0.00    +0.083 A 
ATOM      6  C   UNL     1       2.742   5.208 -13.876  0.00  0.00    +0.026 A 
ENDROOT
BRANCH   3   7
ATOM      7  S   UNL     1       1.430   5.921  -9.664  0.00  0.00    +0.096 S 
ATOM      8  O   UNL     1       0.011   5.434  -9.472  0.00  0.00    -0.150 OA
ATOM      9  O   UNL     1       1.403   7.404  -9.492  0.00  0.00    -0.150 OA
ATOM     10  N   UNL     1       2.366   5.173  -8.408  0.00  0.00    +0.039 NA
ENDBRANCH   3   7
BRANCH   5  11
ATOM     11  C   UNL     1       0.359   4.788 -14.482  0.00  0.00    +0.388 C 
ATOM     12  O   UNL     1       0.301   5.750 -15.496  0.00  0.00    -0.241 OA
ATOM     13  O   UNL     1       0.161   3.597 -14.861  0.00  0.00    -0.241 OA
ENDBRANCH   5  11
BRANCH   1  14
ATOM     14  N   UNL     1       4.944   6.064 -13.396  0.00  0.00    -0.234 NA
BRANCH  14  15
ATOM     15  C   UNL     1       5.194   6.459 -14.773  0.00  0.00    +0.112 C 
BRANCH  15  16
ATOM     16  C   UNL     1       6.600   7.022 -14.942  0.00  0.00    +0.023 C 
BRANCH  16  18
ATOM     17  C   UNL     1       7.699   7.598 -17.064  0.00  0.00    +0.000 C 
ATOM     18  C   UNL     1       6.536   7.943 -16.150  0.00  0.00    +0.002 C 
ENDBRANCH  16  18
ENDBRANCH  15  16
ENDBRANCH  14  15
ENDBRANCH   1  14
BRANCH   2  19
ATOM     19  O   UNL     1       3.879   6.932 -10.947  0.00  0.00    -0.451 OA
BRANCH  19  20
ATOM     20  C   UNL     1       5.158   6.980 -10.441  0.00  0.00    +0.145 A 
ATOM     21  C   UNL     1       5.571   5.886  -9.690  0.00  0.00    +0.037 A 
ATOM     22  C   UNL     1       6.884   5.432  -9.730  0.00  0.00    +0.003 A 
ATOM     23  C   UNL     1       7.792   5.988 -10.621  0.00  0.00    +0.000 A 
ATOM     24  C   UNL     1       7.458   7.235 -11.135  0.00  0.00    +0.003 A 
ATOM     25  C   UNL     1       6.176   7.749 -10.976  0.00  0.00    +0.037 A 
ENDBRANCH  19  20
ENDBRANCH   2  19
TORSDOF 8
ENDMDL
MODEL 9
REMARK VINA RESULT:      -6.9      4.056      7.282
REMARK  Name = 
REMARK  8 active torsions:
REMARK  status: ('A' for Active; 'I' for Inactive)
REMARK    1  A    between atoms: C_2  and  C_3
REMARK    2  A    between atoms: C_3  and  C_4
REMARK    3  A    between atoms: C_4  and  N_5
REMARK    4  A    between atoms: N_5  and  C_6
REMARK    5  A    between atoms: C_8  and  C_9
REMARK    6  A    between atoms: C_13  and  S_14
REMARK    7  A    between atoms: C_18  and  O_19
REMARK    8  A    between atoms: O_19  and  C_20
REMARK                            x       y       z     vdW  Elec       q    Type
REMARK                         _______ _______ _______ _____ _____    ______ ____
ROOT
ATOM      1  C   UNL     1       3.503   5.312 -12.194  0.00  0.00    +0.101 A 
ATOM      2  C   UNL     1       3.334   4.953 -10.865  0.00  0.00    +0.178 A 
ATOM      3  C   UNL     1       2.139   5.363 -10.287  0.00  0.00    +0.161 A 
ATOM      4  C   UNL     1       1.182   6.073 -11.000  0.00  0.00    +0.030 A 
ATOM      5  C   UNL     1       1.450   6.506 -12.280  0.00  0.00    +0.083 A 
ATOM      6  C   UNL     1       2.558   6.006 -12.914  0.00  0.00    +0.026 A 
ENDROOT
BRANCH   3   7
ATOM      7  S   UNL     1       1.963   5.307  -8.540  0.00  0.00    +0.096 S 
ATOM      8  O   UNL     1       2.682   6.463  -7.882  0.00  0.00    -0.150 OA
ATOM      9  O   UNL     1       2.537   4.056  -7.961  0.00  0.00    -0.150 OA
ATOM     10  N   UNL     1       0.290   5.475  -8.104  0.00  0.00    +0.039 NA
ENDBRANCH   3   7
BRANCH   5  11
ATOM     11  C   UNL     1       0.586   7.534 -12.875  0.00  0.00    +0.388 C 
ATOM     12  O   UNL     1       0.281   7.347 -14.226  0.00  0.00    -0.241 OA
ATOM     13  O   UNL     1      -0.383   7.913 -12.153  0.00  0.00    -0.241 OA
ENDBRANCH   5  11
BRANCH   1  14
ATOM     14  N   UNL     1       4.710   4.923 -12.853  0.00  0.00    -0.234 NA
BRANCH  14  15
ATOM     15  C   UNL     1       5.242   5.681 -13.974  0.00  0.00    +0.112 C 
BRANCH  15  16
ATOM     16  C   UNL     1       6.760   5.570 -14.048  0.00  0.00    +0.023 C 
BRANCH  16  18
ATOM     17  C   UNL     1       6.237   7.641 -15.264  0.00  0.00    +0.000 C 
ATOM     18  C   UNL     1       7.185   6.456 -15.208  0.00  0.00    +0.002 C 
ENDBRANCH  16  18
ENDBRANCH  15  16
ENDBRANCH  14  15
ENDBRANCH   1  14
BRANCH   2  19
ATOM     19  O   UNL     1       4.466   4.987 -10.056  0.00  0.00    -0.451 OA
BRANCH  19  20
ATOM     20  C   UNL     1       5.306   6.072  -9.944  0.00  0.00    +0.145 A 
ATOM     21  C   UNL     1       6.635   5.801  -9.639  0.00  0.00    +0.037 A 
ATOM     22  C   UNL     1       7.671   6.562 -10.166  0.00  0.00    +0.003 A 
ATOM     23  C   UNL     1       7.410   7.542 -11.115  0.00  0.00    +0.000 A 
ATOM     24  C   UNL     1       6.095   7.988 -11.187  0.00  0.00    +0.003 A 
ATOM     25  C   UNL     1       5.075   7.298 -10.543  0.00  0.00    +0.037 A 
ENDBRANCH  19  20
ENDBRANCH   2  19
TORSDOF 8
ENDMDL
