MODEL 1
REMARK VINA RESULT:      -5.5      0.000      0.000
REMARK  Name = 
REMARK  1 active torsions:
REMARK  status: ('A' for Active; 'I' for Inactive)
REMARK    1  A    between atoms: C_8  and  S_9
REMARK                            x       y       z     vdW  Elec       q    Type
REMARK                         _______ _______ _______ _____ _____    ______ ____
ROOT
ATOM      1  C   UNL     1      -3.481   6.567  -2.454  0.00  0.00    +0.097 C 
ATOM      2  C   UNL     1      -2.681   5.548  -3.181  0.00  0.00    +0.248 C 
ATOM      3  N   UNL     1      -1.270   5.418  -3.052  0.00  0.00    -0.153 NA
ATOM      4  C   UNL     1      -0.386   5.443  -4.180  0.00  0.00    +0.209 A 
ATOM      5  S   UNL     1       1.218   6.055  -4.268  0.00  0.00    -0.009 S 
ATOM      6  C   UNL     1       1.265   6.312  -5.967  0.00  0.00    +0.259 A 
ATOM      7  N   UNL     1      -0.028   6.131  -6.254  0.00  0.00    -0.119 NA
ATOM      8  N   UNL     1      -0.631   5.277  -5.479  0.00  0.00    -0.122 NA
ATOM      9  O   UNL     1      -3.182   5.001  -4.188  0.00  0.00    -0.273 OA
ENDROOT
BRANCH   6  10
ATOM     10  S   UNL     1       2.528   7.071  -6.929  0.00  0.00    +0.118 S 
ATOM     11  O   UNL     1       2.035   8.260  -7.677  0.00  0.00    -0.148 OA
ATOM     12  O   UNL     1       3.569   7.540  -5.941  0.00  0.00    -0.148 OA
ATOM     13  N   UNL     1       3.139   5.903  -8.021  0.00  0.00    +0.041 NA
ENDBRANCH   6  10
TORSDOF 1
ENDMDL
MODEL 2
REMARK VINA RESULT:      -5.4      2.535      5.742
REMARK  Name = 
REMARK  1 active torsions:
REMARK  status: ('A' for Active; 'I' for Inactive)
REMARK    1  A    between atoms: C_8  and  S_9
REMARK                            x       y       z     vdW  Elec       q    Type
REMARK                         _______ _______ _______ _____ _____    ______ ____
ROOT
ATOM      1  C   UNL     1       2.727   7.243  -8.619  0.00  0.00    +0.097 C 
ATOM      2  C   UNL     1       2.076   5.986  -8.168  0.00  0.00    +0.248 C 
ATOM      3  N   UNL     1       0.683   5.875  -7.896  0.00  0.00    -0.153 NA
ATOM      4  C   UNL     1       0.178   5.391  -6.645  0.00  0.00    +0.209 A 
ATOM      5  S   UNL     1      -1.259   5.853  -5.822  0.00  0.00    -0.009 S 
ATOM      6  C   UNL     1      -0.778   5.366  -4.245  0.00  0.00    +0.259 A 
ATOM      7  N   UNL     1       0.517   5.125  -4.473  0.00  0.00    -0.119 NA
ATOM      8  N   UNL     1       0.776   4.700  -5.676  0.00  0.00    -0.122 NA
ATOM      9  O   UNL     1       2.793   5.082  -7.685  0.00  0.00    -0.273 OA
ENDROOT
BRANCH   6  10
ATOM     10  S   UNL     1      -1.618   5.605  -2.717  0.00  0.00    +0.118 S 
ATOM     11  O   UNL     1      -2.872   4.808  -2.629  0.00  0.00    -0.148 OA
ATOM     12  O   UNL     1      -0.674   5.109  -1.648  0.00  0.00    -0.148 OA
ATOM     13  N   UNL     1      -1.971   7.272  -2.560  0.00  0.00    +0.041 NA
ENDBRANCH   6  10
TORSDOF 1
ENDMDL
MODEL 3
REMARK VINA RESULT:      -5.4      4.497      4.663
REMARK  Name = 
REMARK  1 active torsions:
REMARK  status: ('A' for Active; 'I' for Inactive)
REMARK    1  A    between atoms: C_8  and  S_9
REMARK                            x       y       z     vdW  Elec       q    Type
REMARK                         _______ _______ _______ _____ _____    ______ ____
ROOT
ATOM      1  C   UNL     1      -3.438   6.743  -3.109  0.00  0.00    +0.097 C 
ATOM      2  C   UNL     1      -2.756   5.805  -2.181  0.00  0.00    +0.248 C 
ATOM      3  N   UNL     1      -1.947   6.228  -1.089  0.00  0.00    -0.153 NA
ATOM      4  C   UNL     1      -0.596   5.785  -0.913  0.00  0.00    +0.209 A 
ATOM      5  S   UNL     1       0.731   6.645  -0.239  0.00  0.00    -0.009 S 
ATOM      6  C   UNL     1       1.987   5.740  -0.988  0.00  0.00    +0.259 A 
ATOM      7  N   UNL     1       1.260   5.034  -1.860  0.00  0.00    -0.119 NA
ATOM      8  N   UNL     1       0.057   4.754  -1.447  0.00  0.00    -0.122 NA
ATOM      9  O   UNL     1      -2.595   4.618  -2.542  0.00  0.00    -0.273 OA
ENDROOT
BRANCH   6  10
ATOM     10  S   UNL     1       3.722   6.034  -0.958  0.00  0.00    +0.118 S 
ATOM     11  O   UNL     1       4.233   6.275   0.418  0.00  0.00    -0.148 OA
ATOM     12  O   UNL     1       4.360   4.769  -1.479  0.00  0.00    -0.148 OA
ATOM     13  N   UNL     1       4.047   7.390  -1.950  0.00  0.00    +0.041 NA
ENDBRANCH   6  10
TORSDOF 1
ENDMDL
MODEL 4
REMARK VINA RESULT:      -5.4      5.778      9.198
REMARK  Name = 
REMARK  1 active torsions:
REMARK  status: ('A' for Active; 'I' for Inactive)
REMARK    1  A    between atoms: C_8  and  S_9
REMARK                            x       y       z     vdW  Elec       q    Type
REMARK                         _______ _______ _______ _____ _____    ______ ____
ROOT
ATOM      1  C   UNL     1       9.257   5.779 -12.084  0.00  0.00    +0.097 C 
ATOM      2  C   UNL     1       7.857   5.728 -12.579  0.00  0.00    +0.248 C 
ATOM      3  N   UNL     1       6.880   6.718 -12.280  0.00  0.00    -0.153 NA
ATOM      4  C   UNL     1       5.612   6.398 -11.694  0.00  0.00    +0.209 A 
ATOM      5  S   UNL     1       4.673   7.336 -10.601  0.00  0.00    -0.009 S 
ATOM      6  C   UNL     1       3.760   6.044  -9.927  0.00  0.00    +0.259 A 
ATOM      7  N   UNL     1       4.436   5.008 -10.433  0.00  0.00    -0.119 NA
ATOM      8  N   UNL     1       4.966   5.237 -11.600  0.00  0.00    -0.122 NA
ATOM      9  O   UNL     1       7.407   4.634 -12.989  0.00  0.00    -0.273 OA
ENDROOT
BRANCH   6  10
ATOM     10  S   UNL     1       2.617   6.087  -8.590  0.00  0.00    +0.118 S 
ATOM     11  O   UNL     1       1.448   5.193  -8.814  0.00  0.00    -0.148 OA
ATOM     12  O   UNL     1       3.373   5.574  -7.388  0.00  0.00    -0.148 OA
ATOM     13  N   UNL     1       2.090   7.703  -8.393  0.00  0.00    +0.041 NA
ENDBRANCH   6  10
TORSDOF 1
ENDMDL
MODEL 5
REMARK VINA RESULT:      -5.3      2.250      2.625
REMARK  Name = 
REMARK  1 active torsions:
REMARK  status: ('A' for Active; 'I' for Inactive)
REMARK    1  A    between atoms: C_8  and  S_9
REMARK                            x       y       z     vdW  Elec       q    Type
REMARK                         _______ _______ _______ _____ _____    ______ ____
ROOT
ATOM      1  C   UNL     1      -3.595   6.502  -2.452  0.00  0.00    +0.097 C 
ATOM      2  C   UNL     1      -2.626   5.536  -3.030  0.00  0.00    +0.248 C 
ATOM      3  N   UNL     1      -1.406   5.171  -2.396  0.00  0.00    -0.153 NA
ATOM      4  C   UNL     1      -0.134   5.282  -3.049  0.00  0.00    +0.209 A 
ATOM      5  S   UNL     1       1.395   5.649  -2.353  0.00  0.00    -0.009 S 
ATOM      6  C   UNL     1       2.157   6.224  -3.783  0.00  0.00    +0.259 A 
ATOM      7  N   UNL     1       1.091   6.301  -4.586  0.00  0.00    -0.119 NA
ATOM      8  N   UNL     1       0.172   5.413  -4.338  0.00  0.00    -0.122 NA
ATOM      9  O   UNL     1      -2.696   5.279  -4.253  0.00  0.00    -0.273 OA
ENDROOT
BRANCH   6  10
ATOM     10  S   UNL     1       3.747   6.957  -3.962  0.00  0.00    +0.118 S 
ATOM     11  O   UNL     1       4.846   5.959  -3.866  0.00  0.00    -0.148 OA
ATOM     12  O   UNL     1       3.772   7.547  -5.352  0.00  0.00    -0.148 OA
ATOM     13  N   UNL     1       3.924   8.145  -2.742  0.00  0.00    +0.041 NA
ENDBRANCH   6  10
TORSDOF 1
ENDMDL
MODEL 6
REMARK VINA RESULT:      -5.3      2.426      5.810
REMARK  Name = 
REMARK  1 active torsions:
REMARK  status: ('A' for Active; 'I' for Inactive)
REMARK    1  A    between atoms: C_8  and  S_9
REMARK                            x       y       z     vdW  Elec       q    Type
REMARK                         _______ _______ _______ _____ _____    ______ ____
ROOT
ATOM      1  C   UNL     1       4.965   7.593  -4.508  0.00  0.00    +0.097 C 
ATOM      2  C   UNL     1       4.078   6.562  -5.106  0.00  0.00    +0.248 C 
ATOM      3  N   UNL     1       2.824   6.858  -5.710  0.00  0.00    -0.153 NA
ATOM      4  C   UNL     1       1.606   6.218  -5.311  0.00  0.00    +0.209 A 
ATOM      5  S   UNL     1       0.015   6.869  -5.286  0.00  0.00    -0.009 S 
ATOM      6  C   UNL     1      -0.650   5.788  -4.126  0.00  0.00    +0.259 A 
ATOM      7  N   UNL     1       0.473   5.200  -3.703  0.00  0.00    -0.119 NA
ATOM      8  N   UNL     1       1.399   5.102  -4.613  0.00  0.00    -0.122 NA
ATOM      9  O   UNL     1       4.254   5.365  -4.787  0.00  0.00    -0.273 OA
ENDROOT
BRANCH   6  10
ATOM     10  S   UNL     1      -2.244   5.820  -3.382  0.00  0.00    +0.118 S 
ATOM     11  O   UNL     1      -2.746   7.205  -3.175  0.00  0.00    -0.148 OA
ATOM     12  O   UNL     1      -3.166   5.130  -4.359  0.00  0.00    -0.148 OA
ATOM     13  N   UNL     1      -2.146   5.001  -1.882  0.00  0.00    +0.041 NA
ENDBRANCH   6  10
TORSDOF 1
ENDMDL
MODEL 7
REMARK VINA RESULT:      -5.3      3.219      5.953
REMARK  Name = 
REMARK  1 active torsions:
REMARK  status: ('A' for Active; 'I' for Inactive)
REMARK    1  A    between atoms: C_8  and  S_9
REMARK                            x       y       z     vdW  Elec       q    Type
REMARK                         _______ _______ _______ _____ _____    ______ ____
ROOT
ATOM      1  C   UNL     1       5.085   7.653  -4.146  0.00  0.00    +0.097 C 
ATOM      2  C   UNL     1       4.422   6.432  -3.619  0.00  0.00    +0.248 C 
ATOM      3  N   UNL     1       3.442   5.695  -4.342  0.00  0.00    -0.153 NA
ATOM      4  C   UNL     1       2.147   5.401  -3.804  0.00  0.00    +0.209 A 
ATOM      5  S   UNL     1       0.650   5.259  -4.638  0.00  0.00    -0.009 S 
ATOM      6  C   UNL     1      -0.382   5.570  -3.299  0.00  0.00    +0.259 A 
ATOM      7  N   UNL     1       0.528   5.986  -2.411  0.00  0.00    -0.119 NA
ATOM      8  N   UNL     1       1.698   5.434  -2.550  0.00  0.00    -0.122 NA
ATOM      9  O   UNL     1       4.457   6.218  -2.387  0.00  0.00    -0.273 OA
ENDROOT
BRANCH   6  10
ATOM     10  S   UNL     1      -2.131   5.762  -3.280  0.00  0.00    +0.118 S 
ATOM     11  O   UNL     1      -2.739   5.548  -4.622  0.00  0.00    -0.148 OA
ATOM     12  O   UNL     1      -2.651   4.687  -2.355  0.00  0.00    -0.148 OA
ATOM     13  N   UNL     1      -2.487   7.339  -2.719  0.00  0.00    +0.041 NA
ENDBRANCH   6  10
TORSDOF 1
ENDMDL
MODEL 8
REMARK VINA RESULT:      -5.3      5.272      7.056
REMARK  Name = 
REMARK  1 active torsions:
REMARK  status: ('A' for Active; 'I' for Inactive)
REMARK    1  A    between atoms: C_8  and  S_9
REMARK                            x       y       z     vdW  Elec       q    Type
REMARK                         _______ _______ _______ _____ _____    ______ ____
ROOT
ATOM      1  C   UNL     1       2.765   7.222  -6.261  0.00  0.00    +0.097 C 
ATOM      2  C   UNL     1       3.257   5.939  -6.826  0.00  0.00    +0.248 C 
ATOM      3  N   UNL     1       4.599   5.729  -7.249  0.00  0.00    -0.153 NA
ATOM      4  C   UNL     1       4.929   5.264  -8.564  0.00  0.00    +0.209 A 
ATOM      5  S   UNL     1       6.307   5.647  -9.518  0.00  0.00    -0.009 S 
ATOM      6  C   UNL     1       5.626   5.274 -11.053  0.00  0.00    +0.259 A 
ATOM      7  N   UNL     1       4.346   5.128 -10.696  0.00  0.00    -0.119 NA
ATOM      8  N   UNL     1       4.178   4.669  -9.489  0.00  0.00    -0.122 NA
ATOM      9  O   UNL     1       2.419   5.119  -7.263  0.00  0.00    -0.273 OA
ENDROOT
BRANCH   6  10
ATOM     10  S   UNL     1       6.321   5.514 -12.651  0.00  0.00    +0.118 S 
ATOM     11  O   UNL     1       7.617   4.801 -12.820  0.00  0.00    -0.148 OA
ATOM     12  O   UNL     1       5.331   4.918 -13.622  0.00  0.00    -0.148 OA
ATOM     13  N   UNL     1       6.541   7.195 -12.887  0.00  0.00    +0.041 NA
ENDBRANCH   6  10
TORSDOF 1
ENDMDL
MODEL 9
REMARK VINA RESULT:      -5.2      7.036      7.994
REMARK  Name = 
REMARK  1 active torsions:
REMARK  status: ('A' for Active; 'I' for Inactive)
REMARK    1  A    between atoms: C_8  and  S_9
REMARK                            x       y       z     vdW  Elec       q    Type
REMARK                         _______ _______ _______ _____ _____    ______ ____
ROOT
ATOM      1  C   UNL     1       0.002   4.400 -10.818  0.00  0.00    +0.097 C 
ATOM      2  C   UNL     1       0.788   5.599 -11.205  0.00  0.00    +0.248 C 
ATOM      3  N   UNL     1       1.722   5.616 -12.278  0.00  0.00    -0.153 NA
ATOM      4  C   UNL     1       3.084   6.029 -12.110  0.00  0.00    +0.209 A 
ATOM      5  S   UNL     1       4.484   5.453 -12.925  0.00  0.00    -0.009 S 
ATOM      6  C   UNL     1       5.639   5.921 -11.740  0.00  0.00    +0.259 A 
ATOM      7  N   UNL     1       4.812   6.248 -10.743  0.00  0.00    -0.119 NA
ATOM      8  N   UNL     1       3.666   6.726 -11.136  0.00  0.00    -0.122 NA
ATOM      9  O   UNL     1       0.902   6.532 -10.378  0.00  0.00    -0.273 OA
ENDROOT
BRANCH   6  10
ATOM     10  S   UNL     1       7.366   5.584 -11.696  0.00  0.00    +0.118 S 
ATOM     11  O   UNL     1       7.740   4.428 -12.555  0.00  0.00    -0.148 OA
ATOM     12  O   UNL     1       8.038   6.816 -12.253  0.00  0.00    -0.148 OA
ATOM     13  N   UNL     1       7.805   5.274 -10.071  0.00  0.00    +0.041 NA
ENDBRANCH   6  10
TORSDOF 1
ENDMDL
