MODEL 1
REMARK VINA RESULT:      -7.1      0.000      0.000
REMARK  Name = 
REMARK  9 active torsions:
REMARK  status: ('A' for Active; 'I' for Inactive)
REMARK    1  A    between atoms: C_2  and  C_4
REMARK    2  A    between atoms: C_4  and  C_6
REMARK    3  A    between atoms: C_6  and  O_8
REMARK    4  A    between atoms: O_8  and  C_9
REMARK    5  A    between atoms: C_9  and  C_10
REMARK    6  A    between atoms: C_10  and  C_11
REMARK    7  A    between atoms: C_10  and  O_13
REMARK    8  A    between atoms: O_13  and  C_14
REMARK    9  A    between atoms: C_14  and  N_15
REMARK                            x       y       z     vdW  Elec       q    Type
REMARK                         _______ _______ _______ _____ _____    ______ ____
ROOT
ATOM      1  O   UNL     1       3.382   6.036  -3.051  0.00  0.00    -0.328 OA
ENDROOT
BRANCH   1   2
ATOM      2  C   UNL     1       2.420   5.165  -3.234  0.00  0.00    +0.258 C 
BRANCH   2   3
ATOM      3  N   UNL     1       1.090   5.413  -2.832  0.00  0.00    -0.268 N 
ATOM      4  C   UNL     1       0.058   5.617  -3.652  0.00  0.00    +0.172 A 
ATOM      5  N   UNL     1       0.044   5.737  -4.990  0.00  0.00    -0.192 NA
ATOM      6  C   UNL     1      -1.090   5.572  -5.695  0.00  0.00    +0.261 A 
ATOM      7  N   UNL     1      -2.234   5.680  -5.007  0.00  0.00    -0.171 NA
ATOM      8  C   UNL     1      -2.314   5.556  -3.673  0.00  0.00    +0.302 A 
ATOM      9  O   UNL     1      -3.327   5.053  -3.100  0.00  0.00    -0.263 OA
ATOM     10  N   UNL     1      -1.054   5.374  -7.105  0.00  0.00    -0.086 NA
ATOM     11  C   UNL     1      -1.130   5.477  -2.972  0.00  0.00    +0.175 A 
ATOM     12  N   UNL     1      -0.763   5.070  -1.742  0.00  0.00    -0.217 NA
ATOM     13  C   UNL     1       0.562   4.968  -1.665  0.00  0.00    +0.182 A 
ENDBRANCH   2   3
ENDBRANCH   1   2
BRANCH   1  14
ATOM     14  C   UNL     1       3.221   7.289  -3.889  0.00  0.00    +0.194 C 
BRANCH  14  15
ATOM     15  C   UNL     1       4.757   7.826  -3.642  0.00  0.00    +0.215 C 
ATOM     16  O   UNL     1       5.194   7.453  -2.424  0.00  0.00    -0.218 OA
ENDBRANCH  14  15
BRANCH  14  17
ATOM     17  C   UNL     1       3.598   6.484  -5.285  0.00  0.00    +0.241 C 
BRANCH  17  18
ATOM     18  O   UNL     1       3.437   7.478  -6.302  0.00  0.00    -0.445 OA
BRANCH  18  19
ATOM     19  C   UNL     1       2.471   7.346  -7.227  0.00  0.00    +0.335 C 
ATOM     20  O   UNL     1       1.948   8.327  -7.839  0.00  0.00    -0.248 OA
BRANCH  19  21
ATOM     21  C   UNL     1       2.438   6.059  -8.195  0.00  0.00    +0.190 C 
ATOM     22  N   UNL     1       1.493   6.759  -9.250  0.00  0.00    -0.121 NA
BRANCH  21  24
ATOM     23  C   UNL     1       3.667   6.213  -9.839  0.00  0.00    +0.002 C 
ATOM     24  C   UNL     1       3.795   6.494  -9.021  0.00  0.00    +0.029 C 
ATOM     25  C   UNL     1       4.832   5.422  -8.697  0.00  0.00    +0.002 C 
ENDBRANCH  21  24
ENDBRANCH  19  21
ENDBRANCH  18  19
ENDBRANCH  17  18
ENDBRANCH  14  17
ENDBRANCH   1  14
TORSDOF 9
ENDMDL
MODEL 2
REMARK VINA RESULT:      -7.0      2.383      4.035
REMARK  Name = 
REMARK  9 active torsions:
REMARK  status: ('A' for Active; 'I' for Inactive)
REMARK    1  A    between atoms: C_2  and  C_4
REMARK    2  A    between atoms: C_4  and  C_6
REMARK    3  A    between atoms: C_6  and  O_8
REMARK    4  A    between atoms: O_8  and  C_9
REMARK    5  A    between atoms: C_9  and  C_10
REMARK    6  A    between atoms: C_10  and  C_11
REMARK    7  A    between atoms: C_10  and  O_13
REMARK    8  A    between atoms: O_13  and  C_14
REMARK    9  A    between atoms: C_14  and  N_15
REMARK                            x       y       z     vdW  Elec       q    Type
REMARK                         _______ _______ _______ _____ _____    ______ ____
ROOT
ATOM      1  O   UNL     1       1.603   5.224  -7.181  0.00  0.00    -0.328 OA
ENDROOT
BRANCH   1   2
ATOM      2  C   UNL     1       0.891   5.709  -6.194  0.00  0.00    +0.258 C 
BRANCH   2   3
ATOM      3  N   UNL     1       1.389   5.796  -4.875  0.00  0.00    -0.268 N 
ATOM      4  C   UNL     1       0.654   5.733  -3.764  0.00  0.00    +0.172 A 
ATOM      5  N   UNL     1      -0.682   5.681  -3.627  0.00  0.00    -0.192 NA
ATOM      6  C   UNL     1      -1.252   5.254  -2.486  0.00  0.00    +0.261 A 
ATOM      7  N   UNL     1      -0.474   5.269  -1.397  0.00  0.00    -0.171 NA
ATOM      8  C   UNL     1       0.867   5.303  -1.440  0.00  0.00    +0.302 A 
ATOM      9  O   UNL     1       1.587   4.725  -0.571  0.00  0.00    -0.263 OA
ATOM     10  N   UNL     1      -2.628   4.889  -2.447  0.00  0.00    -0.086 NA
ATOM     11  C   UNL     1       1.456   5.497  -2.671  0.00  0.00    +0.175 A 
ATOM     12  N   UNL     1       2.683   5.309  -3.194  0.00  0.00    -0.217 NA
ATOM     13  C   UNL     1       2.643   5.425  -4.519  0.00  0.00    +0.182 A 
ENDBRANCH   2   3
ENDBRANCH   1   2
BRANCH   1  14
ATOM     14  C   UNL     1       1.629   6.126  -8.399  0.00  0.00    +0.194 C 
BRANCH  14  15
ATOM     15  C   UNL     1       2.606   7.262  -7.717  0.00  0.00    +0.215 C 
ATOM     16  O   UNL     1       2.074   8.490  -7.871  0.00  0.00    -0.218 OA
ENDBRANCH  14  15
BRANCH  14  17
ATOM     17  C   UNL     1       2.881   5.285  -9.078  0.00  0.00    +0.241 C 
BRANCH  17  18
ATOM     18  O   UNL     1       3.965   6.219  -9.061  0.00  0.00    -0.445 OA
BRANCH  18  19
ATOM     19  C   UNL     1       5.223   5.797  -9.274  0.00  0.00    +0.335 C 
ATOM     20  O   UNL     1       5.794   4.912  -8.566  0.00  0.00    -0.248 OA
BRANCH  19  21
ATOM     21  C   UNL     1       5.817   5.721 -10.769  0.00  0.00    +0.190 C 
ATOM     22  N   UNL     1       5.246   7.139 -11.169  0.00  0.00    -0.121 NA
BRANCH  21  24
ATOM     23  C   UNL     1       7.282   7.163 -10.675  0.00  0.00    +0.002 C 
ATOM     24  C   UNL     1       7.280   6.351 -10.352  0.00  0.00    +0.029 C 
ATOM     25  C   UNL     1       8.265   5.818 -11.388  0.00  0.00    +0.002 C 
ENDBRANCH  21  24
ENDBRANCH  19  21
ENDBRANCH  18  19
ENDBRANCH  17  18
ENDBRANCH  14  17
ENDBRANCH   1  14
TORSDOF 9
ENDMDL
MODEL 3
REMARK VINA RESULT:      -6.9      2.156      3.224
REMARK  Name = 
REMARK  9 active torsions:
REMARK  status: ('A' for Active; 'I' for Inactive)
REMARK    1  A    between atoms: C_2  and  C_4
REMARK    2  A    between atoms: C_4  and  C_6
REMARK    3  A    between atoms: C_6  and  O_8
REMARK    4  A    between atoms: O_8  and  C_9
REMARK    5  A    between atoms: C_9  and  C_10
REMARK    6  A    between atoms: C_10  and  C_11
REMARK    7  A    between atoms: C_10  and  O_13
REMARK    8  A    between atoms: O_13  and  C_14
REMARK    9  A    between atoms: C_14  and  N_15
REMARK                            x       y       z     vdW  Elec       q    Type
REMARK                         _______ _______ _______ _____ _____    ______ ____
ROOT
ATOM      1  O   UNL     1       2.097   6.738  -6.202  0.00  0.00    -0.328 OA
ENDROOT
BRANCH   1   2
ATOM      2  C   UNL     1       2.253   6.006  -5.126  0.00  0.00    +0.258 C 
BRANCH   2   3
ATOM      3  N   UNL     1       1.323   6.015  -4.064  0.00  0.00    -0.268 N 
ATOM      4  C   UNL     1      -0.004   6.020  -4.197  0.00  0.00    +0.172 A 
ATOM      5  N   UNL     1      -0.749   6.119  -5.310  0.00  0.00    -0.192 NA
ATOM      6  C   UNL     1      -2.040   5.744  -5.324  0.00  0.00    +0.261 A 
ATOM      7  N   UNL     1      -2.640   5.653  -4.130  0.00  0.00    -0.171 NA
ATOM      8  C   UNL     1      -1.977   5.533  -2.970  0.00  0.00    +0.302 A 
ATOM      9  O   UNL     1      -2.433   4.864  -1.995  0.00  0.00    -0.263 OA
ATOM     10  N   UNL     1      -2.731   5.538  -6.552  0.00  0.00    -0.086 NA
ATOM     11  C   UNL     1      -0.606   5.677  -3.008  0.00  0.00    +0.175 A 
ATOM     12  N   UNL     1       0.420   5.358  -2.196  0.00  0.00    -0.217 NA
ATOM     13  C   UNL     1       1.578   5.497  -2.838  0.00  0.00    +0.182 A 
ENDBRANCH   2   3
ENDBRANCH   1   2
BRANCH   1  14
ATOM     14  C   UNL     1       2.112   5.927  -7.483  0.00  0.00    +0.194 C 
BRANCH  14  15
ATOM     15  C   UNL     1       2.143   7.236  -8.481  0.00  0.00    +0.215 C 
ATOM     16  O   UNL     1       2.075   8.374  -7.764  0.00  0.00    -0.218 OA
ENDBRANCH  14  15
BRANCH  14  17
ATOM     17  C   UNL     1       3.758   5.768  -7.442  0.00  0.00    +0.241 C 
BRANCH  17  18
ATOM     18  O   UNL     1       4.154   6.004  -8.797  0.00  0.00    -0.445 OA
BRANCH  18  19
ATOM     19  C   UNL     1       5.416   5.756  -9.184  0.00  0.00    +0.335 C 
ATOM     20  O   UNL     1       6.166   4.900  -8.621  0.00  0.00    -0.248 OA
BRANCH  19  21
ATOM     21  C   UNL     1       5.830   5.858 -10.738  0.00  0.00    +0.190 C 
ATOM     22  N   UNL     1       5.088   7.239 -10.941  0.00  0.00    -0.121 NA
BRANCH  21  24
ATOM     23  C   UNL     1       7.208   7.386 -10.808  0.00  0.00    +0.002 C 
ATOM     24  C   UNL     1       7.269   6.598 -10.432  0.00  0.00    +0.029 C 
ATOM     25  C   UNL     1       8.239   6.053 -11.477  0.00  0.00    +0.002 C 
ENDBRANCH  21  24
ENDBRANCH  19  21
ENDBRANCH  18  19
ENDBRANCH  17  18
ENDBRANCH  14  17
ENDBRANCH   1  14
TORSDOF 9
ENDMDL
MODEL 4
REMARK VINA RESULT:      -6.9      2.238      3.194
REMARK  Name = 
REMARK  9 active torsions:
REMARK  status: ('A' for Active; 'I' for Inactive)
REMARK    1  A    between atoms: C_2  and  C_4
REMARK    2  A    between atoms: C_4  and  C_6
REMARK    3  A    between atoms: C_6  and  O_8
REMARK    4  A    between atoms: O_8  and  C_9
REMARK    5  A    between atoms: C_9  and  C_10
REMARK    6  A    between atoms: C_10  and  C_11
REMARK    7  A    between atoms: C_10  and  O_13
REMARK    8  A    between atoms: O_13  and  C_14
REMARK    9  A    between atoms: C_14  and  N_15
REMARK                            x       y       z     vdW  Elec       q    Type
REMARK                         _______ _______ _______ _____ _____    ______ ____
ROOT
ATOM      1  O   UNL     1       2.302   5.385  -5.924  0.00  0.00    -0.328 OA
ENDROOT
BRANCH   1   2
ATOM      2  C   UNL     1       2.177   6.279  -4.974  0.00  0.00    +0.258 C 
BRANCH   2   3
ATOM      3  N   UNL     1       1.226   6.152  -3.938  0.00  0.00    -0.268 N 
ATOM      4  C   UNL     1      -0.098   6.173  -4.094  0.00  0.00    +0.172 A 
ATOM      5  N   UNL     1      -0.822   6.413  -5.200  0.00  0.00    -0.192 NA
ATOM      6  C   UNL     1      -2.112   6.041  -5.286  0.00  0.00    +0.261 A 
ATOM      7  N   UNL     1      -2.734   5.799  -4.125  0.00  0.00    -0.171 NA
ATOM      8  C   UNL     1      -2.091   5.532  -2.977  0.00  0.00    +0.302 A 
ATOM      9  O   UNL     1      -2.564   4.744  -2.104  0.00  0.00    -0.263 OA
ATOM     10  N   UNL     1      -2.779   5.993  -6.543  0.00  0.00    -0.086 NA
ATOM     11  C   UNL     1      -0.721   5.681  -2.970  0.00  0.00    +0.175 A 
ATOM     12  N   UNL     1       0.291   5.262  -2.186  0.00  0.00    -0.217 NA
ATOM     13  C   UNL     1       1.460   5.482  -2.782  0.00  0.00    +0.182 A 
ENDBRANCH   2   3
ENDBRANCH   1   2
BRANCH   1  14
ATOM     14  C   UNL     1       1.834   5.880  -7.278  0.00  0.00    +0.194 C 
BRANCH  14  15
ATOM     15  C   UNL     1       2.737   7.256  -7.248  0.00  0.00    +0.215 C 
ATOM     16  O   UNL     1       2.112   8.241  -7.922  0.00  0.00    -0.218 OA
ENDBRANCH  14  15
BRANCH  14  17
ATOM     17  C   UNL     1       2.985   4.998  -8.073  0.00  0.00    +0.241 C 
BRANCH  17  18
ATOM     18  O   UNL     1       2.355   4.659  -9.312  0.00  0.00    -0.445 OA
BRANCH  18  19
ATOM     19  C   UNL     1       2.279   5.565 -10.301  0.00  0.00    +0.335 C 
ATOM     20  O   UNL     1       3.288   6.175 -10.771  0.00  0.00    -0.248 OA
BRANCH  19  21
ATOM     21  C   UNL     1       1.182   5.409 -11.471  0.00  0.00    +0.190 C 
ATOM     22  N   UNL     1       0.212   4.542 -10.574  0.00  0.00    -0.121 NA
BRANCH  21  24
ATOM     23  C   UNL     1      -0.431   6.570 -10.937  0.00  0.00    +0.002 C 
ATOM     24  C   UNL     1       0.397   6.805 -11.089  0.00  0.00    +0.029 C 
ATOM     25  C   UNL     1       0.079   7.473 -12.424  0.00  0.00    +0.002 C 
ENDBRANCH  21  24
ENDBRANCH  19  21
ENDBRANCH  18  19
ENDBRANCH  17  18
ENDBRANCH  14  17
ENDBRANCH   1  14
TORSDOF 9
ENDMDL
MODEL 5
REMARK VINA RESULT:      -6.9      1.593      1.917
REMARK  Name = 
REMARK  9 active torsions:
REMARK  status: ('A' for Active; 'I' for Inactive)
REMARK    1  A    between atoms: C_2  and  C_4
REMARK    2  A    between atoms: C_4  and  C_6
REMARK    3  A    between atoms: C_6  and  O_8
REMARK    4  A    between atoms: O_8  and  C_9
REMARK    5  A    between atoms: C_9  and  C_10
REMARK    6  A    between atoms: C_10  and  C_11
REMARK    7  A    between atoms: C_10  and  O_13
REMARK    8  A    between atoms: O_13  and  C_14
REMARK    9  A    between atoms: C_14  and  N_15
REMARK                            x       y       z     vdW  Elec       q    Type
REMARK                         _______ _______ _______ _____ _____    ______ ____
ROOT
ATOM      1  O   UNL     1       2.853   5.689  -4.776  0.00  0.00    -0.328 OA
ENDROOT
BRANCH   1   2
ATOM      2  C   UNL     1       2.660   5.752  -3.482  0.00  0.00    +0.258 C 
BRANCH   2   3
ATOM      3  N   UNL     1       1.369   5.766  -2.910  0.00  0.00    -0.268 N 
ATOM      4  C   UNL     1       0.222   5.824  -3.587  0.00  0.00    +0.172 A 
ATOM      5  N   UNL     1       0.018   5.983  -4.905  0.00  0.00    -0.192 NA
ATOM      6  C   UNL     1      -1.155   5.657  -5.476  0.00  0.00    +0.261 A 
ATOM      7  N   UNL     1      -2.204   5.555  -4.650  0.00  0.00    -0.171 NA
ATOM      8  C   UNL     1      -2.094   5.376  -3.325  0.00  0.00    +0.302 A 
ATOM      9  O   UNL     1      -2.933   4.697  -2.661  0.00  0.00    -0.263 OA
ATOM     10  N   UNL     1      -1.268   5.513  -6.889  0.00  0.00    -0.086 NA
ATOM     11  C   UNL     1      -0.832   5.470  -2.777  0.00  0.00    +0.175 A 
ATOM     12  N   UNL     1      -0.251   5.089  -1.623  0.00  0.00    -0.217 NA
ATOM     13  C   UNL     1       1.072   5.203  -1.712  0.00  0.00    +0.182 A 
ENDBRANCH   2   3
ENDBRANCH   1   2
BRANCH   1  14
ATOM     14  C   UNL     1       3.321   7.000  -5.375  0.00  0.00    +0.194 C 
BRANCH  14  15
ATOM     15  C   UNL     1       4.857   6.884  -4.797  0.00  0.00    +0.215 C 
ATOM     16  O   UNL     1       5.268   8.074  -4.317  0.00  0.00    -0.218 OA
ENDBRANCH  14  15
BRANCH  14  17
ATOM     17  C   UNL     1       3.683   6.286  -6.823  0.00  0.00    +0.241 C 
BRANCH  17  18
ATOM     18  O   UNL     1       2.402   5.951  -7.365  0.00  0.00    -0.445 OA
BRANCH  18  19
ATOM     19  C   UNL     1       1.878   6.684  -8.362  0.00  0.00    +0.335 C 
ATOM     20  O   UNL     1       1.896   7.952  -8.383  0.00  0.00    -0.248 OA
BRANCH  19  21
ATOM     21  C   UNL     1       1.916   6.144  -9.879  0.00  0.00    +0.190 C 
ATOM     22  N   UNL     1       2.015   4.630  -9.437  0.00  0.00    -0.121 NA
BRANCH  21  24
ATOM     23  C   UNL     1       0.122   5.359 -10.512  0.00  0.00    +0.002 C 
ATOM     24  C   UNL     1       0.277   6.066 -10.022  0.00  0.00    +0.029 C 
ATOM     25  C   UNL     1      -0.083   7.051 -11.131  0.00  0.00    +0.002 C 
ENDBRANCH  21  24
ENDBRANCH  19  21
ENDBRANCH  18  19
ENDBRANCH  17  18
ENDBRANCH  14  17
ENDBRANCH   1  14
TORSDOF 9
ENDMDL
MODEL 6
REMARK VINA RESULT:      -6.8      3.161      4.886
REMARK  Name = 
REMARK  9 active torsions:
REMARK  status: ('A' for Active; 'I' for Inactive)
REMARK    1  A    between atoms: C_2  and  C_4
REMARK    2  A    between atoms: C_4  and  C_6
REMARK    3  A    between atoms: C_6  and  O_8
REMARK    4  A    between atoms: O_8  and  C_9
REMARK    5  A    between atoms: C_9  and  C_10
REMARK    6  A    between atoms: C_10  and  C_11
REMARK    7  A    between atoms: C_10  and  O_13
REMARK    8  A    between atoms: O_13  and  C_14
REMARK    9  A    between atoms: C_14  and  N_15
REMARK                            x       y       z     vdW  Elec       q    Type
REMARK                         _______ _______ _______ _____ _____    ______ ____
ROOT
ATOM      1  O   UNL     1       2.669   6.280  -8.728  0.00  0.00    -0.328 OA
ENDROOT
BRANCH   1   2
ATOM      2  C   UNL     1       2.711   7.311  -7.920  0.00  0.00    +0.258 C 
BRANCH   2   3
ATOM      3  N   UNL     1       2.504   7.190  -6.528  0.00  0.00    -0.268 N 
ATOM      4  C   UNL     1       1.379   6.773  -5.946  0.00  0.00    +0.172 A 
ATOM      5  N   UNL     1       0.191   6.480  -6.499  0.00  0.00    -0.192 NA
ATOM      6  C   UNL     1      -0.719   5.732  -5.849  0.00  0.00    +0.261 A 
ATOM      7  N   UNL     1      -0.563   5.636  -4.522  0.00  0.00    -0.171 NA
ATOM      8  C   UNL     1       0.592   5.891  -3.888  0.00  0.00    +0.302 A 
ATOM      9  O   UNL     1       0.945   5.262  -2.846  0.00  0.00    -0.263 OA
ATOM     10  N   UNL     1      -1.821   5.153  -6.540  0.00  0.00    -0.086 NA
ATOM     11  C   UNL     1       1.616   6.437  -4.633  0.00  0.00    +0.175 A 
ATOM     12  N   UNL     1       2.949   6.565  -4.491  0.00  0.00    -0.217 NA
ATOM     13  C   UNL     1       3.500   6.955  -5.639  0.00  0.00    +0.182 A 
ENDBRANCH   2   3
ENDBRANCH   1   2
BRANCH   1  14
ATOM     14  C   UNL     1       4.010   5.958  -9.356  0.00  0.00    +0.194 C 
BRANCH  14  15
ATOM     15  C   UNL     1       3.971   4.359  -8.969  0.00  0.00    +0.215 C 
ATOM     16  O   UNL     1       2.697   3.933  -8.866  0.00  0.00    -0.218 OA
ENDBRANCH  14  15
BRANCH  14  17
ATOM     17  C   UNL     1       3.333   5.737 -10.849  0.00  0.00    +0.241 C 
BRANCH  17  18
ATOM     18  O   UNL     1       4.202   6.461 -11.725  0.00  0.00    -0.445 OA
BRANCH  18  19
ATOM     19  C   UNL     1       5.318   5.881 -12.200  0.00  0.00    +0.335 C 
ATOM     20  O   UNL     1       5.309   4.878 -12.978  0.00  0.00    -0.248 OA
BRANCH  19  21
ATOM     21  C   UNL     1       6.627   6.765 -12.515  0.00  0.00    +0.190 C 
ATOM     22  N   UNL     1       6.229   7.893 -11.483  0.00  0.00    -0.121 NA
BRANCH  21  24
ATOM     23  C   UNL     1       7.831   6.610 -10.853  0.00  0.00    +0.002 C 
ATOM     24  C   UNL     1       7.567   5.988 -11.408  0.00  0.00    +0.029 C 
ATOM     25  C   UNL     1       8.936   5.839 -12.067  0.00  0.00    +0.002 C 
ENDBRANCH  21  24
ENDBRANCH  19  21
ENDBRANCH  18  19
ENDBRANCH  17  18
ENDBRANCH  14  17
ENDBRANCH   1  14
TORSDOF 9
ENDMDL
MODEL 7
REMARK VINA RESULT:      -6.8      2.383      5.682
REMARK  Name = 
REMARK  9 active torsions:
REMARK  status: ('A' for Active; 'I' for Inactive)
REMARK    1  A    between atoms: C_2  and  C_4
REMARK    2  A    between atoms: C_4  and  C_6
REMARK    3  A    between atoms: C_6  and  O_8
REMARK    4  A    between atoms: O_8  and  C_9
REMARK    5  A    between atoms: C_9  and  C_10
REMARK    6  A    between atoms: C_10  and  C_11
REMARK    7  A    between atoms: C_10  and  O_13
REMARK    8  A    between atoms: O_13  and  C_14
REMARK    9  A    between atoms: C_14  and  N_15
REMARK                            x       y       z     vdW  Elec       q    Type
REMARK                         _______ _______ _______ _____ _____    ______ ____
ROOT
ATOM      1  O   UNL     1       3.035   5.962  -5.985  0.00  0.00    -0.328 OA
ENDROOT
BRANCH   1   2
ATOM      2  C   UNL     1       2.904   7.091  -5.334  0.00  0.00    +0.258 C 
BRANCH   2   3
ATOM      3  N   UNL     1       3.416   7.276  -4.031  0.00  0.00    -0.268 N 
ATOM      4  C   UNL     1       2.854   6.830  -2.907  0.00  0.00    +0.172 A 
ATOM      5  N   UNL     1       1.671   6.218  -2.731  0.00  0.00    -0.192 NA
ATOM      6  C   UNL     1       1.410   5.508  -1.619  0.00  0.00    +0.261 A 
ATOM      7  N   UNL     1       2.190   5.762  -0.560  0.00  0.00    -0.171 NA
ATOM      8  C   UNL     1       3.392   6.352  -0.646  0.00  0.00    +0.302 A 
ATOM      9  O   UNL     1       4.346   6.061   0.136  0.00  0.00    -0.263 OA
ATOM     10  N   UNL     1       0.311   4.603  -1.568  0.00  0.00    -0.086 NA
ATOM     11  C   UNL     1       3.759   6.866  -1.872  0.00  0.00    +0.175 A 
ATOM     12  N   UNL     1       4.914   7.245  -2.452  0.00  0.00    -0.217 NA
ATOM     13  C   UNL     1       4.734   7.433  -3.758  0.00  0.00    +0.182 A 
ENDBRANCH   2   3
ENDBRANCH   1   2
BRANCH   1  14
ATOM     14  C   UNL     1       1.959   5.746  -7.031  0.00  0.00    +0.194 C 
BRANCH  14  15
ATOM     15  C   UNL     1       2.486   4.251  -7.474  0.00  0.00    +0.215 C 
ATOM     16  O   UNL     1       2.130   3.337  -6.552  0.00  0.00    -0.218 OA
ENDBRANCH  14  15
BRANCH  14  17
ATOM     17  C   UNL     1       0.890   5.169  -5.908  0.00  0.00    +0.241 C 
BRANCH  17  18
ATOM     18  O   UNL     1      -0.328   5.854  -6.218  0.00  0.00    -0.445 OA
BRANCH  18  19
ATOM     19  C   UNL     1      -0.915   6.636  -5.296  0.00  0.00    +0.335 C 
ATOM     20  O   UNL     1      -0.511   7.804  -5.009  0.00  0.00    -0.248 OA
BRANCH  19  21
ATOM     21  C   UNL     1      -2.508   6.572  -5.066  0.00  0.00    +0.190 C 
ATOM     22  N   UNL     1      -2.683   5.293  -5.978  0.00  0.00    -0.121 NA
BRANCH  21  24
ATOM     23  C   UNL     1      -3.127   5.182  -3.679  0.00  0.00    +0.002 C 
ATOM     24  C   UNL     1      -2.396   5.663  -3.697  0.00  0.00    +0.029 C 
ATOM     25  C   UNL     1      -2.839   6.580  -2.561  0.00  0.00    +0.002 C 
ENDBRANCH  21  24
ENDBRANCH  19  21
ENDBRANCH  18  19
ENDBRANCH  17  18
ENDBRANCH  14  17
ENDBRANCH   1  14
TORSDOF 9
ENDMDL
MODEL 8
REMARK VINA RESULT:      -6.7      3.279      7.825
REMARK  Name = 
REMARK  9 active torsions:
REMARK  status: ('A' for Active; 'I' for Inactive)
REMARK    1  A    between atoms: C_2  and  C_4
REMARK    2  A    between atoms: C_4  and  C_6
REMARK    3  A    between atoms: C_6  and  O_8
REMARK    4  A    between atoms: O_8  and  C_9
REMARK    5  A    between atoms: C_9  and  C_10
REMARK    6  A    between atoms: C_10  and  C_11
REMARK    7  A    between atoms: C_10  and  O_13
REMARK    8  A    between atoms: O_13  and  C_14
REMARK    9  A    between atoms: C_14  and  N_15
REMARK                            x       y       z     vdW  Elec       q    Type
REMARK                         _______ _______ _______ _____ _____    ______ ____
ROOT
ATOM      1  O   UNL     1       3.803   6.436  -7.777  0.00  0.00    -0.328 OA
ENDROOT
BRANCH   1   2
ATOM      2  C   UNL     1       4.277   5.784  -8.810  0.00  0.00    +0.258 C 
BRANCH   2   3
ATOM      3  N   UNL     1       3.754   5.948 -10.111  0.00  0.00    -0.268 N 
ATOM      4  C   UNL     1       4.450   5.845 -11.244  0.00  0.00    +0.172 A 
ATOM      5  N   UNL     1       5.771   5.673 -11.420  0.00  0.00    -0.192 NA
ATOM      6  C   UNL     1       6.268   5.224 -12.587  0.00  0.00    +0.261 A 
ATOM      7  N   UNL     1       5.465   5.337 -13.653  0.00  0.00    -0.171 NA
ATOM      8  C   UNL     1       4.135   5.492 -13.570  0.00  0.00    +0.302 A 
ATOM      9  O   UNL     1       3.342   5.005 -14.430  0.00  0.00    -0.263 OA
ATOM     10  N   UNL     1       7.603   4.734 -12.674  0.00  0.00    -0.086 NA
ATOM     11  C   UNL     1       3.600   5.710 -12.318  0.00  0.00    +0.175 A 
ATOM     12  N   UNL     1       2.376   5.624 -11.764  0.00  0.00    -0.217 NA
ATOM     13  C   UNL     1       2.462   5.703 -10.438  0.00  0.00    +0.182 A 
ENDBRANCH   2   3
ENDBRANCH   1   2
BRANCH   1  14
ATOM     14  C   UNL     1       3.208   5.527  -6.718  0.00  0.00    +0.194 C 
BRANCH  14  15
ATOM     15  C   UNL     1       4.072   6.170  -5.474  0.00  0.00    +0.215 C 
ATOM     16  O   UNL     1       3.839   7.493  -5.375  0.00  0.00    -0.218 OA
ENDBRANCH  14  15
BRANCH  14  17
ATOM     17  C   UNL     1       1.910   6.528  -6.493  0.00  0.00    +0.241 C 
BRANCH  17  18
ATOM     18  O   UNL     1       0.909   5.665  -5.945  0.00  0.00    -0.445 OA
BRANCH  18  19
ATOM     19  C   UNL     1       0.508   5.819  -4.672  0.00  0.00    +0.335 C 
ATOM     20  O   UNL     1       0.992   6.690  -3.886  0.00  0.00    -0.248 OA
BRANCH  19  21
ATOM     21  C   UNL     1      -1.027   5.552  -4.262  0.00  0.00    +0.190 C 
ATOM     22  N   UNL     1      -1.062   6.758  -3.240  0.00  0.00    -0.121 NA
BRANCH  21  24
ATOM     23  C   UNL     1      -2.302   6.922  -5.119  0.00  0.00    +0.002 C 
ATOM     24  C   UNL     1      -1.641   6.477  -5.478  0.00  0.00    +0.029 C 
ATOM     25  C   UNL     1      -2.553   5.548  -6.276  0.00  0.00    +0.002 C 
ENDBRANCH  21  24
ENDBRANCH  19  21
ENDBRANCH  18  19
ENDBRANCH  17  18
ENDBRANCH  14  17
ENDBRANCH   1  14
TORSDOF 9
ENDMDL
MODEL 9
REMARK VINA RESULT:      -6.7      3.445      7.768
REMARK  Name = 
REMARK  9 active torsions:
REMARK  status: ('A' for Active; 'I' for Inactive)
REMARK    1  A    between atoms: C_2  and  C_4
REMARK    2  A    between atoms: C_4  and  C_6
REMARK    3  A    between atoms: C_6  and  O_8
REMARK    4  A    between atoms: O_8  and  C_9
REMARK    5  A    between atoms: C_9  and  C_10
REMARK    6  A    between atoms: C_10  and  C_11
REMARK    7  A    between atoms: C_10  and  O_13
REMARK    8  A    between atoms: O_13  and  C_14
REMARK    9  A    between atoms: C_14  and  N_15
REMARK                            x       y       z     vdW  Elec       q    Type
REMARK                         _______ _______ _______ _____ _____    ______ ____
ROOT
ATOM      1  O   UNL     1       1.960   4.922  -8.811  0.00  0.00    -0.328 OA
ENDROOT
BRANCH   1   2
ATOM      2  C   UNL     1       2.319   5.992  -9.474  0.00  0.00    +0.258 C 
BRANCH   2   3
ATOM      3  N   UNL     1       1.774   6.318 -10.736  0.00  0.00    -0.268 N 
ATOM      4  C   UNL     1       2.405   6.202 -11.905  0.00  0.00    +0.172 A 
ATOM      5  N   UNL     1       3.681   5.868 -12.155  0.00  0.00    -0.192 NA
ATOM      6  C   UNL     1       4.067   5.439 -13.371  0.00  0.00    +0.261 A 
ATOM      7  N   UNL     1       3.247   5.735 -14.387  0.00  0.00    -0.171 NA
ATOM      8  C   UNL     1       1.955   6.062 -14.231  0.00  0.00    +0.302 A 
ATOM      9  O   UNL     1       1.069   5.748 -15.082  0.00  0.00    -0.263 OA
ATOM     10  N   UNL     1       5.317   4.782 -13.554  0.00  0.00    -0.086 NA
ATOM     11  C   UNL     1       1.504   6.260 -12.943  0.00  0.00    +0.175 A 
ATOM     12  N   UNL     1       0.301   6.300 -12.338  0.00  0.00    -0.217 NA
ATOM     13  C   UNL     1       0.448   6.272 -11.015  0.00  0.00    +0.182 A 
ENDBRANCH   2   3
ENDBRANCH   1   2
BRANCH   1  14
ATOM     14  C   UNL     1       3.124   4.210  -8.149  0.00  0.00    +0.194 C 
BRANCH  14  15
ATOM     15  C   UNL     1       4.189   5.447  -8.361  0.00  0.00    +0.215 C 
ATOM     16  O   UNL     1       5.452   4.980  -8.373  0.00  0.00    -0.218 OA
ENDBRANCH  14  15
BRANCH  14  17
ATOM     17  C   UNL     1       2.658   4.708  -6.642  0.00  0.00    +0.241 C 
BRANCH  17  18
ATOM     18  O   UNL     1       1.307   4.248  -6.536  0.00  0.00    -0.445 OA
BRANCH  18  19
ATOM     19  C   UNL     1       0.435   4.893  -5.742  0.00  0.00    +0.335 C 
ATOM     20  O   UNL     1       0.603   5.043  -4.493  0.00  0.00    -0.248 OA
BRANCH  19  21
ATOM     21  C   UNL     1      -0.404   6.148  -6.303  0.00  0.00    +0.190 C 
ATOM     22  N   UNL     1      -0.884   5.371  -7.593  0.00  0.00    -0.121 NA
BRANCH  21  24
ATOM     23  C   UNL     1      -2.373   5.586  -6.089  0.00  0.00    +0.002 C 
ATOM     24  C   UNL     1      -1.774   5.757  -5.476  0.00  0.00    +0.029 C 
ATOM     25  C   UNL     1      -2.403   7.089  -5.076  0.00  0.00    +0.002 C 
ENDBRANCH  21  24
ENDBRANCH  19  21
ENDBRANCH  18  19
ENDBRANCH  17  18
ENDBRANCH  14  17
ENDBRANCH   1  14
TORSDOF 9
ENDMDL
