MODEL 1
REMARK VINA RESULT:     -10.3      0.000      0.000
REMARK  Name = 
REMARK  5 active torsions:
REMARK  status: ('A' for Active; 'I' for Inactive)
REMARK    1  A    between atoms: C_2  and  C_3
REMARK    2  A    between atoms: C_10  and  O_11
REMARK    3  A    between atoms: O_11  and  C_12
REMARK    4  A    between atoms: C_17  and  N_18
REMARK    5  A    between atoms: C_40  and  C_42
REMARK                            x       y       z     vdW  Elec       q    Type
REMARK                         _______ _______ _______ _____ _____    ______ ____
ROOT
ATOM      1  C   UNL     1       3.233   6.045  -1.543  0.00  0.00    -0.021 A 
ATOM      2  C   UNL     1       3.854   6.132  -2.780  0.00  0.00    +0.017 A 
ATOM      3  C   UNL     1       4.462   7.345  -3.066  0.00  0.00    +0.081 A 
ATOM      4  C   UNL     1       5.134   7.427  -4.273  0.00  0.00    +0.022 A 
ATOM      5  C   UNL     1       4.883   6.491  -5.254  0.00  0.00    +0.039 A 
ATOM      6  C   UNL     1       3.951   5.478  -5.081  0.00  0.00    +0.150 A 
ATOM      7  N   UNL     1       4.111   8.444  -2.374  0.00  0.00    -0.244 NA
ATOM      8  C   UNL     1       3.163   8.427  -1.405  0.00  0.00    +0.095 A 
ATOM      9  C   UNL     1       3.041   9.380  -0.294  0.00  0.00    +0.080 A 
ATOM     10  N   UNL     1       2.268   8.808   0.659  0.00  0.00    -0.290 N 
ATOM     11  C   UNL     1       1.916   7.454   0.240  0.00  0.00    +0.137 C 
ATOM     12  C   UNL     1       2.010   9.527   1.778  0.00  0.00    +0.260 A 
ATOM     13  O   UNL     1       1.261   8.982   2.643  0.00  0.00    -0.267 OA
ATOM     14  C   UNL     1       2.771  10.625   2.145  0.00  0.00    +0.076 A 
ATOM     15  C   UNL     1       3.078  10.891   3.586  0.00  0.00    +0.240 C 
ATOM     16  O   UNL     1       4.486  10.708   3.721  0.00  0.00    -0.441 OA
ATOM     17  C   UNL     1       5.359  11.151   2.725  0.00  0.00    +0.349 C 
ATOM     18  C   UNL     1       4.742  12.003   1.661  0.00  0.00    +0.233 C 
ATOM     19  O   UNL     1       5.629  12.214   0.608  0.00  0.00    -0.210 OA
ATOM     20  O   UNL     1       6.344  10.441   2.362  0.00  0.00    -0.247 OA
ATOM     21  C   UNL     1       3.546  11.246   1.175  0.00  0.00    +0.021 A 
ATOM     22  C   UNL     1       3.509  10.667  -0.085  0.00  0.00    +0.017 A 
ATOM     23  C   UNL     1       3.624   5.182  -3.766  0.00  0.00    +0.039 A 
ATOM     24  C   UNL     1       2.940   7.188  -0.816  0.00  0.00    +0.016 A 
ENDROOT
BRANCH   1  26
ATOM     25  C   UNL     1       1.383   4.586  -1.074  0.00  0.00    +0.005 C 
ATOM     26  C   UNL     1       2.870   4.704  -1.040  0.00  0.00    +0.026 C 
ENDBRANCH   1  26
BRANCH  18  27
ATOM     27  C   UNL     1       4.357  13.365   2.194  0.00  0.00    +0.046 C 
ATOM     28  C   UNL     1       4.990  14.387   1.258  0.00  0.00    +0.004 C 
ENDBRANCH  18  27
BRANCH   6  29
ATOM     29  O   UNL     1       3.455   4.776  -6.161  0.00  0.00    -0.410 OA
BRANCH  29  30
ATOM     30  C   UNL     1       2.068   4.767  -6.319  0.00  0.00    +0.409 C 
ATOM     31  N   UNL     1       1.327   5.898  -6.744  0.00  0.00    -0.246 N 
ATOM     32  C   UNL     1       1.310   7.051  -5.848  0.00  0.00    +0.098 C 
ATOM     33  C   UNL     1      -0.154   7.374  -5.607  0.00  0.00    +0.038 C 
ATOM     34  C   UNL     1      -0.864   6.067  -5.274  0.00  0.00    +0.061 C 
ATOM     35  C   UNL     1      -1.066   5.345  -6.584  0.00  0.00    +0.038 C 
ATOM     36  C   UNL     1       0.103   5.654  -7.494  0.00  0.00    +0.098 C 
ATOM     37  O   UNL     1       1.396   3.796  -5.859  0.00  0.00    -0.226 OA
BRANCH  34  38
ATOM     38  N   UNL     1      -2.097   6.418  -4.622  0.00  0.00    -0.274 NA
ATOM     39  C   UNL     1      -1.972   7.487  -3.669  0.00  0.00    +0.072 C 
ATOM     40  C   UNL     1      -1.538   7.035  -2.304  0.00  0.00    +0.017 C 
ATOM     41  C   UNL     1      -2.241   5.795  -1.830  0.00  0.00    +0.003 C 
ATOM     42  C   UNL     1      -3.409   5.491  -2.758  0.00  0.00    +0.017 C 
ATOM     43  C   UNL     1      -2.834   5.283  -4.131  0.00  0.00    +0.072 C 
ENDBRANCH  34  38
ENDBRANCH  29  30
ENDBRANCH   6  29
TORSDOF 5
ENDMDL
MODEL 2
REMARK VINA RESULT:      -9.8      4.001      9.546
REMARK  Name = 
REMARK  5 active torsions:
REMARK  status: ('A' for Active; 'I' for Inactive)
REMARK    1  A    between atoms: C_2  and  C_3
REMARK    2  A    between atoms: C_10  and  O_11
REMARK    3  A    between atoms: O_11  and  C_12
REMARK    4  A    between atoms: C_17  and  N_18
REMARK    5  A    between atoms: C_40  and  C_42
REMARK                            x       y       z     vdW  Elec       q    Type
REMARK                         _______ _______ _______ _____ _____    ______ ____
ROOT
ATOM      1  C   UNL     1       2.367   6.905  -5.432  0.00  0.00    -0.021 A 
ATOM      2  C   UNL     1       3.193   7.171  -4.351  0.00  0.00    +0.017 A 
ATOM      3  C   UNL     1       4.554   7.089  -4.597  0.00  0.00    +0.081 A 
ATOM      4  C   UNL     1       5.391   7.407  -3.542  0.00  0.00    +0.022 A 
ATOM      5  C   UNL     1       4.885   7.433  -2.259  0.00  0.00    +0.039 A 
ATOM      6  C   UNL     1       3.561   7.119  -1.985  0.00  0.00    +0.150 A 
ATOM      7  N   UNL     1       4.996   6.412  -5.673  0.00  0.00    -0.244 NA
ATOM      8  C   UNL     1       4.161   5.779  -6.533  0.00  0.00    +0.095 A 
ATOM      9  C   UNL     1       4.448   5.447  -7.934  0.00  0.00    +0.080 A 
ATOM     10  N   UNL     1       3.267   5.217  -8.556  0.00  0.00    -0.290 N 
ATOM     11  C   UNL     1       2.178   5.453  -7.613  0.00  0.00    +0.137 C 
ATOM     12  C   UNL     1       3.300   4.876  -9.866  0.00  0.00    +0.260 A 
ATOM     13  O   UNL     1       2.184   4.638 -10.419  0.00  0.00    -0.267 OA
ATOM     14  C   UNL     1       4.409   5.103 -10.664  0.00  0.00    +0.076 A 
ATOM     15  C   UNL     1       4.247   5.521 -12.093  0.00  0.00    +0.240 C 
ATOM     16  O   UNL     1       4.750   6.853 -12.166  0.00  0.00    -0.441 OA
ATOM     17  C   UNL     1       5.895   7.221 -11.454  0.00  0.00    +0.349 C 
ATOM     18  C   UNL     1       6.649   6.093 -10.821  0.00  0.00    +0.233 C 
ATOM     19  O   UNL     1       7.637   6.568  -9.963  0.00  0.00    -0.210 OA
ATOM     20  O   UNL     1       5.954   8.333 -10.849  0.00  0.00    -0.247 OA
ATOM     21  C   UNL     1       5.636   5.309 -10.047  0.00  0.00    +0.021 A 
ATOM     22  C   UNL     1       5.619   5.304  -8.660  0.00  0.00    +0.017 A 
ATOM     23  C   UNL     1       2.687   7.219  -3.057  0.00  0.00    +0.039 A 
ATOM     24  C   UNL     1       2.859   6.264  -6.558  0.00  0.00    +0.016 A 
ENDROOT
BRANCH   1  26
ATOM     25  C   UNL     1       0.150   6.078  -5.011  0.00  0.00    +0.005 C 
ATOM     26  C   UNL     1       0.945   7.298  -5.335  0.00  0.00    +0.026 C 
ENDBRANCH   1  26
BRANCH  18  27
ATOM     27  C   UNL     1       7.338   5.235 -11.859  0.00  0.00    +0.046 C 
ATOM     28  C   UNL     1       8.586   6.000 -12.287  0.00  0.00    +0.004 C 
ENDBRANCH  18  27
BRANCH   6  29
ATOM     29  O   UNL     1       3.155   6.806  -0.704  0.00  0.00    -0.410 OA
BRANCH  29  30
ATOM     30  C   UNL     1       2.027   7.472  -0.224  0.00  0.00    +0.409 C 
ATOM     31  N   UNL     1       2.077   8.433   0.816  0.00  0.00    -0.246 N 
ATOM     32  C   UNL     1       2.471   7.957   2.139  0.00  0.00    +0.098 C 
ATOM     33  C   UNL     1       1.368   8.389   3.087  0.00  0.00    +0.038 C 
ATOM     34  C   UNL     1       0.037   8.016   2.445  0.00  0.00    +0.061 C 
ATOM     35  C   UNL     1      -0.235   9.058   1.388  0.00  0.00    +0.038 C 
ATOM     36  C   UNL     1       1.085   9.500   0.792  0.00  0.00    +0.098 C 
ATOM     37  O   UNL     1       0.874   7.062  -0.554  0.00  0.00    -0.226 OA
BRANCH  34  38
ATOM     38  N   UNL     1      -0.944   8.004   3.497  0.00  0.00    -0.274 NA
ATOM     39  C   UNL     1      -1.515   6.709   3.750  0.00  0.00    +0.072 C 
ATOM     40  C   UNL     1      -2.672   6.369   2.855  0.00  0.00    +0.017 C 
ATOM     41  C   UNL     1      -3.640   7.503   2.669  0.00  0.00    +0.003 C 
ATOM     42  C   UNL     1      -3.324   8.606   3.669  0.00  0.00    +0.017 C 
ATOM     43  C   UNL     1      -1.917   9.059   3.391  0.00  0.00    +0.072 C 
ENDBRANCH  34  38
ENDBRANCH  29  30
ENDBRANCH   6  29
TORSDOF 5
ENDMDL
MODEL 3
REMARK VINA RESULT:      -9.7      4.552     10.056
REMARK  Name = 
REMARK  5 active torsions:
REMARK  status: ('A' for Active; 'I' for Inactive)
REMARK    1  A    between atoms: C_2  and  C_3
REMARK    2  A    between atoms: C_10  and  O_11
REMARK    3  A    between atoms: O_11  and  C_12
REMARK    4  A    between atoms: C_17  and  N_18
REMARK    5  A    between atoms: C_40  and  C_42
REMARK                            x       y       z     vdW  Elec       q    Type
REMARK                         _______ _______ _______ _____ _____    ______ ____
ROOT
ATOM      1  C   UNL     1       2.635   4.567  -7.135  0.00  0.00    -0.021 A 
ATOM      2  C   UNL     1       1.281   4.833  -7.265  0.00  0.00    +0.017 A 
ATOM      3  C   UNL     1       0.899   5.464  -8.439  0.00  0.00    +0.081 A 
ATOM      4  C   UNL     1      -0.456   5.686  -8.606  0.00  0.00    +0.022 A 
ATOM      5  C   UNL     1      -1.295   5.617  -7.514  0.00  0.00    +0.039 A 
ATOM      6  C   UNL     1      -0.817   5.358  -6.237  0.00  0.00    +0.150 A 
ATOM      7  N   UNL     1       1.821   6.115  -9.174  0.00  0.00    -0.244 NA
ATOM      8  C   UNL     1       3.122   6.200  -8.806  0.00  0.00    +0.095 A 
ATOM      9  C   UNL     1       4.263   6.431  -9.702  0.00  0.00    +0.080 A 
ATOM     10  N   UNL     1       5.386   6.040  -9.054  0.00  0.00    -0.290 N 
ATOM     11  C   UNL     1       5.017   5.484  -7.755  0.00  0.00    +0.137 C 
ATOM     12  C   UNL     1       6.569   6.181  -9.698  0.00  0.00    +0.260 A 
ATOM     13  O   UNL     1       7.608   5.835  -9.060  0.00  0.00    -0.267 OA
ATOM     14  C   UNL     1       6.649   6.353 -11.070  0.00  0.00    +0.076 A 
ATOM     15  C   UNL     1       7.756   5.719 -11.853  0.00  0.00    +0.240 C 
ATOM     16  O   UNL     1       7.133   4.741 -12.682  0.00  0.00    -0.441 OA
ATOM     17  C   UNL     1       5.904   5.006 -13.293  0.00  0.00    +0.349 C 
ATOM     18  C   UNL     1       5.432   6.422 -13.200  0.00  0.00    +0.233 C 
ATOM     19  O   UNL     1       4.116   6.544 -13.640  0.00  0.00    -0.210 OA
ATOM     20  O   UNL     1       4.997   4.122 -13.338  0.00  0.00    -0.247 OA
ATOM     21  C   UNL     1       5.518   6.786 -11.750  0.00  0.00    +0.021 A 
ATOM     22  C   UNL     1       4.384   6.970 -10.973  0.00  0.00    +0.017 A 
ATOM     23  C   UNL     1       0.425   4.745  -6.174  0.00  0.00    +0.039 A 
ATOM     24  C   UNL     1       3.562   5.199  -7.948  0.00  0.00    +0.016 A 
ENDROOT
BRANCH   1  26
ATOM     25  C   UNL     1       3.528   4.398  -4.911  0.00  0.00    +0.005 C 
ATOM     26  C   UNL     1       3.059   3.612  -6.089  0.00  0.00    +0.026 C 
ENDBRANCH   1  26
BRANCH  18  27
ATOM     27  C   UNL     1       6.271   7.346 -14.053  0.00  0.00    +0.046 C 
ATOM     28  C   UNL     1       6.326   6.717 -15.440  0.00  0.00    +0.004 C 
ENDBRANCH  18  27
BRANCH   6  29
ATOM     29  O   UNL     1      -1.583   5.633  -5.122  0.00  0.00    -0.410 OA
BRANCH  29  30
ATOM     30  C   UNL     1      -0.896   6.011  -3.968  0.00  0.00    +0.409 C 
ATOM     31  N   UNL     1      -1.190   5.490  -2.684  0.00  0.00    -0.246 N 
ATOM     32  C   UNL     1      -2.499   5.815  -2.121  0.00  0.00    +0.098 C 
ATOM     33  C   UNL     1      -2.230   6.432  -0.761  0.00  0.00    +0.038 C 
ATOM     34  C   UNL     1      -1.132   7.474  -0.937  0.00  0.00    +0.061 C 
ATOM     35  C   UNL     1       0.167   6.714  -1.035  0.00  0.00    +0.038 C 
ATOM     36  C   UNL     1      -0.093   5.395  -1.731  0.00  0.00    +0.098 C 
ATOM     37  O   UNL     1      -0.128   7.019  -4.002  0.00  0.00    -0.226 OA
BRANCH  34  38
ATOM     38  N   UNL     1      -1.198   8.345   0.206  0.00  0.00    -0.274 NA
ATOM     39  C   UNL     1       0.036   8.446   0.936  0.00  0.00    +0.072 C 
ATOM     40  C   UNL     1       0.233   7.356   1.950  0.00  0.00    +0.017 C 
ATOM     41  C   UNL     1      -0.999   7.055   2.756  0.00  0.00    +0.003 C 
ATOM     42  C   UNL     1      -2.039   8.139   2.509  0.00  0.00    +0.017 C 
ATOM     43  C   UNL     1      -2.350   8.120   1.038  0.00  0.00    +0.072 C 
ENDBRANCH  34  38
ENDBRANCH  29  30
ENDBRANCH   6  29
TORSDOF 5
ENDMDL
MODEL 4
REMARK VINA RESULT:      -9.6      3.860      9.077
REMARK  Name = 
REMARK  5 active torsions:
REMARK  status: ('A' for Active; 'I' for Inactive)
REMARK    1  A    between atoms: C_2  and  C_3
REMARK    2  A    between atoms: C_10  and  O_11
REMARK    3  A    between atoms: O_11  and  C_12
REMARK    4  A    between atoms: C_17  and  N_18
REMARK    5  A    between atoms: C_40  and  C_42
REMARK                            x       y       z     vdW  Elec       q    Type
REMARK                         _______ _______ _______ _____ _____    ______ ____
ROOT
ATOM      1  C   UNL     1       2.748   6.967  -5.762  0.00  0.00    -0.021 A 
ATOM      2  C   UNL     1       3.568   7.145  -4.659  0.00  0.00    +0.017 A 
ATOM      3  C   UNL     1       4.928   7.013  -4.890  0.00  0.00    +0.081 A 
ATOM      4  C   UNL     1       5.762   7.243  -3.810  0.00  0.00    +0.022 A 
ATOM      5  C   UNL     1       5.239   7.231  -2.534  0.00  0.00    +0.039 A 
ATOM      6  C   UNL     1       3.898   6.966  -2.293  0.00  0.00    +0.150 A 
ATOM      7  N   UNL     1       5.355   6.367  -5.991  0.00  0.00    -0.244 NA
ATOM      8  C   UNL     1       4.506   5.814  -6.891  0.00  0.00    +0.095 A 
ATOM      9  C   UNL     1       4.799   5.535  -8.303  0.00  0.00    +0.080 A 
ATOM     10  N   UNL     1       3.618   5.388  -8.950  0.00  0.00    -0.290 N 
ATOM     11  C   UNL     1       2.526   5.629  -8.011  0.00  0.00    +0.137 C 
ATOM     12  C   UNL     1       3.655   5.108 -10.275  0.00  0.00    +0.260 A 
ATOM     13  O   UNL     1       2.539   4.946 -10.852  0.00  0.00    -0.267 OA
ATOM     14  C   UNL     1       4.786   5.321 -11.046  0.00  0.00    +0.076 A 
ATOM     15  C   UNL     1       4.664   5.812 -12.455  0.00  0.00    +0.240 C 
ATOM     16  O   UNL     1       5.227   7.122 -12.459  0.00  0.00    -0.441 OA
ATOM     17  C   UNL     1       6.377   7.403 -11.715  0.00  0.00    +0.349 C 
ATOM     18  C   UNL     1       7.070   6.215 -11.127  0.00  0.00    +0.233 C 
ATOM     19  O   UNL     1       8.066   6.603 -10.234  0.00  0.00    -0.210 OA
ATOM     20  O   UNL     1       6.476   8.482 -11.058  0.00  0.00    -0.247 OA
ATOM     21  C   UNL     1       6.012   5.442 -10.404  0.00  0.00    +0.021 A 
ATOM     22  C   UNL     1       5.973   5.373  -9.020  0.00  0.00    +0.017 A 
ATOM     23  C   UNL     1       3.046   7.156  -3.371  0.00  0.00    +0.039 A 
ATOM     24  C   UNL     1       3.228   6.358  -6.910  0.00  0.00    +0.016 A 
ENDROOT
BRANCH   1  26
ATOM     25  C   UNL     1       0.473   6.210  -5.593  0.00  0.00    +0.005 C 
ATOM     26  C   UNL     1       1.344   7.420  -5.664  0.00  0.00    +0.026 C 
ENDBRANCH   1  26
BRANCH  18  27
ATOM     27  C   UNL     1       7.736   5.376 -12.195  0.00  0.00    +0.046 C 
ATOM     28  C   UNL     1       9.196   5.812 -12.235  0.00  0.00    +0.004 C 
ENDBRANCH  18  27
BRANCH   6  29
ATOM     29  O   UNL     1       3.459   6.612  -1.034  0.00  0.00    -0.410 OA
BRANCH  29  30
ATOM     30  C   UNL     1       2.130   6.908  -0.728  0.00  0.00    +0.409 C 
ATOM     31  N   UNL     1       1.104   5.931  -0.696  0.00  0.00    -0.246 N 
ATOM     32  C   UNL     1       0.765   5.285  -1.961  0.00  0.00    +0.098 C 
ATOM     33  C   UNL     1      -0.730   5.471  -2.140  0.00  0.00    +0.038 C 
ATOM     34  C   UNL     1      -1.050   6.934  -1.855  0.00  0.00    +0.061 C 
ATOM     35  C   UNL     1      -1.041   7.089  -0.354  0.00  0.00    +0.038 C 
ATOM     36  C   UNL     1      -0.003   6.151   0.224  0.00  0.00    +0.098 C 
ATOM     37  O   UNL     1       1.754   8.118  -0.694  0.00  0.00    -0.226 OA
BRANCH  34  38
ATOM     38  N   UNL     1      -2.333   7.203  -2.447  0.00  0.00    -0.274 NA
ATOM     39  C   UNL     1      -3.210   6.065  -2.485  0.00  0.00    +0.072 C 
ATOM     40  C   UNL     1      -3.001   5.176  -3.676  0.00  0.00    +0.017 C 
ATOM     41  C   UNL     1      -2.825   5.929  -4.965  0.00  0.00    +0.003 C 
ATOM     42  C   UNL     1      -3.187   7.392  -4.747  0.00  0.00    +0.017 C 
ATOM     43  C   UNL     1      -2.255   7.921  -3.692  0.00  0.00    +0.072 C 
ENDBRANCH  34  38
ENDBRANCH  29  30
ENDBRANCH   6  29
TORSDOF 5
ENDMDL
MODEL 5
REMARK VINA RESULT:      -9.6      1.989      3.805
REMARK  Name = 
REMARK  5 active torsions:
REMARK  status: ('A' for Active; 'I' for Inactive)
REMARK    1  A    between atoms: C_2  and  C_3
REMARK    2  A    between atoms: C_10  and  O_11
REMARK    3  A    between atoms: O_11  and  C_12
REMARK    4  A    between atoms: C_17  and  N_18
REMARK    5  A    between atoms: C_40  and  C_42
REMARK                            x       y       z     vdW  Elec       q    Type
REMARK                         _______ _______ _______ _____ _____    ______ ____
ROOT
ATOM      1  C   UNL     1       3.394   6.001  -1.524  0.00  0.00    -0.021 A 
ATOM      2  C   UNL     1       4.087   6.080  -2.722  0.00  0.00    +0.017 A 
ATOM      3  C   UNL     1       4.699   7.295  -2.986  0.00  0.00    +0.081 A 
ATOM      4  C   UNL     1       5.440   7.370  -4.152  0.00  0.00    +0.022 A 
ATOM      5  C   UNL     1       5.258   6.421  -5.135  0.00  0.00    +0.039 A 
ATOM      6  C   UNL     1       4.326   5.400  -5.006  0.00  0.00    +0.150 A 
ATOM      7  N   UNL     1       4.296   8.399  -2.329  0.00  0.00    -0.244 NA
ATOM      8  C   UNL     1       3.293   8.383  -1.419  0.00  0.00    +0.095 A 
ATOM      9  C   UNL     1       3.096   9.347  -0.328  0.00  0.00    +0.080 A 
ATOM     10  N   UNL     1       2.272   8.779   0.584  0.00  0.00    -0.290 N 
ATOM     11  C   UNL     1       1.959   7.417   0.161  0.00  0.00    +0.137 C 
ATOM     12  C   UNL     1       1.942   9.507   1.677  0.00  0.00    +0.260 A 
ATOM     13  O   UNL     1       1.147   8.965   2.502  0.00  0.00    -0.267 OA
ATOM     14  C   UNL     1       2.669  10.617   2.075  0.00  0.00    +0.076 A 
ATOM     15  C   UNL     1       2.887  10.903   3.528  0.00  0.00    +0.240 C 
ATOM     16  O   UNL     1       4.285  10.736   3.750  0.00  0.00    -0.441 OA
ATOM     17  C   UNL     1       5.213  11.176   2.802  0.00  0.00    +0.349 C 
ATOM     18  C   UNL     1       4.652  12.010   1.693  0.00  0.00    +0.233 C 
ATOM     19  O   UNL     1       5.599  12.218   0.692  0.00  0.00    -0.210 OA
ATOM     20  O   UNL     1       6.224  10.472   2.507  0.00  0.00    -0.247 OA
ATOM     21  C   UNL     1       3.495  11.236   1.145  0.00  0.00    +0.021 A 
ATOM     22  C   UNL     1       3.538  10.641  -0.107  0.00  0.00    +0.017 A 
ATOM     23  C   UNL     1       3.924   5.116  -3.709  0.00  0.00    +0.039 A 
ATOM     24  C   UNL     1       3.047   7.149  -0.829  0.00  0.00    +0.016 A 
ENDROOT
BRANCH   1  26
ATOM     25  C   UNL     1       1.532   4.528  -1.149  0.00  0.00    +0.005 C 
ATOM     26  C   UNL     1       3.014   4.661  -1.027  0.00  0.00    +0.026 C 
ENDBRANCH   1  26
BRANCH  18  27
ATOM     27  C   UNL     1       4.222  13.374   2.185  0.00  0.00    +0.046 C 
ATOM     28  C   UNL     1       5.183  14.378   1.559  0.00  0.00    +0.004 C 
ENDBRANCH  18  27
BRANCH   6  29
ATOM     29  O   UNL     1       3.903   4.681  -6.104  0.00  0.00    -0.410 OA
BRANCH  29  30
ATOM     30  C   UNL     1       3.425   5.418  -7.189  0.00  0.00    +0.409 C 
ATOM     31  N   UNL     1       2.193   6.117  -7.171  0.00  0.00    -0.246 N 
ATOM     32  C   UNL     1       0.978   5.313  -7.065  0.00  0.00    +0.098 C 
ATOM     33  C   UNL     1       0.100   5.721  -8.233  0.00  0.00    +0.038 C 
ATOM     34  C   UNL     1       0.971   5.728  -9.484  0.00  0.00    +0.061 C 
ATOM     35  C   UNL     1       1.783   6.999  -9.433  0.00  0.00    +0.038 C 
ATOM     36  C   UNL     1       2.091   7.320  -7.986  0.00  0.00    +0.098 C 
ATOM     37  O   UNL     1       3.983   5.292  -8.321  0.00  0.00    -0.226 OA
BRANCH  34  38
ATOM     38  N   UNL     1       0.082   5.666 -10.612  0.00  0.00    -0.274 NA
ATOM     39  C   UNL     1       0.518   4.776 -11.654  0.00  0.00    +0.072 C 
ATOM     40  C   UNL     1       1.481   5.400 -12.622  0.00  0.00    +0.017 C 
ATOM     41  C   UNL     1       1.092   6.788 -13.047  0.00  0.00    +0.003 C 
ATOM     42  C   UNL     1      -0.330   7.076 -12.587  0.00  0.00    +0.017 C 
ATOM     43  C   UNL     1      -0.338   6.958 -11.088  0.00  0.00    +0.072 C 
ENDBRANCH  34  38
ENDBRANCH  29  30
ENDBRANCH   6  29
TORSDOF 5
ENDMDL
MODEL 6
REMARK VINA RESULT:      -9.5      4.220     10.994
REMARK  Name = 
REMARK  5 active torsions:
REMARK  status: ('A' for Active; 'I' for Inactive)
REMARK    1  A    between atoms: C_2  and  C_3
REMARK    2  A    between atoms: C_10  and  O_11
REMARK    3  A    between atoms: O_11  and  C_12
REMARK    4  A    between atoms: C_17  and  N_18
REMARK    5  A    between atoms: C_40  and  C_42
REMARK                            x       y       z     vdW  Elec       q    Type
REMARK                         _______ _______ _______ _____ _____    ______ ____
ROOT
ATOM      1  C   UNL     1       1.652   4.608  -7.255  0.00  0.00    -0.021 A 
ATOM      2  C   UNL     1       0.418   4.942  -6.719  0.00  0.00    +0.017 A 
ATOM      3  C   UNL     1      -0.476   5.544  -7.591  0.00  0.00    +0.081 A 
ATOM      4  C   UNL     1      -1.731   5.832  -7.085  0.00  0.00    +0.022 A 
ATOM      5  C   UNL     1      -1.924   5.851  -5.719  0.00  0.00    +0.039 A 
ATOM      6  C   UNL     1      -0.886   5.619  -4.828  0.00  0.00    +0.150 A 
ATOM      7  N   UNL     1      -0.019   6.115  -8.722  0.00  0.00    -0.244 NA
ATOM      8  C   UNL     1       1.296   6.144  -9.047  0.00  0.00    +0.095 A 
ATOM      9  C   UNL     1       1.853   6.279 -10.399  0.00  0.00    +0.080 A 
ATOM     10  N   UNL     1       3.138   5.854 -10.363  0.00  0.00    -0.290 N 
ATOM     11  C   UNL     1       3.443   5.371  -9.019  0.00  0.00    +0.137 C 
ATOM     12  C   UNL     1       3.853   5.906 -11.512  0.00  0.00    +0.260 A 
ATOM     13  O   UNL     1       5.062   5.530 -11.446  0.00  0.00    -0.267 OA
ATOM     14  C   UNL     1       3.251   6.018 -12.755  0.00  0.00    +0.076 A 
ATOM     15  C   UNL     1       3.811   5.294 -13.940  0.00  0.00    +0.240 C 
ATOM     16  O   UNL     1       2.833   4.318 -14.294  0.00  0.00    -0.441 OA
ATOM     17  C   UNL     1       1.471   4.624 -14.239  0.00  0.00    +0.349 C 
ATOM     18  C   UNL     1       1.144   6.067 -14.012  0.00  0.00    +0.233 C 
ATOM     19  O   UNL     1      -0.214   6.241 -13.757  0.00  0.00    -0.210 OA
ATOM     20  O   UNL     1       0.636   3.789 -13.778  0.00  0.00    -0.247 OA
ATOM     21  C   UNL     1       1.944   6.483 -12.817  0.00  0.00    +0.021 A 
ATOM     22  C   UNL     1       1.346   6.758 -11.596  0.00  0.00    +0.017 A 
ATOM     23  C   UNL     1       0.209   4.943  -5.346  0.00  0.00    +0.039 A 
ATOM     24  C   UNL     1       2.074   5.157  -8.456  0.00  0.00    +0.016 A 
ENDROOT
BRANCH   1  26
ATOM     25  C   UNL     1       3.356   4.479  -5.565  0.00  0.00    +0.005 C 
ATOM     26  C   UNL     1       2.511   3.675  -6.495  0.00  0.00    +0.026 C 
ENDBRANCH   1  26
BRANCH  18  27
ATOM     27  C   UNL     1       1.479   6.910 -15.222  0.00  0.00    +0.046 C 
ATOM     28  C   UNL     1       0.150   7.253 -15.886  0.00  0.00    +0.004 C 
ENDBRANCH  18  27
BRANCH   6  29
ATOM     29  O   UNL     1      -0.995   5.979  -3.501  0.00  0.00    -0.410 OA
BRANCH  29  30
ATOM     30  C   UNL     1       0.183   5.977  -2.752  0.00  0.00    +0.409 C 
ATOM     31  N   UNL     1       0.237   5.589  -1.391  0.00  0.00    -0.246 N 
ATOM     32  C   UNL     1      -0.477   6.429  -0.434  0.00  0.00    +0.098 C 
ATOM     33  C   UNL     1       0.538   6.817   0.625  0.00  0.00    +0.038 C 
ATOM     34  C   UNL     1       1.798   7.284  -0.094  0.00  0.00    +0.061 C 
ATOM     35  C   UNL     1       2.511   6.038  -0.560  0.00  0.00    +0.038 C 
ATOM     36  C   UNL     1       1.476   4.991  -0.913  0.00  0.00    +0.098 C 
ATOM     37  O   UNL     1       1.215   6.552  -3.214  0.00  0.00    -0.226 OA
BRANCH  34  38
ATOM     38  N   UNL     1       2.558   8.053   0.854  0.00  0.00    -0.274 NA
ATOM     39  C   UNL     1       1.769   8.971   1.630  0.00  0.00    +0.072 C 
ATOM     40  C   UNL     1       1.534  10.291   0.955  0.00  0.00    +0.017 C 
ATOM     41  C   UNL     1       2.760  10.856   0.295  0.00  0.00    +0.003 C 
ATOM     42  C   UNL     1       3.980  10.058   0.733  0.00  0.00    +0.017 C 
ATOM     43  C   UNL     1       3.752   8.636   0.300  0.00  0.00    +0.072 C 
ENDBRANCH  34  38
ENDBRANCH  29  30
ENDBRANCH   6  29
TORSDOF 5
ENDMDL
MODEL 7
REMARK VINA RESULT:      -9.3      3.523     10.163
REMARK  Name = 
REMARK  5 active torsions:
REMARK  status: ('A' for Active; 'I' for Inactive)
REMARK    1  A    between atoms: C_2  and  C_3
REMARK    2  A    between atoms: C_10  and  O_11
REMARK    3  A    between atoms: O_11  and  C_12
REMARK    4  A    between atoms: C_17  and  N_18
REMARK    5  A    between atoms: C_40  and  C_42
REMARK                            x       y       z     vdW  Elec       q    Type
REMARK                         _______ _______ _______ _____ _____    ______ ____
ROOT
ATOM      1  C   UNL     1       2.344   6.656  -5.202  0.00  0.00    -0.021 A 
ATOM      2  C   UNL     1       3.205   6.953  -4.156  0.00  0.00    +0.017 A 
ATOM      3  C   UNL     1       4.555   6.954  -4.468  0.00  0.00    +0.081 A 
ATOM      4  C   UNL     1       5.422   7.303  -3.447  0.00  0.00    +0.022 A 
ATOM      5  C   UNL     1       4.978   7.279  -2.142  0.00  0.00    +0.039 A 
ATOM      6  C   UNL     1       3.689   6.885  -1.812  0.00  0.00    +0.150 A 
ATOM      7  N   UNL     1       4.983   6.320  -5.576  0.00  0.00    -0.244 NA
ATOM      8  C   UNL     1       4.145   5.654  -6.407  0.00  0.00    +0.095 A 
ATOM      9  C   UNL     1       4.382   5.362  -7.826  0.00  0.00    +0.080 A 
ATOM     10  N   UNL     1       3.188   5.074  -8.396  0.00  0.00    -0.290 N 
ATOM     11  C   UNL     1       2.133   5.231  -7.398  0.00  0.00    +0.137 C 
ATOM     12  C   UNL     1       3.176   4.756  -9.712  0.00  0.00    +0.260 A 
ATOM     13  O   UNL     1       2.051   4.462 -10.216  0.00  0.00    -0.267 OA
ATOM     14  C   UNL     1       4.231   5.060 -10.557  0.00  0.00    +0.076 A 
ATOM     15  C   UNL     1       3.977   5.490 -11.969  0.00  0.00    +0.240 C 
ATOM     16  O   UNL     1       4.399   6.850 -12.040  0.00  0.00    -0.441 OA
ATOM     17  C   UNL     1       5.554   7.272 -11.377  0.00  0.00    +0.349 C 
ATOM     18  C   UNL     1       6.401   6.180 -10.802  0.00  0.00    +0.233 C 
ATOM     19  O   UNL     1       7.401   6.698  -9.982  0.00  0.00    -0.210 OA
ATOM     20  O   UNL     1       5.579   8.376 -10.755  0.00  0.00    -0.247 OA
ATOM     21  C   UNL     1       5.473   5.326  -9.995  0.00  0.00    +0.021 A 
ATOM     22  C   UNL     1       5.523   5.298  -8.609  0.00  0.00    +0.017 A 
ATOM     23  C   UNL     1       2.760   6.952  -2.840  0.00  0.00    +0.039 A 
ATOM     24  C   UNL     1       2.818   6.064  -6.362  0.00  0.00    +0.016 A 
ENDROOT
BRANCH   1  26
ATOM     25  C   UNL     1       0.204   5.700  -4.673  0.00  0.00    +0.005 C 
ATOM     26  C   UNL     1       0.909   6.966  -5.030  0.00  0.00    +0.026 C 
ENDBRANCH   1  26
BRANCH  18  27
ATOM     27  C   UNL     1       7.088   5.380 -11.886  0.00  0.00    +0.046 C 
ATOM     28  C   UNL     1       8.563   5.756 -11.827  0.00  0.00    +0.004 C 
ENDBRANCH  18  27
BRANCH   6  29
ATOM     29  O   UNL     1       3.364   6.528  -0.519  0.00  0.00    -0.410 OA
BRANCH  29  30
ATOM     30  C   UNL     1       3.683   7.446   0.482  0.00  0.00    +0.409 C 
ATOM     31  N   UNL     1       2.711   8.218   1.167  0.00  0.00    -0.246 N 
ATOM     32  C   UNL     1       1.969   9.198   0.378  0.00  0.00    +0.098 C 
ATOM     33  C   UNL     1       2.140  10.527   1.090  0.00  0.00    +0.038 C 
ATOM     34  C   UNL     1       3.621  10.688   1.415  0.00  0.00    +0.061 C 
ATOM     35  C   UNL     1       3.892   9.818   2.618  0.00  0.00    +0.038 C 
ATOM     36  C   UNL     1       3.002   8.596   2.543  0.00  0.00    +0.098 C 
ATOM     37  O   UNL     1       4.892   7.788   0.652  0.00  0.00    -0.226 OA
BRANCH  34  38
ATOM     38  N   UNL     1       3.843  12.087   1.663  0.00  0.00    -0.274 NA
ATOM     39  C   UNL     1       4.914  12.656   0.890  0.00  0.00    +0.072 C 
ATOM     40  C   UNL     1       6.271  12.472   1.504  0.00  0.00    +0.017 C 
ATOM     41  C   UNL     1       6.302  12.734   2.984  0.00  0.00    +0.003 C 
ATOM     42  C   UNL     1       4.994  13.387   3.407  0.00  0.00    +0.017 C 
ATOM     43  C   UNL     1       3.891  12.425   3.061  0.00  0.00    +0.072 C 
ENDBRANCH  34  38
ENDBRANCH  29  30
ENDBRANCH   6  29
TORSDOF 5
ENDMDL
MODEL 8
REMARK VINA RESULT:      -9.3      4.057      7.009
REMARK  Name = 
REMARK  5 active torsions:
REMARK  status: ('A' for Active; 'I' for Inactive)
REMARK    1  A    between atoms: C_2  and  C_3
REMARK    2  A    between atoms: C_10  and  O_11
REMARK    3  A    between atoms: O_11  and  C_12
REMARK    4  A    between atoms: C_17  and  N_18
REMARK    5  A    between atoms: C_40  and  C_42
REMARK                            x       y       z     vdW  Elec       q    Type
REMARK                         _______ _______ _______ _____ _____    ______ ____
ROOT
ATOM      1  C   UNL     1       2.628   6.974  -4.183  0.00  0.00    -0.021 A 
ATOM      2  C   UNL     1       1.671   6.609  -5.117  0.00  0.00    +0.017 A 
ATOM      3  C   UNL     1       0.389   6.421  -4.625  0.00  0.00    +0.081 A 
ATOM      4  C   UNL     1      -0.588   6.112  -5.554  0.00  0.00    +0.022 A 
ATOM      5  C   UNL     1      -0.218   5.663  -6.805  0.00  0.00    +0.039 A 
ATOM      6  C   UNL     1       1.112   5.483  -7.155  0.00  0.00    +0.150 A 
ATOM      7  N   UNL     1       0.206   6.212  -3.308  0.00  0.00    -0.244 NA
ATOM      8  C   UNL     1       1.234   6.158  -2.426  0.00  0.00    +0.095 A 
ATOM      9  C   UNL     1       1.154   6.421  -0.984  0.00  0.00    +0.080 A 
ATOM     10  N   UNL     1       2.408   6.677  -0.539  0.00  0.00    -0.290 N 
ATOM     11  C   UNL     1       3.329   6.657  -1.671  0.00  0.00    +0.137 C 
ATOM     12  C   UNL     1       2.569   6.934   0.781  0.00  0.00    +0.260 A 
ATOM     13  O   UNL     1       3.755   7.143   1.178  0.00  0.00    -0.267 OA
ATOM     14  C   UNL     1       1.513   7.300   1.600  0.00  0.00    +0.076 A 
ATOM     15  C   UNL     1       1.705   8.313   2.685  0.00  0.00    +0.240 C 
ATOM     16  O   UNL     1       0.928   9.444   2.300  0.00  0.00    -0.441 OA
ATOM     17  C   UNL     1      -0.329   9.277   1.712  0.00  0.00    +0.349 C 
ATOM     18  C   UNL     1      -0.868   7.881   1.733  0.00  0.00    +0.233 C 
ATOM     19  O   UNL     1      -2.010   7.772   0.943  0.00  0.00    -0.210 OA
ATOM     20  O   UNL     1      -0.686   9.994   0.730  0.00  0.00    -0.247 OA
ATOM     21  C   UNL     1       0.220   7.016   1.177  0.00  0.00    +0.021 A 
ATOM     22  C   UNL     1       0.114   6.416  -0.069  0.00  0.00    +0.017 A 
ATOM     23  C   UNL     1       2.035   6.177  -6.386  0.00  0.00    +0.039 A 
ATOM     24  C   UNL     1       2.393   6.811  -2.827  0.00  0.00    +0.016 A 
ENDROOT
BRANCH   1  26
ATOM     25  C   UNL     1       4.940   6.436  -4.563  0.00  0.00    +0.005 C 
ATOM     26  C   UNL     1       3.913   7.512  -4.678  0.00  0.00    +0.026 C 
ENDBRANCH   1  26
BRANCH  18  27
ATOM     27  C   UNL     1      -1.254   7.455   3.131  0.00  0.00    +0.046 C 
ATOM     28  C   UNL     1      -2.405   6.467   2.976  0.00  0.00    +0.004 C 
ENDBRANCH  18  27
BRANCH   6  29
ATOM     29  O   UNL     1       1.462   4.718  -8.249  0.00  0.00    -0.410 OA
BRANCH  29  30
ATOM     30  C   UNL     1       2.721   4.954  -8.802  0.00  0.00    +0.409 C 
ATOM     31  N   UNL     1       3.002   6.049  -9.657  0.00  0.00    -0.246 N 
ATOM     32  C   UNL     1       2.329   6.066 -10.953  0.00  0.00    +0.098 C 
ATOM     33  C   UNL     1       3.425   6.203 -11.994  0.00  0.00    +0.038 C 
ATOM     34  C   UNL     1       4.515   5.194 -11.650  0.00  0.00    +0.061 C 
ATOM     35  C   UNL     1       5.298   5.786 -10.504  0.00  0.00    +0.038 C 
ATOM     36  C   UNL     1       4.354   6.588  -9.634  0.00  0.00    +0.098 C 
ATOM     37  O   UNL     1       3.609   4.050  -8.738  0.00  0.00    -0.226 OA
BRANCH  34  38
ATOM     38  N   UNL     1       5.300   5.008 -12.840  0.00  0.00    -0.274 NA
ATOM     39  C   UNL     1       6.714   5.180 -12.641  0.00  0.00    +0.072 C 
ATOM     40  C   UNL     1       7.170   6.607 -12.729  0.00  0.00    +0.017 C 
ATOM     41  C   UNL     1       6.559   7.365 -13.873  0.00  0.00    +0.003 C 
ATOM     42  C   UNL     1       5.849   6.389 -14.801  0.00  0.00    +0.017 C 
ATOM     43  C   UNL     1       4.784   5.706 -13.988  0.00  0.00    +0.072 C 
ENDBRANCH  34  38
ENDBRANCH  29  30
ENDBRANCH   6  29
TORSDOF 5
ENDMDL
MODEL 9
REMARK VINA RESULT:      -9.2      4.318      9.531
REMARK  Name = 
REMARK  5 active torsions:
REMARK  status: ('A' for Active; 'I' for Inactive)
REMARK    1  A    between atoms: C_2  and  C_3
REMARK    2  A    between atoms: C_10  and  O_11
REMARK    3  A    between atoms: O_11  and  C_12
REMARK    4  A    between atoms: C_17  and  N_18
REMARK    5  A    between atoms: C_40  and  C_42
REMARK                            x       y       z     vdW  Elec       q    Type
REMARK                         _______ _______ _______ _____ _____    ______ ____
ROOT
ATOM      1  C   UNL     1       2.115   6.386  -6.188  0.00  0.00    -0.021 A 
ATOM      2  C   UNL     1       2.744   6.141  -4.977  0.00  0.00    +0.017 A 
ATOM      3  C   UNL     1       4.080   5.779  -5.054  0.00  0.00    +0.081 A 
ATOM      4  C   UNL     1       4.736   5.586  -3.851  0.00  0.00    +0.022 A 
ATOM      5  C   UNL     1       4.000   5.407  -2.698  0.00  0.00    +0.039 A 
ATOM      6  C   UNL     1       2.613   5.384  -2.709  0.00  0.00    +0.150 A 
ATOM      7  N   UNL     1       4.577   5.314  -6.215  0.00  0.00    -0.244 NA
ATOM      8  C   UNL     1       3.818   5.163  -7.328  0.00  0.00    +0.095 A 
ATOM      9  C   UNL     1       4.304   5.144  -8.713  0.00  0.00    +0.080 A 
ATOM     10  N   UNL     1       3.251   5.395  -9.526  0.00  0.00    -0.290 N 
ATOM     11  C   UNL     1       2.068   5.649  -8.709  0.00  0.00    +0.137 C 
ATOM     12  C   UNL     1       3.473   5.409 -10.862  0.00  0.00    +0.260 A 
ATOM     13  O   UNL     1       2.466   5.617 -11.603  0.00  0.00    -0.267 OA
ATOM     14  C   UNL     1       4.743   5.543 -11.401  0.00  0.00    +0.076 A 
ATOM     15  C   UNL     1       4.961   6.344 -12.646  0.00  0.00    +0.240 C 
ATOM     16  O   UNL     1       5.734   7.474 -12.249  0.00  0.00    -0.441 OA
ATOM     17  C   UNL     1       6.764   7.338 -11.315  0.00  0.00    +0.349 C 
ATOM     18  C   UNL     1       7.125   5.930 -10.956  0.00  0.00    +0.233 C 
ATOM     19  O   UNL     1       7.998   5.896  -9.871  0.00  0.00    -0.210 OA
ATOM     20  O   UNL     1       6.931   8.201 -10.402  0.00  0.00    -0.247 OA
ATOM     21  C   UNL     1       5.837   5.259 -10.594  0.00  0.00    +0.021 A 
ATOM     22  C   UNL     1       5.541   4.899  -9.287  0.00  0.00    +0.017 A 
ATOM     23  C   UNL     1       2.011   5.980  -3.808  0.00  0.00    +0.039 A 
ATOM     24  C   UNL     1       2.678   5.956  -7.379  0.00  0.00    +0.016 A 
ENDROOT
BRANCH   1  26
ATOM     25  C   UNL     1      -0.267   6.066  -6.153  0.00  0.00    +0.005 C 
ATOM     26  C   UNL     1       0.816   7.092  -6.166  0.00  0.00    +0.026 C 
ENDBRANCH   1  26
BRANCH  18  27
ATOM     27  C   UNL     1       7.814   5.224 -12.102  0.00  0.00    +0.046 C 
ATOM     28  C   UNL     1       9.164   5.908 -12.278  0.00  0.00    +0.004 C 
ENDBRANCH  18  27
BRANCH   6  29
ATOM     29  O   UNL     1       1.902   4.864  -1.647  0.00  0.00    -0.410 OA
BRANCH  29  30
ATOM     30  C   UNL     1       0.816   5.613  -1.193  0.00  0.00    +0.409 C 
ATOM     31  N   UNL     1       0.925   6.959  -0.763  0.00  0.00    -0.246 N 
ATOM     32  C   UNL     1       1.716   7.207   0.440  0.00  0.00    +0.098 C 
ATOM     33  C   UNL     1       0.814   7.979   1.384  0.00  0.00    +0.038 C 
ATOM     34  C   UNL     1      -0.533   7.266   1.421  0.00  0.00    +0.061 C 
ATOM     35  C   UNL     1      -1.254   7.648   0.151  0.00  0.00    +0.038 C 
ATOM     36  C   UNL     1      -0.233   7.821  -0.953  0.00  0.00    +0.098 C 
ATOM     37  O   UNL     1      -0.279   5.028  -0.932  0.00  0.00    -0.226 OA
BRANCH  34  38
ATOM     38  N   UNL     1      -1.206   7.708   2.612  0.00  0.00    -0.274 NA
ATOM     39  C   UNL     1      -1.420   6.670   3.583  0.00  0.00    +0.072 C 
ATOM     40  C   UNL     1      -2.664   5.863   3.346  0.00  0.00    +0.017 C 
ATOM     41  C   UNL     1      -3.860   6.695   2.982  0.00  0.00    +0.003 C 
ATOM     42  C   UNL     1      -3.545   8.164   3.226  0.00  0.00    +0.017 C 
ATOM     43  C   UNL     1      -2.372   8.511   2.352  0.00  0.00    +0.072 C 
ENDBRANCH  34  38
ENDBRANCH  29  30
ENDBRANCH   6  29
TORSDOF 5
ENDMDL
