MODEL 1
REMARK VINA RESULT:      -6.4      0.000      0.000
REMARK  Name = 
REMARK  2 active torsions:
REMARK  status: ('A' for Active; 'I' for Inactive)
REMARK    1  A    between atoms: N_2  and  C_3
REMARK    2  A    between atoms: C_3  and  C_4
REMARK                            x       y       z     vdW  Elec       q    Type
REMARK                         _______ _______ _______ _____ _____    ______ ____
ROOT
ATOM      1  C   UNL     1       1.791   5.896  -6.834  0.00  0.00    +0.130 C 
ATOM      2  C   UNL     1       1.928   6.819  -7.988  0.00  0.00    +0.168 C 
ATOM      3  O   UNL     1       2.285   7.983  -7.812  0.00  0.00    -0.294 OA
ATOM      4  C   UNL     1       0.983   6.604  -9.129  0.00  0.00    +0.066 C 
ATOM      5  C   UNL     1       0.155   5.396  -8.794  0.00  0.00    +0.008 C 
ATOM      6  C   UNL     1      -0.549   5.505  -7.470  0.00  0.00    +0.003 C 
ATOM      7  C   UNL     1       0.366   5.933  -6.357  0.00  0.00    +0.027 C 
ENDROOT
BRANCH   1   8
ATOM      8  C   UNL     1       2.707   6.379  -5.770  0.00  0.00    +0.009 A 
ATOM      9  C   UNL     1       4.064   6.164  -5.905  0.00  0.00    +0.055 A 
ATOM     10 CL   UNL     1       4.661   5.747  -7.486  0.00  0.00    -0.083 Cl
ATOM     11  C   UNL     1       4.874   6.764  -4.950  0.00  0.00    +0.011 A 
ATOM     12  C   UNL     1       4.347   7.260  -3.779  0.00  0.00    +0.001 A 
ATOM     13  C   UNL     1       2.978   7.326  -3.636  0.00  0.00    -0.000 A 
ATOM     14  C   UNL     1       2.160   6.666  -4.528  0.00  0.00    -0.002 A 
ENDBRANCH   1   8
BRANCH   1  16
ATOM     15  C   UNL     1       2.106   4.028  -6.741  0.00  0.00    +0.108 C 
ATOM     16  N   UNL     1       2.230   4.540  -7.164  0.00  0.00    -0.208 NA
ENDBRANCH   1  16
TORSDOF 2
ENDMDL
MODEL 2
REMARK VINA RESULT:      -6.3      2.164      5.148
REMARK  Name = 
REMARK  2 active torsions:
REMARK  status: ('A' for Active; 'I' for Inactive)
REMARK    1  A    between atoms: N_2  and  C_3
REMARK    2  A    between atoms: C_3  and  C_4
REMARK                            x       y       z     vdW  Elec       q    Type
REMARK                         _______ _______ _______ _____ _____    ______ ____
ROOT
ATOM      1  C   UNL     1       2.771   5.765  -8.608  0.00  0.00    +0.130 C 
ATOM      2  C   UNL     1       2.558   6.862  -7.631  0.00  0.00    +0.168 C 
ATOM      3  O   UNL     1       2.201   7.974  -8.016  0.00  0.00    -0.294 OA
ATOM      4  C   UNL     1       3.438   6.854  -6.419  0.00  0.00    +0.066 C 
ATOM      5  C   UNL     1       4.295   5.622  -6.504  0.00  0.00    +0.008 C 
ATOM      6  C   UNL     1       5.073   5.526  -7.787  0.00  0.00    +0.003 C 
ATOM      7  C   UNL     1       4.220   5.750  -9.004  0.00  0.00    +0.027 C 
ENDROOT
BRANCH   1   8
ATOM      8  C   UNL     1       1.913   6.051  -9.787  0.00  0.00    +0.009 A 
ATOM      9  C   UNL     1       0.551   5.853  -9.688  0.00  0.00    +0.055 A 
ATOM     10 CL   UNL     1      -0.131   5.711  -8.093  0.00  0.00    -0.083 Cl
ATOM     11  C   UNL     1      -0.206   6.273 -10.774  0.00  0.00    +0.011 A 
ATOM     12  C   UNL     1       0.383   6.563 -11.984  0.00  0.00    +0.001 A 
ATOM     13  C   UNL     1       1.758   6.613 -12.064  0.00  0.00    -0.000 A 
ATOM     14  C   UNL     1       2.526   6.123 -11.029  0.00  0.00    -0.002 A 
ENDBRANCH   1   8
BRANCH   1  16
ATOM     15  C   UNL     1       2.509   3.899  -8.390  0.00  0.00    +0.108 C 
ATOM     16  N   UNL     1       2.326   4.473  -8.086  0.00  0.00    -0.208 NA
ENDBRANCH   1  16
TORSDOF 2
ENDMDL
MODEL 3
REMARK VINA RESULT:      -6.3      2.250      3.644
REMARK  Name = 
REMARK  2 active torsions:
REMARK  status: ('A' for Active; 'I' for Inactive)
REMARK    1  A    between atoms: N_2  and  C_3
REMARK    2  A    between atoms: C_3  and  C_4
REMARK                            x       y       z     vdW  Elec       q    Type
REMARK                         _______ _______ _______ _____ _____    ______ ____
ROOT
ATOM      1  C   UNL     1       1.474   5.512  -7.274  0.00  0.00    +0.130 C 
ATOM      2  C   UNL     1       2.213   6.780  -7.495  0.00  0.00    +0.168 C 
ATOM      3  O   UNL     1       1.607   7.847  -7.559  0.00  0.00    -0.294 OA
ATOM      4  C   UNL     1       3.449   6.692  -8.336  0.00  0.00    +0.066 C 
ATOM      5  C   UNL     1       3.643   5.243  -8.685  0.00  0.00    +0.008 C 
ATOM      6  C   UNL     1       2.444   4.624  -9.349  0.00  0.00    +0.003 C 
ATOM      7  C   UNL     1       1.163   4.899  -8.610  0.00  0.00    +0.027 C 
ENDROOT
BRANCH   1   8
ATOM      8  C   UNL     1       0.219   5.851  -6.555  0.00  0.00    +0.009 A 
ATOM      9  C   UNL     1       0.291   6.266  -5.241  0.00  0.00    +0.055 A 
ATOM     10 CL   UNL     1       1.840   6.788  -4.643  0.00  0.00    -0.083 Cl
ATOM     11  C   UNL     1      -0.898   6.703  -4.673  0.00  0.00    +0.011 A 
ATOM     12  C   UNL     1      -2.111   6.439  -5.268  0.00  0.00    +0.001 A 
ATOM     13  C   UNL     1      -2.131   5.892  -6.533  0.00  0.00    -0.000 A 
ATOM     14  C   UNL     1      -0.974   5.377  -7.079  0.00  0.00    -0.002 A 
ENDBRANCH   1   8
BRANCH   1  16
ATOM     15  C   UNL     1       2.004   3.956  -6.328  0.00  0.00    +0.108 C 
ATOM     16  N   UNL     1       2.207   4.596  -6.401  0.00  0.00    -0.208 NA
ENDBRANCH   1  16
TORSDOF 2
ENDMDL
MODEL 4
REMARK VINA RESULT:      -6.3      4.021      5.542
REMARK  Name = 
REMARK  2 active torsions:
REMARK  status: ('A' for Active; 'I' for Inactive)
REMARK    1  A    between atoms: N_2  and  C_3
REMARK    2  A    between atoms: C_3  and  C_4
REMARK                            x       y       z     vdW  Elec       q    Type
REMARK                         _______ _______ _______ _____ _____    ______ ____
ROOT
ATOM      1  C   UNL     1      -1.414   6.536  -4.121  0.00  0.00    +0.130 C 
ATOM      2  C   UNL     1      -0.607   6.067  -2.967  0.00  0.00    +0.168 C 
ATOM      3  O   UNL     1       0.276   5.227  -3.129  0.00  0.00    -0.294 OA
ATOM      4  C   UNL     1      -1.305   6.016  -1.643  0.00  0.00    +0.066 C 
ATOM      5  C   UNL     1      -2.692   6.554  -1.855  0.00  0.00    +0.008 C 
ATOM      6  C   UNL     1      -3.450   5.837  -2.937  0.00  0.00    +0.003 C 
ATOM      7  C   UNL     1      -2.659   5.698  -4.208  0.00  0.00    +0.027 C 
ENDROOT
BRANCH   1   8
ATOM      8  C   UNL     1      -0.585   6.362  -5.341  0.00  0.00    +0.009 A 
ATOM      9  C   UNL     1      -1.067   5.582  -6.372  0.00  0.00    +0.055 A 
ATOM     10 CL   UNL     1      -2.769   5.217  -6.382  0.00  0.00    -0.083 Cl
ATOM     11  C   UNL     1      -0.310   5.577  -7.537  0.00  0.00    +0.011 A 
ATOM     12  C   UNL     1       0.983   6.049  -7.549  0.00  0.00    +0.001 A 
ATOM     13  C   UNL     1       1.467   6.702  -6.435  0.00  0.00    -0.000 A 
ATOM     14  C   UNL     1       0.769   6.648  -5.248  0.00  0.00    -0.002 A 
ENDBRANCH   1   8
BRANCH   1  16
ATOM     15  C   UNL     1      -1.860   8.319  -4.590  0.00  0.00    +0.108 C 
ATOM     16  N   UNL     1      -1.714   7.965  -4.034  0.00  0.00    -0.208 NA
ENDBRANCH   1  16
TORSDOF 2
ENDMDL
MODEL 5
REMARK VINA RESULT:      -6.2      2.112      4.401
REMARK  Name = 
REMARK  2 active torsions:
REMARK  status: ('A' for Active; 'I' for Inactive)
REMARK    1  A    between atoms: N_2  and  C_3
REMARK    2  A    between atoms: C_3  and  C_4
REMARK                            x       y       z     vdW  Elec       q    Type
REMARK                         _______ _______ _______ _____ _____    ______ ____
ROOT
ATOM      1  C   UNL     1       2.451   5.963  -4.562  0.00  0.00    +0.130 C 
ATOM      2  C   UNL     1       3.173   7.077  -5.226  0.00  0.00    +0.168 C 
ATOM      3  O   UNL     1       2.860   7.428  -6.362  0.00  0.00    -0.294 OA
ATOM      4  C   UNL     1       4.623   7.229  -4.884  0.00  0.00    +0.066 C 
ATOM      5  C   UNL     1       4.943   6.189  -3.848  0.00  0.00    +0.008 C 
ATOM      6  C   UNL     1       4.592   4.792  -4.279  0.00  0.00    +0.003 C 
ATOM      7  C   UNL     1       3.196   4.685  -4.826  0.00  0.00    +0.027 C 
ENDROOT
BRANCH   1   8
ATOM      8  C   UNL     1       1.090   5.903  -5.153  0.00  0.00    +0.009 A 
ATOM      9  C   UNL     1       0.863   5.065  -6.226  0.00  0.00    +0.055 A 
ATOM     10 CL   UNL     1       2.037   3.819  -6.540  0.00  0.00    -0.083 Cl
ATOM     11  C   UNL     1      -0.458   4.947  -6.638  0.00  0.00    +0.011 A 
ATOM     12  C   UNL     1      -1.417   5.844  -6.221  0.00  0.00    +0.001 A 
ATOM     13  C   UNL     1      -1.097   6.758  -5.240  0.00  0.00    -0.000 A 
ATOM     14  C   UNL     1       0.219   6.946  -4.878  0.00  0.00    -0.002 A 
ENDBRANCH   1   8
BRANCH   1  16
ATOM     15  C   UNL     1       1.868   5.803  -2.764  0.00  0.00    +0.108 C 
ATOM     16  N   UNL     1       2.263   6.209  -3.132  0.00  0.00    -0.208 NA
ENDBRANCH   1  16
TORSDOF 2
ENDMDL
MODEL 6
REMARK VINA RESULT:      -6.0      2.638      4.067
REMARK  Name = 
REMARK  2 active torsions:
REMARK  status: ('A' for Active; 'I' for Inactive)
REMARK    1  A    between atoms: N_2  and  C_3
REMARK    2  A    between atoms: C_3  and  C_4
REMARK                            x       y       z     vdW  Elec       q    Type
REMARK                         _______ _______ _______ _____ _____    ______ ____
ROOT
ATOM      1  C   UNL     1       3.264   5.604  -7.007  0.00  0.00    +0.130 C 
ATOM      2  C   UNL     1       2.614   4.287  -7.221  0.00  0.00    +0.168 C 
ATOM      3  O   UNL     1       2.444   3.858  -8.360  0.00  0.00    -0.294 OA
ATOM      4  C   UNL     1       1.572   3.888  -6.223  0.00  0.00    +0.066 C 
ATOM      5  C   UNL     1       1.521   4.971  -5.182  0.00  0.00    +0.008 C 
ATOM      6  C   UNL     1       1.281   6.340  -5.757  0.00  0.00    +0.003 C 
ATOM      7  C   UNL     1       2.194   6.655  -6.908  0.00  0.00    +0.027 C 
ENDROOT
BRANCH   1   8
ATOM      8  C   UNL     1       4.138   5.862  -8.179  0.00  0.00    +0.009 A 
ATOM      9  C   UNL     1       3.588   6.417  -9.317  0.00  0.00    +0.055 A 
ATOM     10 CL   UNL     1       2.031   7.182  -9.169  0.00  0.00    -0.083 Cl
ATOM     11  C   UNL     1       4.482   6.764 -10.320  0.00  0.00    +0.011 A 
ATOM     12  C   UNL     1       5.776   6.293 -10.315  0.00  0.00    +0.001 A 
ATOM     13  C   UNL     1       6.239   5.620  -9.205  0.00  0.00    -0.000 A 
ATOM     14  C   UNL     1       5.352   5.194  -8.239  0.00  0.00    -0.002 A 
ENDBRANCH   1   8
BRANCH   1  16
ATOM     15  C   UNL     1       4.496   6.148  -5.672  0.00  0.00    +0.108 C 
ATOM     16  N   UNL     1       4.143   5.597  -5.838  0.00  0.00    -0.208 NA
ENDBRANCH   1  16
TORSDOF 2
ENDMDL
MODEL 7
REMARK VINA RESULT:      -6.0      1.442      1.844
REMARK  Name = 
REMARK  2 active torsions:
REMARK  status: ('A' for Active; 'I' for Inactive)
REMARK    1  A    between atoms: N_2  and  C_3
REMARK    2  A    between atoms: C_3  and  C_4
REMARK                            x       y       z     vdW  Elec       q    Type
REMARK                         _______ _______ _______ _____ _____    ______ ____
ROOT
ATOM      1  C   UNL     1       1.662   5.959  -6.891  0.00  0.00    +0.130 C 
ATOM      2  C   UNL     1       1.888   6.941  -7.980  0.00  0.00    +0.168 C 
ATOM      3  O   UNL     1       2.146   8.113  -7.713  0.00  0.00    -0.294 OA
ATOM      4  C   UNL     1       1.112   6.726  -9.243  0.00  0.00    +0.066 C 
ATOM      5  C   UNL     1       0.325   5.458  -9.066  0.00  0.00    +0.008 C 
ATOM      6  C   UNL     1      -0.548   5.465  -7.842  0.00  0.00    +0.003 C 
ATOM      7  C   UNL     1       0.188   5.892  -6.603  0.00  0.00    +0.027 C 
ENDROOT
BRANCH   1   8
ATOM      8  C   UNL     1       2.402   6.443  -5.698  0.00  0.00    +0.009 A 
ATOM      9  C   UNL     1       1.717   6.626  -4.513  0.00  0.00    +0.055 A 
ATOM     10 CL   UNL     1       0.156   5.873  -4.359  0.00  0.00    -0.083 Cl
ATOM     11  C   UNL     1       2.491   6.941  -3.404  0.00  0.00    +0.011 A 
ATOM     12  C   UNL     1       3.796   7.358  -3.541  0.00  0.00    +0.001 A 
ATOM     13  C   UNL     1       4.395   7.286  -4.780  0.00  0.00    -0.000 A 
ATOM     14  C   UNL     1       3.629   7.056  -5.903  0.00  0.00    -0.002 A 
ENDBRANCH   1   8
BRANCH   1  16
ATOM     15  C   UNL     1       2.341   4.196  -6.724  0.00  0.00    +0.108 C 
ATOM     16  N   UNL     1       2.223   4.647  -7.212  0.00  0.00    -0.208 NA
ENDBRANCH   1  16
TORSDOF 2
ENDMDL
MODEL 8
REMARK VINA RESULT:      -6.0      2.217      4.294
REMARK  Name = 
REMARK  2 active torsions:
REMARK  status: ('A' for Active; 'I' for Inactive)
REMARK    1  A    between atoms: N_2  and  C_3
REMARK    2  A    between atoms: C_3  and  C_4
REMARK                            x       y       z     vdW  Elec       q    Type
REMARK                         _______ _______ _______ _____ _____    ______ ____
ROOT
ATOM      1  C   UNL     1       1.715   6.154  -6.398  0.00  0.00    +0.130 C 
ATOM      2  C   UNL     1       2.185   4.778  -6.696  0.00  0.00    +0.168 C 
ATOM      3  O   UNL     1       1.627   3.809  -6.185  0.00  0.00    -0.294 OA
ATOM      4  C   UNL     1       3.652   4.615  -6.948  0.00  0.00    +0.066 C 
ATOM      5  C   UNL     1       4.264   5.987  -6.892  0.00  0.00    +0.008 C 
ATOM      6  C   UNL     1       3.973   6.717  -5.610  0.00  0.00    +0.003 C 
ATOM      7  C   UNL     1       2.515   6.695  -5.245  0.00  0.00    +0.027 C 
ENDROOT
BRANCH   1   8
ATOM      8  C   UNL     1       0.278   6.062  -6.034  0.00  0.00    +0.009 A 
ATOM      9  C   UNL     1      -0.651   5.827  -7.027  0.00  0.00    +0.055 A 
ATOM     10 CL   UNL     1      -0.068   5.218  -8.550  0.00  0.00    -0.083 Cl
ATOM     11  C   UNL     1      -1.955   5.610  -6.603  0.00  0.00    +0.011 A 
ATOM     12  C   UNL     1      -2.350   5.927  -5.323  0.00  0.00    +0.001 A 
ATOM     13  C   UNL     1      -1.395   6.293  -4.399  0.00  0.00    -0.000 A 
ATOM     14  C   UNL     1      -0.115   6.593  -4.814  0.00  0.00    -0.002 A 
ENDBRANCH   1   8
BRANCH   1  16
ATOM     15  C   UNL     1       1.792   7.693  -7.503  0.00  0.00    +0.108 C 
ATOM     16  N   UNL     1       1.782   7.022  -7.573  0.00  0.00    -0.208 NA
ENDBRANCH   1  16
TORSDOF 2
ENDMDL
MODEL 9
REMARK VINA RESULT:      -6.0      2.855      4.324
REMARK  Name = 
REMARK  2 active torsions:
REMARK  status: ('A' for Active; 'I' for Inactive)
REMARK    1  A    between atoms: N_2  and  C_3
REMARK    2  A    between atoms: C_3  and  C_4
REMARK                            x       y       z     vdW  Elec       q    Type
REMARK                         _______ _______ _______ _____ _____    ______ ____
ROOT
ATOM      1  C   UNL     1       1.528   6.170  -5.130  0.00  0.00    +0.130 C 
ATOM      2  C   UNL     1       2.636   6.499  -4.198  0.00  0.00    +0.168 C 
ATOM      3  O   UNL     1       2.519   7.427  -3.399  0.00  0.00    -0.294 OA
ATOM      4  C   UNL     1       4.024   6.258  -4.703  0.00  0.00    +0.066 C 
ATOM      5  C   UNL     1       3.897   5.649  -6.071  0.00  0.00    +0.008 C 
ATOM      6  C   UNL     1       3.070   6.476  -7.017  0.00  0.00    +0.003 C 
ATOM      7  C   UNL     1       1.756   6.901  -6.423  0.00  0.00    +0.027 C 
ENDROOT
BRANCH   1   8
ATOM      8  C   UNL     1       0.265   6.624  -4.493  0.00  0.00    +0.009 A 
ATOM      9  C   UNL     1      -0.197   5.962  -3.375  0.00  0.00    +0.055 A 
ATOM     10 CL   UNL     1       0.923   4.939  -2.521  0.00  0.00    -0.083 Cl
ATOM     11  C   UNL     1      -1.301   6.523  -2.746  0.00  0.00    +0.011 A 
ATOM     12  C   UNL     1      -2.070   7.477  -3.375  0.00  0.00    +0.001 A 
ATOM     13  C   UNL     1      -1.631   8.011  -4.567  0.00  0.00    -0.000 A 
ATOM     14  C   UNL     1      -0.590   7.415  -5.246  0.00  0.00    -0.002 A 
ENDBRANCH   1   8
BRANCH   1  16
ATOM     15  C   UNL     1       0.978   4.485  -5.804  0.00  0.00    +0.108 C 
ATOM     16  N   UNL     1       1.388   4.728  -5.326  0.00  0.00    -0.208 NA
ENDBRANCH   1  16
TORSDOF 2
ENDMDL
