MODEL 1
REMARK VINA RESULT:      -5.6      0.000      0.000
REMARK  Name = 
REMARK  0 active torsions:
REMARK  status: ('A' for Active; 'I' for Inactive)
REMARK                            x       y       z     vdW  Elec       q    Type
REMARK                         _______ _______ _______ _____ _____    ______ ____
ROOT
ATOM      1  C   UNL     1       4.169   5.579 -13.090  0.00  0.00    +0.137 C 
ATOM      2  N   UNL     1       5.258   5.375 -12.155  0.00  0.00    -0.263 N 
ATOM      3  C   UNL     1       6.550   5.311 -12.556  0.00  0.00    +0.335 A 
ATOM      4  O   UNL     1       6.795   5.012 -13.739  0.00  0.00    -0.246 OA
ATOM      5  N   UNL     1       7.519   5.667 -11.677  0.00  0.00    -0.245 N 
ATOM      6  C   UNL     1       8.884   5.823 -12.114  0.00  0.00    +0.138 C 
ATOM      7  C   UNL     1       7.198   6.026 -10.410  0.00  0.00    +0.285 A 
ATOM      8  O   UNL     1       7.923   6.811  -9.730  0.00  0.00    -0.265 OA
ATOM      9  C   UNL     1       5.946   5.671  -9.927  0.00  0.00    +0.173 A 
ATOM     10  N   UNL     1       5.534   5.383  -8.691  0.00  0.00    -0.216 NA
ATOM     11  C   UNL     1       4.299   4.851  -8.837  0.00  0.00    +0.200 A 
ATOM     12  N   UNL     1       3.881   5.006 -10.117  0.00  0.00    -0.205 NA
ATOM     13  C   UNL     1       4.925   5.456 -10.842  0.00  0.00    +0.172 A 
ENDROOT
TORSDOF 0
ENDMDL
MODEL 2
REMARK VINA RESULT:      -5.5      1.030      3.076
REMARK  Name = 
REMARK  0 active torsions:
REMARK  status: ('A' for Active; 'I' for Inactive)
REMARK                            x       y       z     vdW  Elec       q    Type
REMARK                         _______ _______ _______ _____ _____    ______ ____
ROOT
ATOM      1  C   UNL     1       5.160   5.072  -8.444  0.00  0.00    +0.137 C 
ATOM      2  N   UNL     1       5.485   5.542  -9.776  0.00  0.00    -0.263 N 
ATOM      3  C   UNL     1       6.756   5.830 -10.147  0.00  0.00    +0.335 A 
ATOM      4  O   UNL     1       7.593   6.096  -9.264  0.00  0.00    -0.246 OA
ATOM      5  N   UNL     1       7.086   5.726 -11.458  0.00  0.00    -0.245 N 
ATOM      6  C   UNL     1       8.464   5.811 -11.875  0.00  0.00    +0.138 C 
ATOM      7  C   UNL     1       6.149   5.392 -12.378  0.00  0.00    +0.285 A 
ATOM      8  O   UNL     1       6.448   4.808 -13.460  0.00  0.00    -0.265 OA
ATOM      9  C   UNL     1       4.813   5.527 -12.027  0.00  0.00    +0.173 A 
ATOM     10  N   UNL     1       3.737   5.807 -12.767  0.00  0.00    -0.216 NA
ATOM     11  C   UNL     1       2.751   6.079 -11.882  0.00  0.00    +0.200 A 
ATOM     12  N   UNL     1       3.160   5.765 -10.629  0.00  0.00    -0.205 NA
ATOM     13  C   UNL     1       4.478   5.481 -10.681  0.00  0.00    +0.172 A 
ENDROOT
TORSDOF 0
ENDMDL
MODEL 3
REMARK VINA RESULT:      -5.2      7.858     10.323
REMARK  Name = 
REMARK  0 active torsions:
REMARK  status: ('A' for Active; 'I' for Inactive)
REMARK                            x       y       z     vdW  Elec       q    Type
REMARK                         _______ _______ _______ _____ _____    ______ ____
ROOT
ATOM      1  C   UNL     1       1.629   5.783  -2.357  0.00  0.00    +0.137 C 
ATOM      2  N   UNL     1       0.503   5.430  -3.199  0.00  0.00    -0.263 N 
ATOM      3  C   UNL     1      -0.764   5.375  -2.723  0.00  0.00    +0.335 A 
ATOM      4  O   UNL     1      -0.937   5.217  -1.500  0.00  0.00    -0.246 OA
ATOM      5  N   UNL     1      -1.789   5.588  -3.584  0.00  0.00    -0.245 N 
ATOM      6  C   UNL     1      -3.136   5.752  -3.094  0.00  0.00    +0.138 C 
ATOM      7  C   UNL     1      -1.547   5.798  -4.901  0.00  0.00    +0.285 A 
ATOM      8  O   UNL     1      -2.335   6.468  -5.631  0.00  0.00    -0.265 OA
ATOM      9  C   UNL     1      -0.309   5.426  -5.405  0.00  0.00    +0.173 A 
ATOM     10  N   UNL     1       0.051   5.000  -6.618  0.00  0.00    -0.216 NA
ATOM     11  C   UNL     1       1.312   4.530  -6.476  0.00  0.00    +0.200 A 
ATOM     12  N   UNL     1       1.788   4.856  -5.250  0.00  0.00    -0.205 NA
ATOM     13  C   UNL     1       0.765   5.359  -4.528  0.00  0.00    +0.172 A 
ENDROOT
TORSDOF 0
ENDMDL
MODEL 4
REMARK VINA RESULT:      -5.2      8.559     10.380
REMARK  Name = 
REMARK  0 active torsions:
REMARK  status: ('A' for Active; 'I' for Inactive)
REMARK                            x       y       z     vdW  Elec       q    Type
REMARK                         _______ _______ _______ _____ _____    ______ ____
ROOT
ATOM      1  C   UNL     1       0.263   6.785  -5.598  0.00  0.00    +0.137 C 
ATOM      2  N   UNL     1       0.122   6.003  -4.386  0.00  0.00    -0.263 N 
ATOM      3  C   UNL     1       1.193   5.597  -3.662  0.00  0.00    +0.335 A 
ATOM      4  O   UNL     1       2.303   5.525  -4.222  0.00  0.00    -0.246 OA
ATOM      5  N   UNL     1       1.031   5.378  -2.334  0.00  0.00    -0.245 N 
ATOM      6  C   UNL     1       2.174   5.156  -1.482  0.00  0.00    +0.138 C 
ATOM      7  C   UNL     1      -0.189   5.511  -1.760  0.00  0.00    +0.285 A 
ATOM      8  O   UNL     1      -0.328   5.812  -0.538  0.00  0.00    -0.265 OA
ATOM      9  C   UNL     1      -1.304   5.502  -2.587  0.00  0.00    +0.173 A 
ATOM     10  N   UNL     1      -2.554   5.085  -2.367  0.00  0.00    -0.216 NA
ATOM     11  C   UNL     1      -3.144   5.060  -3.584  0.00  0.00    +0.200 A 
ATOM     12  N   UNL     1      -2.337   5.651  -4.498  0.00  0.00    -0.205 NA
ATOM     13  C   UNL     1      -1.142   5.876  -3.913  0.00  0.00    +0.172 A 
ENDROOT
TORSDOF 0
ENDMDL
MODEL 5
REMARK VINA RESULT:      -5.2      7.312      8.893
REMARK  Name = 
REMARK  0 active torsions:
REMARK  status: ('A' for Active; 'I' for Inactive)
REMARK                            x       y       z     vdW  Elec       q    Type
REMARK                         _______ _______ _______ _____ _____    ______ ____
ROOT
ATOM      1  C   UNL     1      -0.479   5.660  -2.264  0.00  0.00    +0.137 C 
ATOM      2  N   UNL     1       0.258   5.633  -3.511  0.00  0.00    -0.263 N 
ATOM      3  C   UNL     1       1.612   5.633  -3.548  0.00  0.00    +0.335 A 
ATOM      4  O   UNL     1       2.238   6.067  -2.563  0.00  0.00    -0.246 OA
ATOM      5  N   UNL     1       2.231   5.073  -4.616  0.00  0.00    -0.245 N 
ATOM      6  C   UNL     1       3.656   4.854  -4.606  0.00  0.00    +0.138 C 
ATOM      7  C   UNL     1       1.505   4.574  -5.646  0.00  0.00    +0.285 A 
ATOM      8  O   UNL     1       1.938   3.641  -6.384  0.00  0.00    -0.265 OA
ATOM      9  C   UNL     1       0.181   4.974  -5.766  0.00  0.00    +0.173 A 
ATOM     10  N   UNL     1      -0.594   5.126  -6.842  0.00  0.00    -0.216 NA
ATOM     11  C   UNL     1      -1.692   5.784  -6.405  0.00  0.00    +0.200 A 
ATOM     12  N   UNL     1      -1.683   5.845  -5.051  0.00  0.00    -0.205 NA
ATOM     13  C   UNL     1      -0.481   5.404  -4.625  0.00  0.00    +0.172 A 
ENDROOT
TORSDOF 0
ENDMDL
MODEL 6
REMARK VINA RESULT:      -5.1      8.500     10.141
REMARK  Name = 
REMARK  0 active torsions:
REMARK  status: ('A' for Active; 'I' for Inactive)
REMARK                            x       y       z     vdW  Elec       q    Type
REMARK                         _______ _______ _______ _____ _____    ______ ____
ROOT
ATOM      1  C   UNL     1      -0.832   5.361  -6.875  0.00  0.00    +0.137 C 
ATOM      2  N   UNL     1      -0.769   5.780  -5.489  0.00  0.00    -0.263 N 
ATOM      3  C   UNL     1      -1.833   6.325  -4.852  0.00  0.00    +0.335 A 
ATOM      4  O   UNL     1      -2.732   6.853  -5.533  0.00  0.00    -0.246 OA
ATOM      5  N   UNL     1      -1.920   6.191  -3.506  0.00  0.00    -0.245 N 
ATOM      6  C   UNL     1      -3.128   6.561  -2.809  0.00  0.00    +0.138 C 
ATOM      7  C   UNL     1      -0.935   5.570  -2.812  0.00  0.00    +0.285 A 
ATOM      8  O   UNL     1      -1.155   4.983  -1.713  0.00  0.00    -0.265 OA
ATOM      9  C   UNL     1       0.300   5.418  -3.428  0.00  0.00    +0.173 A 
ATOM     10  N   UNL     1       1.533   5.375  -2.917  0.00  0.00    -0.216 NA
ATOM     11  C   UNL     1       2.366   5.482  -3.977  0.00  0.00    +0.200 A 
ATOM     12  N   UNL     1       1.659   5.379  -5.129  0.00  0.00    -0.205 NA
ATOM     13  C   UNL     1       0.347   5.409  -4.814  0.00  0.00    +0.172 A 
ENDROOT
TORSDOF 0
ENDMDL
MODEL 7
REMARK VINA RESULT:      -5.1      8.206     10.356
REMARK  Name = 
REMARK  0 active torsions:
REMARK  status: ('A' for Active; 'I' for Inactive)
REMARK                            x       y       z     vdW  Elec       q    Type
REMARK                         _______ _______ _______ _____ _____    ______ ____
ROOT
ATOM      1  C   UNL     1       2.106   5.031  -4.866  0.00  0.00    +0.137 C 
ATOM      2  N   UNL     1       0.882   5.497  -4.244  0.00  0.00    -0.263 N 
ATOM      3  C   UNL     1      -0.215   5.821  -4.969  0.00  0.00    +0.335 A 
ATOM      4  O   UNL     1      -0.074   6.122  -6.169  0.00  0.00    -0.246 OA
ATOM      5  N   UNL     1      -1.433   5.713  -4.383  0.00  0.00    -0.245 N 
ATOM      6  C   UNL     1      -2.637   5.837  -5.166  0.00  0.00    +0.138 C 
ATOM      7  C   UNL     1      -1.539   5.340  -3.084  0.00  0.00    +0.285 A 
ATOM      8  O   UNL     1      -2.567   4.754  -2.635  0.00  0.00    -0.265 OA
ATOM      9  C   UNL     1      -0.410   5.437  -2.283  0.00  0.00    +0.173 A 
ATOM     10  N   UNL     1      -0.282   5.676  -0.975  0.00  0.00    -0.216 NA
ATOM     11  C   UNL     1       1.033   5.926  -0.781  0.00  0.00    +0.200 A 
ATOM     12  N   UNL     1       1.727   5.638  -1.909  0.00  0.00    -0.205 NA
ATOM     13  C   UNL     1       0.836   5.395  -2.893  0.00  0.00    +0.172 A 
ENDROOT
TORSDOF 0
ENDMDL
MODEL 8
REMARK VINA RESULT:      -5.1      8.082      9.890
REMARK  Name = 
REMARK  0 active torsions:
REMARK  status: ('A' for Active; 'I' for Inactive)
REMARK                            x       y       z     vdW  Elec       q    Type
REMARK                         _______ _______ _______ _____ _____    ______ ____
ROOT
ATOM      1  C   UNL     1      -2.633   7.314  -5.267  0.00  0.00    +0.137 C 
ATOM      2  N   UNL     1      -1.729   6.295  -4.772  0.00  0.00    -0.263 N 
ATOM      3  C   UNL     1      -0.908   5.599  -5.595  0.00  0.00    +0.335 A 
ATOM      4  O   UNL     1      -1.199   5.519  -6.803  0.00  0.00    -0.246 OA
ATOM      5  N   UNL     1       0.244   5.098  -5.086  0.00  0.00    -0.245 N 
ATOM      6  C   UNL     1       1.248   4.540  -5.958  0.00  0.00    +0.138 C 
ATOM      7  C   UNL     1       0.537   5.248  -3.772  0.00  0.00    +0.285 A 
ATOM      8  O   UNL     1       1.729   5.271  -3.347  0.00  0.00    -0.265 OA
ATOM      9  C   UNL     1      -0.497   5.574  -2.905  0.00  0.00    +0.173 A 
ATOM     10  N   UNL     1      -0.686   5.280  -1.617  0.00  0.00    -0.216 NA
ATOM     11  C   UNL     1      -1.969   5.616  -1.354  0.00  0.00    +0.200 A 
ATOM     12  N   UNL     1      -2.490   6.296  -2.404  0.00  0.00    -0.205 NA
ATOM     13  C   UNL     1      -1.609   6.224  -3.423  0.00  0.00    +0.172 A 
ENDROOT
TORSDOF 0
ENDMDL
MODEL 9
REMARK VINA RESULT:      -5.1      3.246      4.855
REMARK  Name = 
REMARK  0 active torsions:
REMARK  status: ('A' for Active; 'I' for Inactive)
REMARK                            x       y       z     vdW  Elec       q    Type
REMARK                         _______ _______ _______ _____ _____    ______ ____
ROOT
ATOM      1  C   UNL     1       4.712   5.350 -11.131  0.00  0.00    +0.137 C 
ATOM      2  N   UNL     1       3.742   5.653 -10.097  0.00  0.00    -0.263 N 
ATOM      3  C   UNL     1       4.047   5.581  -8.779  0.00  0.00    +0.335 A 
ATOM      4  O   UNL     1       5.006   4.869  -8.424  0.00  0.00    -0.246 OA
ATOM      5  N   UNL     1       3.356   6.359  -7.911  0.00  0.00    -0.245 N 
ATOM      6  C   UNL     1       3.780   6.481  -6.538  0.00  0.00    +0.138 C 
ATOM      7  C   UNL     1       2.348   7.151  -8.352  0.00  0.00    +0.285 A 
ATOM      8  O   UNL     1       2.016   8.215  -7.751  0.00  0.00    -0.265 OA
ATOM      9  C   UNL     1       1.799   6.877  -9.597  0.00  0.00    +0.173 A 
ATOM     10  N   UNL     1       0.563   7.055 -10.068  0.00  0.00    -0.216 NA
ATOM     11  C   UNL     1       0.520   6.374 -11.236  0.00  0.00    +0.200 A 
ATOM     12  N   UNL     1       1.767   5.965 -11.575  0.00  0.00    -0.205 NA
ATOM     13  C   UNL     1       2.581   6.207 -10.527  0.00  0.00    +0.172 A 
ENDROOT
TORSDOF 0
ENDMDL
