MODEL 1
REMARK VINA RESULT:      -5.4      0.000      0.000
REMARK  Name = 
REMARK  3 active torsions:
REMARK  status: ('A' for Active; 'I' for Inactive)
REMARK    1  A    between atoms: N_2  and  C_3
REMARK    2  A    between atoms: C_3  and  C_5
REMARK    3  A    between atoms: C_5  and  C_7
REMARK                            x       y       z     vdW  Elec       q    Type
REMARK                         _______ _______ _______ _____ _____    ______ ____
ROOT
ATOM      1  C   UNL     1       3.922   5.318 -10.705  0.00  0.00    +0.190 C 
ATOM      2  O   UNL     1       3.388   6.578 -11.414  0.00  0.00    -0.217 OA
ENDROOT
BRANCH   1   3
ATOM      3  C   UNL     1       5.162   6.177 -10.057  0.00  0.00    +0.009 A 
ATOM      4  C   UNL     1       6.303   5.492  -9.780  0.00  0.00    -0.002 A 
ATOM      5  C   UNL     1       7.427   6.271  -9.537  0.00  0.00    -0.000 A 
ATOM      6  C   UNL     1       7.704   7.227 -10.509  0.00  0.00    -0.000 A 
ATOM      7  C   UNL     1       6.611   7.786 -11.130  0.00  0.00    -0.000 A 
ATOM      8  C   UNL     1       5.342   7.254 -10.926  0.00  0.00    -0.002 A 
ENDBRANCH   1   3
BRANCH   1   9
ATOM      9  C   UNL     1       2.853   5.594  -9.338  0.00  0.00    +0.107 C 
ATOM     10  C   UNL     1       3.199   4.098  -8.740  0.00  0.00    +0.022 C 
BRANCH   9  12
ATOM     11  C   UNL     1       1.019   4.975  -9.631  0.00  0.00    +0.108 C 
ATOM     12  N   UNL     1       1.615   5.048 -10.147  0.00  0.00    -0.215 NA
ENDBRANCH   9  12
ENDBRANCH   1   9
TORSDOF 3
ENDMDL
MODEL 2
REMARK VINA RESULT:      -5.3      1.671      2.333
REMARK  Name = 
REMARK  3 active torsions:
REMARK  status: ('A' for Active; 'I' for Inactive)
REMARK    1  A    between atoms: N_2  and  C_3
REMARK    2  A    between atoms: C_3  and  C_5
REMARK    3  A    between atoms: C_5  and  C_7
REMARK                            x       y       z     vdW  Elec       q    Type
REMARK                         _______ _______ _______ _____ _____    ______ ____
ROOT
ATOM      1  C   UNL     1       4.140   6.035  -8.632  0.00  0.00    +0.190 C 
ATOM      2  O   UNL     1       5.257   5.403  -7.779  0.00  0.00    -0.217 OA
ENDROOT
BRANCH   1   3
ATOM      3  C   UNL     1       5.127   6.073  -9.944  0.00  0.00    +0.009 A 
ATOM      4  C   UNL     1       5.076   7.189 -10.717  0.00  0.00    -0.002 A 
ATOM      5  C   UNL     1       6.121   7.342 -11.619  0.00  0.00    -0.000 A 
ATOM      6  C   UNL     1       7.395   7.237 -11.070  0.00  0.00    -0.000 A 
ATOM      7  C   UNL     1       7.526   6.354 -10.023  0.00  0.00    -0.000 A 
ATOM      8  C   UNL     1       6.398   5.786  -9.441  0.00  0.00    -0.002 A 
ENDBRANCH   1   3
BRANCH   1   9
ATOM      9  C   UNL     1       3.489   4.449  -9.013  0.00  0.00    +0.107 C 
ATOM     10  C   UNL     1       2.184   5.138  -9.746  0.00  0.00    +0.022 C 
BRANCH   9  12
ATOM     11  C   UNL     1       2.245   3.764  -7.666  0.00  0.00    +0.108 C 
ATOM     12  N   UNL     1       2.744   4.378  -7.626  0.00  0.00    -0.215 NA
ENDBRANCH   9  12
ENDBRANCH   1   9
TORSDOF 3
ENDMDL
MODEL 3
REMARK VINA RESULT:      -5.3      3.785      6.782
REMARK  Name = 
REMARK  3 active torsions:
REMARK  status: ('A' for Active; 'I' for Inactive)
REMARK    1  A    between atoms: N_2  and  C_3
REMARK    2  A    between atoms: C_3  and  C_5
REMARK    3  A    between atoms: C_5  and  C_7
REMARK                            x       y       z     vdW  Elec       q    Type
REMARK                         _______ _______ _______ _____ _____    ______ ____
ROOT
ATOM      1  C   UNL     1       1.032   6.009  -7.750  0.00  0.00    +0.190 C 
ATOM      2  O   UNL     1       0.039   5.210  -8.617  0.00  0.00    -0.217 OA
ENDROOT
BRANCH   1   3
ATOM      3  C   UNL     1       0.061   5.840  -6.436  0.00  0.00    +0.009 A 
ATOM      4  C   UNL     1      -0.018   6.903  -5.593  0.00  0.00    -0.002 A 
ATOM      5  C   UNL     1      -1.065   6.868  -4.681  0.00  0.00    -0.000 A 
ATOM      6  C   UNL     1      -2.322   6.641  -5.233  0.00  0.00    -0.000 A 
ATOM      7  C   UNL     1      -2.354   5.817  -6.334  0.00  0.00    -0.000 A 
ATOM      8  C   UNL     1      -1.170   5.431  -6.954  0.00  0.00    -0.002 A 
ENDBRANCH   1   3
BRANCH   1   9
ATOM      9  C   UNL     1       1.955   4.554  -7.408  0.00  0.00    +0.107 C 
ATOM     10  C   UNL     1       3.141   5.449  -6.696  0.00  0.00    +0.022 C 
BRANCH   9  12
ATOM     11  C   UNL     1       3.260   4.105  -8.796  0.00  0.00    +0.108 C 
ATOM     12  N   UNL     1       2.664   4.627  -8.814  0.00  0.00    -0.215 NA
ENDBRANCH   9  12
ENDBRANCH   1   9
TORSDOF 3
ENDMDL
MODEL 4
REMARK VINA RESULT:      -5.3      5.590      7.858
REMARK  Name = 
REMARK  3 active torsions:
REMARK  status: ('A' for Active; 'I' for Inactive)
REMARK    1  A    between atoms: N_2  and  C_3
REMARK    2  A    between atoms: C_3  and  C_5
REMARK    3  A    between atoms: C_5  and  C_7
REMARK                            x       y       z     vdW  Elec       q    Type
REMARK                         _______ _______ _______ _____ _____    ______ ____
ROOT
ATOM      1  C   UNL     1       0.913   5.226  -4.577  0.00  0.00    +0.190 C 
ATOM      2  O   UNL     1       1.309   6.517  -3.834  0.00  0.00    -0.217 OA
ENDROOT
BRANCH   1   3
ATOM      3  C   UNL     1      -0.218   6.041  -5.445  0.00  0.00    +0.009 A 
ATOM      4  C   UNL     1      -1.333   5.350  -5.798  0.00  0.00    -0.002 A 
ATOM      5  C   UNL     1      -2.400   6.120  -6.244  0.00  0.00    -0.000 A 
ATOM      6  C   UNL     1      -2.769   7.163  -5.400  0.00  0.00    -0.000 A 
ATOM      7  C   UNL     1      -1.744   7.760  -4.702  0.00  0.00    -0.000 A 
ATOM      8  C   UNL     1      -0.474   7.194  -4.702  0.00  0.00    -0.002 A 
ENDBRANCH   1   3
BRANCH   1   9
ATOM      9  C   UNL     1       2.185   5.479  -5.763  0.00  0.00    +0.107 C 
ATOM     10  C   UNL     1       1.927   3.977  -6.390  0.00  0.00    +0.022 C 
BRANCH   9  12
ATOM     11  C   UNL     1       3.978   5.020  -5.125  0.00  0.00    +0.108 C 
ATOM     12  N   UNL     1       3.277   4.937  -4.764  0.00  0.00    -0.215 NA
ENDBRANCH   9  12
ENDBRANCH   1   9
TORSDOF 3
ENDMDL
MODEL 5
REMARK VINA RESULT:      -5.1      5.601      7.713
REMARK  Name = 
REMARK  3 active torsions:
REMARK  status: ('A' for Active; 'I' for Inactive)
REMARK    1  A    between atoms: N_2  and  C_3
REMARK    2  A    between atoms: C_3  and  C_5
REMARK    3  A    between atoms: C_5  and  C_7
REMARK                            x       y       z     vdW  Elec       q    Type
REMARK                         _______ _______ _______ _____ _____    ______ ____
ROOT
ATOM      1  C   UNL     1       1.452   6.261  -5.885  0.00  0.00    +0.190 C 
ATOM      2  O   UNL     1       1.214   4.939  -6.641  0.00  0.00    -0.217 OA
ENDROOT
BRANCH   1   3
ATOM      3  C   UNL     1      -0.066   6.208  -5.261  0.00  0.00    +0.009 A 
ATOM      4  C   UNL     1      -0.647   7.400  -4.962  0.00  0.00    -0.002 A 
ATOM      5  C   UNL     1      -2.018   7.360  -4.742  0.00  0.00    -0.000 A 
ATOM      6  C   UNL     1      -2.759   6.740  -5.743  0.00  0.00    -0.000 A 
ATOM      7  C   UNL     1      -2.143   5.688  -6.382  0.00  0.00    -0.000 A 
ATOM      8  C   UNL     1      -0.794   5.430  -6.163  0.00  0.00    -0.002 A 
ENDBRANCH   1   3
BRANCH   1   9
ATOM      9  C   UNL     1       2.171   5.398  -4.534  0.00  0.00    +0.107 C 
ATOM     10  C   UNL     1       2.665   6.819  -3.862  0.00  0.00    +0.022 C 
BRANCH   9  12
ATOM     11  C   UNL     1       4.065   4.977  -4.788  0.00  0.00    +0.108 C 
ATOM     12  N   UNL     1       3.529   5.227  -5.315  0.00  0.00    -0.215 NA
ENDBRANCH   9  12
ENDBRANCH   1   9
TORSDOF 3
ENDMDL
MODEL 6
REMARK VINA RESULT:      -4.9      3.965      6.928
REMARK  Name = 
REMARK  3 active torsions:
REMARK  status: ('A' for Active; 'I' for Inactive)
REMARK    1  A    between atoms: N_2  and  C_3
REMARK    2  A    between atoms: C_3  and  C_5
REMARK    3  A    between atoms: C_5  and  C_7
REMARK                            x       y       z     vdW  Elec       q    Type
REMARK                         _______ _______ _______ _____ _____    ______ ____
ROOT
ATOM      1  C   UNL     1       1.423   5.264  -6.690  0.00  0.00    +0.190 C 
ATOM      2  O   UNL     1       2.002   6.352  -5.766  0.00  0.00    -0.217 OA
ENDROOT
BRANCH   1   3
ATOM      3  C   UNL     1      -0.041   6.009  -6.694  0.00  0.00    +0.009 A 
ATOM      4  C   UNL     1      -1.136   5.206  -6.739  0.00  0.00    -0.002 A 
ATOM      5  C   UNL     1      -2.342   5.820  -6.425  0.00  0.00    -0.000 A 
ATOM      6  C   UNL     1      -2.352   6.523  -5.224  0.00  0.00    -0.000 A 
ATOM      7  C   UNL     1      -1.169   7.133  -4.877  0.00  0.00    -0.000 A 
ATOM      8  C   UNL     1      -0.006   6.865  -5.592  0.00  0.00    -0.002 A 
ENDBRANCH   1   3
BRANCH   1   9
ATOM      9  C   UNL     1       2.000   6.118  -8.113  0.00  0.00    +0.107 C 
ATOM     10  C   UNL     1       1.603   4.836  -9.069  0.00  0.00    +0.022 C 
BRANCH   9  12
ATOM     11  C   UNL     1       3.883   5.784  -8.532  0.00  0.00    +0.108 C 
ATOM     12  N   UNL     1       3.463   5.574  -7.893  0.00  0.00    -0.215 NA
ENDBRANCH   9  12
ENDBRANCH   1   9
TORSDOF 3
ENDMDL
MODEL 7
REMARK VINA RESULT:      -4.8      1.935      2.650
REMARK  Name = 
REMARK  3 active torsions:
REMARK  status: ('A' for Active; 'I' for Inactive)
REMARK    1  A    between atoms: N_2  and  C_3
REMARK    2  A    between atoms: C_3  and  C_5
REMARK    3  A    between atoms: C_5  and  C_7
REMARK                            x       y       z     vdW  Elec       q    Type
REMARK                         _______ _______ _______ _____ _____    ______ ____
ROOT
ATOM      1  C   UNL     1       5.016   6.699 -10.591  0.00  0.00    +0.190 C 
ATOM      2  O   UNL     1       5.677   6.063  -9.353  0.00  0.00    -0.217 OA
ENDROOT
BRANCH   1   3
ATOM      3  C   UNL     1       6.080   5.937 -11.583  0.00  0.00    +0.009 A 
ATOM      4  C   UNL     1       6.418   6.583 -12.730  0.00  0.00    -0.002 A 
ATOM      5  C   UNL     1       7.536   6.087 -13.389  0.00  0.00    -0.000 A 
ATOM      6  C   UNL     1       8.674   5.950 -12.601  0.00  0.00    -0.000 A 
ATOM      7  C   UNL     1       8.456   5.610 -11.286  0.00  0.00    -0.000 A 
ATOM      8  C   UNL     1       7.166   5.623 -10.765  0.00  0.00    -0.002 A 
ENDBRANCH   1   3
BRANCH   1   9
ATOM      9  C   UNL     1       3.830   5.405 -10.665  0.00  0.00    +0.107 C 
ATOM     10  C   UNL     1       3.009   6.197 -11.853  0.00  0.00    +0.022 C 
BRANCH   9  12
ATOM     11  C   UNL     1       2.273   5.695  -9.514  0.00  0.00    +0.108 C 
ATOM     12  N   UNL     1       2.963   6.082  -9.535  0.00  0.00    -0.215 NA
ENDBRANCH   9  12
ENDBRANCH   1   9
TORSDOF 3
ENDMDL
MODEL 8
REMARK VINA RESULT:      -4.8      4.071      5.175
REMARK  Name = 
REMARK  3 active torsions:
REMARK  status: ('A' for Active; 'I' for Inactive)
REMARK    1  A    between atoms: N_2  and  C_3
REMARK    2  A    between atoms: C_3  and  C_5
REMARK    3  A    between atoms: C_5  and  C_7
REMARK                            x       y       z     vdW  Elec       q    Type
REMARK                         _______ _______ _______ _____ _____    ______ ____
ROOT
ATOM      1  C   UNL     1       2.362   5.566  -6.522  0.00  0.00    +0.190 C 
ATOM      2  O   UNL     1       2.542   4.086  -6.132  0.00  0.00    -0.217 OA
ENDROOT
BRANCH   1   3
ATOM      3  C   UNL     1       3.773   5.960  -5.778  0.00  0.00    +0.009 A 
ATOM      4  C   UNL     1       3.871   7.221  -5.281  0.00  0.00    -0.002 A 
ATOM      5  C   UNL     1       4.919   7.435  -4.395  0.00  0.00    -0.000 A 
ATOM      6  C   UNL     1       4.993   6.532  -3.339  0.00  0.00    -0.000 A 
ATOM      7  C   UNL     1       4.596   5.245  -3.621  0.00  0.00    -0.000 A 
ATOM      8  C   UNL     1       3.966   4.956  -4.827  0.00  0.00    -0.002 A 
ENDBRANCH   1   3
BRANCH   1   9
ATOM      9  C   UNL     1       3.120   5.282  -8.081  0.00  0.00    +0.107 C 
ATOM     10  C   UNL     1       2.746   6.812  -8.565  0.00  0.00    +0.022 C 
BRANCH   9  12
ATOM     11  C   UNL     1       1.873   4.661  -9.457  0.00  0.00    +0.108 C 
ATOM     12  N   UNL     1       1.777   4.705  -8.672  0.00  0.00    -0.215 NA
ENDBRANCH   9  12
ENDBRANCH   1   9
TORSDOF 3
ENDMDL
MODEL 9
REMARK VINA RESULT:      -4.8      5.599      6.176
REMARK  Name = 
REMARK  3 active torsions:
REMARK  status: ('A' for Active; 'I' for Inactive)
REMARK    1  A    between atoms: N_2  and  C_3
REMARK    2  A    between atoms: C_3  and  C_5
REMARK    3  A    between atoms: C_5  and  C_7
REMARK                            x       y       z     vdW  Elec       q    Type
REMARK                         _______ _______ _______ _____ _____    ______ ____
ROOT
ATOM      1  C   UNL     1       0.860   5.374  -4.740  0.00  0.00    +0.190 C 
ATOM      2  O   UNL     1       1.267   4.230  -5.688  0.00  0.00    -0.217 OA
ENDROOT
BRANCH   1   3
ATOM      3  C   UNL     1       2.318   6.101  -4.949  0.00  0.00    +0.009 A 
ATOM      4  C   UNL     1       2.722   6.956  -3.973  0.00  0.00    -0.002 A 
ATOM      5  C   UNL     1       4.065   7.310  -4.003  0.00  0.00    -0.000 A 
ATOM      6  C   UNL     1       4.955   6.242  -4.058  0.00  0.00    -0.000 A 
ATOM      7  C   UNL     1       4.527   5.139  -4.761  0.00  0.00    -0.000 A 
ATOM      8  C   UNL     1       3.207   5.052  -5.190  0.00  0.00    -0.002 A 
ENDBRANCH   1   3
BRANCH   1   9
ATOM      9  C   UNL     1       0.098   6.244  -6.062  0.00  0.00    +0.107 C 
ATOM     10  C   UNL     1      -0.610   7.284  -4.998  0.00  0.00    +0.022 C 
BRANCH   9  12
ATOM     11  C   UNL     1      -1.704   5.608  -6.486  0.00  0.00    +0.108 C 
ATOM     12  N   UNL     1      -1.146   5.276  -6.033  0.00  0.00    -0.215 NA
ENDBRANCH   9  12
ENDBRANCH   1   9
TORSDOF 3
ENDMDL
