MODEL 1
REMARK VINA RESULT:      -6.6      0.000      0.000
REMARK  Name = 
REMARK  7 active torsions:
REMARK  status: ('A' for Active; 'I' for Inactive)
REMARK    1  A    between atoms: N_2  and  C_4
REMARK    2  A    between atoms: C_6  and  N_7
REMARK    3  A    between atoms: C_8  and  C_10
REMARK    4  A    between atoms: C_10  and  N_11
REMARK    5  A    between atoms: N_11  and  C_12
REMARK    6  A    between atoms: C_24  and  N_25
REMARK    7  A    between atoms: C_30  and  C_31
REMARK                            x       y       z     vdW  Elec       q    Type
REMARK                         _______ _______ _______ _____ _____    ______ ____
ROOT
ATOM      1  C   UNL     1       4.038   6.849 -11.124  0.00  0.00    +0.045 A 
ATOM      2  C   UNL     1       3.268   6.622  -9.988  0.00  0.00    -0.002 A 
ATOM      3  C   UNL     1       3.531   7.257  -8.683  0.00  0.00    +0.032 C 
ATOM      4  C   UNL     1       4.051   6.040  -7.728  0.00  0.00    +0.033 C 
ATOM      5  C   UNL     1       2.676   5.225  -7.718  0.00  0.00    +0.054 C 
ATOM      6  C   UNL     1       1.782   5.170  -8.793  0.00  0.00    +0.197 C 
ATOM      7  O   UNL     1       1.010   4.168  -8.894  0.00  0.00    -0.287 OA
ATOM      8  C   UNL     1       2.875   4.274  -6.799  0.00  0.00    +0.207 C 
ATOM      9  O   UNL     1       2.107   3.110  -6.943  0.00  0.00    -0.289 OA
ATOM     10  C   UNL     1       3.157   4.632  -5.369  0.00  0.00    +0.237 C 
ATOM     11  C   UNL     1       4.341   5.705  -5.393  0.00  0.00    +0.065 C 
ATOM     12  C   UNL     1       4.059   6.546  -3.927  0.00  0.00    +0.124 C 
ATOM     13  C   UNL     1       2.599   7.119  -4.225  0.00  0.00    +0.195 C 
ATOM     14  C   UNL     1       1.604   6.353  -4.435  0.00  0.00    +0.130 C 
ATOM     15  O   UNL     1       2.408   8.284  -3.466  0.00  0.00    -0.290 OA
ATOM     16  O   UNL     1       3.691   3.436  -4.848  0.00  0.00    -0.210 OA
ATOM     17  C   UNL     1       1.938   5.012  -4.827  0.00  0.00    +0.215 C 
ATOM     18  O   UNL     1       0.969   4.218  -5.020  0.00  0.00    -0.288 OA
ATOM     19  C   UNL     1       3.601   6.799  -6.347  0.00  0.00    +0.010 C 
ATOM     20  C   UNL     1       2.083   5.895 -10.033  0.00  0.00    +0.076 A 
ATOM     21  C   UNL     1       1.504   5.621 -11.240  0.00  0.00    +0.214 A 
ATOM     22  O   UNL     1       0.427   4.767 -11.295  0.00  0.00    -0.285 OA
ATOM     23  C   UNL     1       2.162   6.064 -12.370  0.00  0.00    +0.114 A 
ATOM     24  C   UNL     1       3.536   6.250 -12.276  0.00  0.00    +0.034 A 
ENDROOT
BRANCH  14  25
ATOM     25  C   UNL     1       0.333   6.980  -4.830  0.00  0.00    +0.290 C 
ATOM     26  O   UNL     1       0.075   7.246  -6.030  0.00  0.00    -0.266 OA
ATOM     27  N   UNL     1      -0.760   6.909  -3.908  0.00  0.00    -0.084 NA
ENDBRANCH  14  25
BRANCH  12  28
ATOM     28  N   UNL     1       3.564   5.307  -3.092  0.00  0.00    -0.265 NA
ATOM     29  C   UNL     1       4.868   4.902  -2.546  0.00  0.00    +0.090 C 
ATOM     30  C   UNL     1       2.949   5.989  -1.946  0.00  0.00    +0.090 C 
ENDBRANCH  12  28
BRANCH   1  32
ATOM     31  C   UNL     1       5.970   7.500 -10.917  0.00  0.00    +0.112 C 
ATOM     32  N   UNL     1       5.454   6.878 -10.863  0.00  0.00    -0.304 N 
ATOM     33  C   UNL     1       5.999   5.517 -10.757  0.00  0.00    +0.112 C 
ENDBRANCH   1  32
BRANCH  23  34
ATOM     34  N   UNL     1       1.453   6.110 -13.602  0.00  0.00    -0.175 NA
ATOM     35  C   UNL     1       0.991   7.344 -14.115  0.00  0.00    +0.263 C 
ATOM     36  O   UNL     1       0.447   8.123 -13.290  0.00  0.00    -0.271 OA
BRANCH  35  37
ATOM     37  C   UNL     1       1.345   7.884 -15.458  0.00  0.00    +0.176 C 
BRANCH  37  38
ATOM     38  N   UNL     1       0.381   8.859 -15.908  0.00  0.00    -0.211 NA
BRANCH  38  39
ATOM     39  C   UNL     1       1.040  10.087 -16.271  0.00  0.00    +0.060 C 
ATOM     40  C   UNL     1       0.359  10.670 -17.493  0.00  0.00    +0.017 C 
ATOM     41  C   UNL     1       0.998  11.113 -15.171  0.00  0.00    +0.017 C 
ATOM     42  C   UNL     1       2.480   9.805 -16.613  0.00  0.00    +0.017 C 
ENDBRANCH  38  39
ENDBRANCH  37  38
ENDBRANCH  35  37
ENDBRANCH  23  34
TORSDOF 7
ENDMDL
MODEL 2
REMARK VINA RESULT:      -6.1      2.949      9.710
REMARK  Name = 
REMARK  7 active torsions:
REMARK  status: ('A' for Active; 'I' for Inactive)
REMARK    1  A    between atoms: N_2  and  C_4
REMARK    2  A    between atoms: C_6  and  N_7
REMARK    3  A    between atoms: C_8  and  C_10
REMARK    4  A    between atoms: C_10  and  N_11
REMARK    5  A    between atoms: N_11  and  C_12
REMARK    6  A    between atoms: C_24  and  N_25
REMARK    7  A    between atoms: C_30  and  C_31
REMARK                            x       y       z     vdW  Elec       q    Type
REMARK                         _______ _______ _______ _____ _____    ______ ____
ROOT
ATOM      1  C   UNL     1      -0.012   7.256  -4.020  0.00  0.00    +0.045 A 
ATOM      2  C   UNL     1       0.992   6.798  -4.866  0.00  0.00    -0.002 A 
ATOM      3  C   UNL     1       1.320   7.428  -6.159  0.00  0.00    +0.032 C 
ATOM      4  C   UNL     1       0.837   6.344  -7.280  0.00  0.00    +0.033 C 
ATOM      5  C   UNL     1       1.895   5.209  -6.894  0.00  0.00    +0.054 C 
ATOM      6  C   UNL     1       2.363   4.973  -5.597  0.00  0.00    +0.197 C 
ATOM      7  O   UNL     1       2.787   3.814  -5.302  0.00  0.00    -0.287 OA
ATOM      8  C   UNL     1       1.763   4.304  -7.869  0.00  0.00    +0.207 C 
ATOM      9  O   UNL     1       2.128   2.990  -7.543  0.00  0.00    -0.289 OA
ATOM     10  C   UNL     1       2.043   4.665  -9.299  0.00  0.00    +0.237 C 
ATOM     11  C   UNL     1       1.220   6.001  -9.601  0.00  0.00    +0.065 C 
ATOM     12  C   UNL     1       2.150   6.686 -10.867  0.00  0.00    +0.124 C 
ATOM     13  C   UNL     1       3.537   6.884 -10.103  0.00  0.00    +0.195 C 
ATOM     14  C   UNL     1       4.190   5.902  -9.624  0.00  0.00    +0.130 C 
ATOM     15  O   UNL     1       4.242   7.933 -10.713  0.00  0.00    -0.290 OA
ATOM     16  O   UNL     1       1.417   3.622 -10.012  0.00  0.00    -0.210 OA
ATOM     17  C   UNL     1       3.424   4.704  -9.415  0.00  0.00    +0.215 C 
ATOM     18  O   UNL     1       4.052   3.699  -8.963  0.00  0.00    -0.288 OA
ATOM     19  C   UNL     1       1.874   6.910  -8.417  0.00  0.00    +0.010 C 
ATOM     20  C   UNL     1       1.880   5.798  -4.483  0.00  0.00    +0.076 A 
ATOM     21  C   UNL     1       1.963   5.435  -3.169  0.00  0.00    +0.214 A 
ATOM     22  O   UNL     1       2.718   4.340  -2.816  0.00  0.00    -0.285 OA
ATOM     23  C   UNL     1       1.118   6.073  -2.284  0.00  0.00    +0.114 A 
ATOM     24  C   UNL     1      -0.065   6.595  -2.795  0.00  0.00    +0.034 A 
ENDROOT
BRANCH  14  25
ATOM     25  C   UNL     1       5.387   6.203  -8.825  0.00  0.00    +0.290 C 
ATOM     26  O   UNL     1       5.355   6.213  -7.570  0.00  0.00    -0.266 OA
ATOM     27  N   UNL     1       6.663   6.081  -9.463  0.00  0.00    -0.084 NA
ENDBRANCH  14  25
BRANCH  12  28
ATOM     28  N   UNL     1       2.554   5.331 -11.558  0.00  0.00    -0.265 NA
ATOM     29  C   UNL     1       1.424   5.241 -12.494  0.00  0.00    +0.090 C 
ATOM     30  C   UNL     1       3.641   5.792 -12.430  0.00  0.00    +0.090 C 
ENDBRANCH  12  28
BRANCH   1  32
ATOM     31  C   UNL     1      -1.590   8.351  -4.736  0.00  0.00    +0.112 C 
ATOM     32  N   UNL     1      -1.220   7.630  -4.709  0.00  0.00    -0.304 N 
ATOM     33  C   UNL     1      -1.953   6.443  -5.171  0.00  0.00    +0.112 C 
ENDBRANCH   1  32
BRANCH  23  34
ATOM     34  N   UNL     1       1.392   5.988  -0.891  0.00  0.00    -0.175 NA
ATOM     35  C   UNL     1       1.883   7.112  -0.189  0.00  0.00    +0.263 C 
ATOM     36  O   UNL     1       2.794   7.769  -0.755  0.00  0.00    -0.271 OA
BRANCH  35  37
ATOM     37  C   UNL     1       1.224   7.715   1.004  0.00  0.00    +0.176 C 
BRANCH  37  38
ATOM     38  N   UNL     1       0.184   8.640   0.625  0.00  0.00    -0.211 NA
BRANCH  38  39
ATOM     39  C   UNL     1      -1.065   8.273   1.240  0.00  0.00    +0.060 C 
ATOM     40  C   UNL     1      -0.796   7.270   2.344  0.00  0.00    +0.017 C 
ATOM     41  C   UNL     1      -1.784   9.453   1.837  0.00  0.00    +0.017 C 
ATOM     42  C   UNL     1      -1.962   7.629   0.216  0.00  0.00    +0.017 C 
ENDBRANCH  38  39
ENDBRANCH  37  38
ENDBRANCH  35  37
ENDBRANCH  23  34
TORSDOF 7
ENDMDL
MODEL 3
REMARK VINA RESULT:      -5.8      2.939      9.722
REMARK  Name = 
REMARK  7 active torsions:
REMARK  status: ('A' for Active; 'I' for Inactive)
REMARK    1  A    between atoms: N_2  and  C_4
REMARK    2  A    between atoms: C_6  and  N_7
REMARK    3  A    between atoms: C_8  and  C_10
REMARK    4  A    between atoms: C_10  and  N_11
REMARK    5  A    between atoms: N_11  and  C_12
REMARK    6  A    between atoms: C_24  and  N_25
REMARK    7  A    between atoms: C_30  and  C_31
REMARK                            x       y       z     vdW  Elec       q    Type
REMARK                         _______ _______ _______ _____ _____    ______ ____
ROOT
ATOM      1  C   UNL     1      -0.003   7.241  -4.066  0.00  0.00    +0.045 A 
ATOM      2  C   UNL     1       1.005   6.785  -4.909  0.00  0.00    -0.002 A 
ATOM      3  C   UNL     1       1.341   7.420  -6.197  0.00  0.00    +0.032 C 
ATOM      4  C   UNL     1       0.862   6.343  -7.326  0.00  0.00    +0.033 C 
ATOM      5  C   UNL     1       1.915   5.203  -6.940  0.00  0.00    +0.054 C 
ATOM      6  C   UNL     1       2.375   4.960  -5.641  0.00  0.00    +0.197 C 
ATOM      7  O   UNL     1       2.794   3.798  -5.350  0.00  0.00    -0.287 OA
ATOM      8  C   UNL     1       1.785   4.303  -7.920  0.00  0.00    +0.207 C 
ATOM      9  O   UNL     1       2.146   2.987  -7.598  0.00  0.00    -0.289 OA
ATOM     10  C   UNL     1       2.074   4.670  -9.347  0.00  0.00    +0.237 C 
ATOM     11  C   UNL     1       1.256   6.011  -9.646  0.00  0.00    +0.065 C 
ATOM     12  C   UNL     1       2.195   6.699 -10.905  0.00  0.00    +0.124 C 
ATOM     13  C   UNL     1       3.578   6.890 -10.131  0.00  0.00    +0.195 C 
ATOM     14  C   UNL     1       4.226   5.903  -9.654  0.00  0.00    +0.130 C 
ATOM     15  O   UNL     1       4.289   7.939 -10.733  0.00  0.00    -0.290 OA
ATOM     16  O   UNL     1       1.450   3.633 -10.068  0.00  0.00    -0.210 OA
ATOM     17  C   UNL     1       3.456   4.707  -9.455  0.00  0.00    +0.215 C 
ATOM     18  O   UNL     1       4.078   3.698  -9.004  0.00  0.00    -0.288 OA
ATOM     19  C   UNL     1       1.906   6.912  -8.454  0.00  0.00    +0.010 C 
ATOM     20  C   UNL     1       1.888   5.781  -4.526  0.00  0.00    +0.076 A 
ATOM     21  C   UNL     1       1.964   5.411  -3.213  0.00  0.00    +0.214 A 
ATOM     22  O   UNL     1       2.713   4.313  -2.862  0.00  0.00    -0.285 OA
ATOM     23  C   UNL     1       1.115   6.047  -2.330  0.00  0.00    +0.114 A 
ATOM     24  C   UNL     1      -0.064   6.575  -2.844  0.00  0.00    +0.034 A 
ENDROOT
BRANCH  14  25
ATOM     25  C   UNL     1       5.420   6.198  -8.847  0.00  0.00    +0.290 C 
ATOM     26  O   UNL     1       5.384   6.187  -7.592  0.00  0.00    -0.266 OA
ATOM     27  N   UNL     1       6.698   6.093  -9.484  0.00  0.00    -0.084 NA
ENDBRANCH  14  25
BRANCH  12  28
ATOM     28  N   UNL     1       2.599   5.346 -11.599  0.00  0.00    -0.265 NA
ATOM     29  C   UNL     1       1.480   5.269 -12.550  0.00  0.00    +0.090 C 
ATOM     30  C   UNL     1       3.699   5.807 -12.455  0.00  0.00    +0.090 C 
ENDBRANCH  12  28
BRANCH   1  32
ATOM     31  C   UNL     1      -1.568   8.346  -4.793  0.00  0.00    +0.112 C 
ATOM     32  N   UNL     1      -1.206   7.622  -4.760  0.00  0.00    -0.304 N 
ATOM     33  C   UNL     1      -1.951   6.439  -5.212  0.00  0.00    +0.112 C 
ENDBRANCH   1  32
BRANCH  23  34
ATOM     34  N   UNL     1       1.381   5.954  -0.936  0.00  0.00    -0.175 NA
ATOM     35  C   UNL     1       2.029   7.013  -0.260  0.00  0.00    +0.263 C 
ATOM     36  O   UNL     1       3.020   7.523  -0.842  0.00  0.00    -0.271 OA
BRANCH  35  37
ATOM     37  C   UNL     1       1.467   7.729   0.921  0.00  0.00    +0.176 C 
BRANCH  37  38
ATOM     38  N   UNL     1       2.455   8.571   1.550  0.00  0.00    -0.211 NA
BRANCH  38  39
ATOM     39  C   UNL     1       2.029   9.947   1.531  0.00  0.00    +0.060 C 
ATOM     40  C   UNL     1       2.486  10.622   2.809  0.00  0.00    +0.017 C 
ATOM     41  C   UNL     1       2.593  10.711   0.364  0.00  0.00    +0.017 C 
ATOM     42  C   UNL     1       0.526  10.008   1.468  0.00  0.00    +0.017 C 
ENDBRANCH  38  39
ENDBRANCH  37  38
ENDBRANCH  35  37
ENDBRANCH  23  34
TORSDOF 7
ENDMDL
MODEL 4
REMARK VINA RESULT:      -5.3      2.900      4.658
REMARK  Name = 
REMARK  7 active torsions:
REMARK  status: ('A' for Active; 'I' for Inactive)
REMARK    1  A    between atoms: N_2  and  C_4
REMARK    2  A    between atoms: C_6  and  N_7
REMARK    3  A    between atoms: C_8  and  C_10
REMARK    4  A    between atoms: C_10  and  N_11
REMARK    5  A    between atoms: N_11  and  C_12
REMARK    6  A    between atoms: C_24  and  N_25
REMARK    7  A    between atoms: C_30  and  C_31
REMARK                            x       y       z     vdW  Elec       q    Type
REMARK                         _______ _______ _______ _____ _____    ______ ____
ROOT
ATOM      1  C   UNL     1       2.800   5.165 -13.278  0.00  0.00    +0.045 A 
ATOM      2  C   UNL     1       3.122   5.341 -11.937  0.00  0.00    -0.002 A 
ATOM      3  C   UNL     1       2.474   4.601 -10.838  0.00  0.00    +0.032 C 
ATOM      4  C   UNL     1       1.580   5.721 -10.055  0.00  0.00    +0.033 C 
ATOM      5  C   UNL     1       2.813   6.593  -9.529  0.00  0.00    +0.054 C 
ATOM      6  C   UNL     1       4.014   6.766 -10.227  0.00  0.00    +0.197 C 
ATOM      7  O   UNL     1       4.706   7.805 -10.003  0.00  0.00    -0.287 OA
ATOM      8  C   UNL     1       2.251   7.464  -8.685  0.00  0.00    +0.207 C 
ATOM      9  O   UNL     1       2.943   8.668  -8.493  0.00  0.00    -0.289 OA
ATOM     10  C   UNL     1       1.525   6.990  -7.459  0.00  0.00    +0.237 C 
ATOM     11  C   UNL     1       0.493   5.870  -7.947  0.00  0.00    +0.065 C 
ATOM     12  C   UNL     1       0.315   4.937  -6.520  0.00  0.00    +0.124 C 
ATOM     13  C   UNL     1       1.824   4.452  -6.330  0.00  0.00    +0.195 C 
ATOM     14  C   UNL     1       2.779   5.274  -6.144  0.00  0.00    +0.130 C 
ATOM     15  O   UNL     1       1.823   3.244  -5.616  0.00  0.00    -0.290 OA
ATOM     16  O   UNL     1       0.767   8.120  -7.089  0.00  0.00    -0.210 OA
ATOM     17  C   UNL     1       2.509   6.625  -6.553  0.00  0.00    +0.215 C 
ATOM     18  O   UNL     1       3.431   7.473  -6.359  0.00  0.00    -0.288 OA
ATOM     19  C   UNL     1       1.584   4.883  -8.646  0.00  0.00    +0.010 C 
ATOM     20  C   UNL     1       4.200   6.122 -11.533  0.00  0.00    +0.076 A 
ATOM     21  C   UNL     1       5.136   6.509 -12.451  0.00  0.00    +0.214 A 
ATOM     22  O   UNL     1       6.107   7.411 -12.086  0.00  0.00    -0.285 OA
ATOM     23  C   UNL     1       4.931   6.122 -13.760  0.00  0.00    +0.114 A 
ATOM     24  C   UNL     1       3.623   5.869 -14.154  0.00  0.00    +0.034 A 
ENDROOT
BRANCH  14  25
ATOM     25  C   UNL     1       4.146   4.735  -6.111  0.00  0.00    +0.290 C 
ATOM     26  O   UNL     1       4.862   4.693  -7.143  0.00  0.00    -0.266 OA
ATOM     27  N   UNL     1       4.796   4.641  -4.839  0.00  0.00    -0.084 NA
ENDBRANCH  14  25
BRANCH  12  28
ATOM     28  N   UNL     1       0.414   6.132  -5.501  0.00  0.00    -0.265 NA
ATOM     29  C   UNL     1      -1.018   6.458  -5.439  0.00  0.00    +0.090 C 
ATOM     30  C   UNL     1       0.615   5.394  -4.248  0.00  0.00    +0.090 C 
ENDBRANCH  12  28
BRANCH   1  32
ATOM     31  C   UNL     1       0.960   4.414 -13.776  0.00  0.00    +0.112 C 
ATOM     32  N   UNL     1       1.385   5.055 -13.521  0.00  0.00    -0.304 N 
ATOM     33  C   UNL     1       0.750   6.380 -13.550  0.00  0.00    +0.112 C 
ENDBRANCH   1  32
BRANCH  23  34
ATOM     34  N   UNL     1       6.018   6.197 -14.675  0.00  0.00    -0.175 NA
ATOM     35  C   UNL     1       5.869   6.874 -15.907  0.00  0.00    +0.263 C 
ATOM     36  O   UNL     1       4.804   6.654 -16.539  0.00  0.00    -0.271 OA
BRANCH  35  37
ATOM     37  C   UNL     1       6.728   8.006 -16.356  0.00  0.00    +0.176 C 
BRANCH  37  38
ATOM     38  N   UNL     1       5.952   9.199 -16.593  0.00  0.00    -0.211 NA
BRANCH  38  39
ATOM     39  C   UNL     1       6.145   9.666 -17.941  0.00  0.00    +0.060 C 
ATOM     40  C   UNL     1       4.891   9.384 -18.745  0.00  0.00    +0.017 C 
ATOM     41  C   UNL     1       6.429  11.142 -18.007  0.00  0.00    +0.017 C 
ATOM     42  C   UNL     1       7.295   8.925 -18.572  0.00  0.00    +0.017 C 
ENDBRANCH  38  39
ENDBRANCH  37  38
ENDBRANCH  35  37
ENDBRANCH  23  34
TORSDOF 7
ENDMDL
MODEL 5
REMARK VINA RESULT:      -5.3      3.748      7.965
REMARK  Name = 
REMARK  7 active torsions:
REMARK  status: ('A' for Active; 'I' for Inactive)
REMARK    1  A    between atoms: N_2  and  C_4
REMARK    2  A    between atoms: C_6  and  N_7
REMARK    3  A    between atoms: C_8  and  C_10
REMARK    4  A    between atoms: C_10  and  N_11
REMARK    5  A    between atoms: N_11  and  C_12
REMARK    6  A    between atoms: C_24  and  N_25
REMARK    7  A    between atoms: C_30  and  C_31
REMARK                            x       y       z     vdW  Elec       q    Type
REMARK                         _______ _______ _______ _____ _____    ______ ____
ROOT
ATOM      1  C   UNL     1       0.894   5.465  -3.833  0.00  0.00    +0.045 A 
ATOM      2  C   UNL     1       1.797   5.994  -2.917  0.00  0.00    -0.002 A 
ATOM      3  C   UNL     1       1.558   6.030  -1.462  0.00  0.00    +0.032 C 
ATOM      4  C   UNL     1       1.346   7.611  -1.117  0.00  0.00    +0.033 C 
ATOM      5  C   UNL     1       2.834   8.071  -1.479  0.00  0.00    +0.054 C 
ATOM      6  C   UNL     1       3.616   7.494  -2.485  0.00  0.00    +0.197 C 
ATOM      7  O   UNL     1       4.534   8.189  -3.019  0.00  0.00    -0.287 OA
ATOM      8  C   UNL     1       2.889   9.338  -1.056  0.00  0.00    +0.207 C 
ATOM      9  O   UNL     1       3.825  10.160  -1.698  0.00  0.00    -0.289 OA
ATOM     10  C   UNL     1       2.690   9.676   0.393  0.00  0.00    +0.237 C 
ATOM     11  C   UNL     1       1.343   8.945   0.851  0.00  0.00    +0.065 C 
ATOM     12  C   UNL     1       1.620   8.760   2.532  0.00  0.00    +0.124 C 
ATOM     13  C   UNL     1       2.925   7.843   2.488  0.00  0.00    +0.195 C 
ATOM     14  C   UNL     1       4.011   8.240   1.955  0.00  0.00    +0.130 C 
ATOM     15  O   UNL     1       2.989   7.092   3.672  0.00  0.00    -0.290 OA
ATOM     16  O   UNL     1       2.419  11.059   0.356  0.00  0.00    -0.210 OA
ATOM     17  C   UNL     1       3.873   9.330   1.028  0.00  0.00    +0.215 C 
ATOM     18  O   UNL     1       4.939   9.765   0.498  0.00  0.00    -0.288 OA
ATOM     19  C   UNL     1       1.792   7.431   0.450  0.00  0.00    +0.010 C 
ATOM     20  C   UNL     1       3.078   6.389  -3.288  0.00  0.00    +0.076 A 
ATOM     21  C   UNL     1       3.577   6.013  -4.503  0.00  0.00    +0.214 A 
ATOM     22  O   UNL     1       4.772   6.537  -4.936  0.00  0.00    -0.285 OA
ATOM     23  C   UNL     1       2.747   5.274  -5.322  0.00  0.00    +0.114 A 
ATOM     24  C   UNL     1       1.376   5.415  -5.138  0.00  0.00    +0.034 A 
ENDROOT
BRANCH  14  25
ATOM     25  C   UNL     1       5.113   7.272   1.850  0.00  0.00    +0.290 C 
ATOM     26  O   UNL     1       5.870   7.029   2.822  0.00  0.00    -0.266 OA
ATOM     27  N   UNL     1       5.065   6.319   0.782  0.00  0.00    -0.084 NA
ENDBRANCH  14  25
BRANCH  12  28
ATOM     28  N   UNL     1       2.395  10.113   2.744  0.00  0.00    -0.265 NA
ATOM     29  C   UNL     1       1.385  10.794   3.568  0.00  0.00    +0.090 C 
ATOM     30  C   UNL     1       3.381   9.697   3.749  0.00  0.00    +0.090 C 
ENDBRANCH  12  28
BRANCH   1  32
ATOM     31  C   UNL     1      -1.064   5.377  -3.235  0.00  0.00    +0.112 C 
ATOM     32  N   UNL     1      -0.474   5.825  -3.564  0.00  0.00    -0.304 N 
ATOM     33  C   UNL     1      -0.836   7.074  -4.248  0.00  0.00    +0.112 C 
ENDBRANCH   1  32
BRANCH  23  34
ATOM     34  N   UNL     1       3.315   4.577  -6.425  0.00  0.00    -0.175 NA
ATOM     35  C   UNL     1       3.407   5.198  -7.691  0.00  0.00    +0.263 C 
ATOM     36  O   UNL     1       2.393   5.834  -8.076  0.00  0.00    -0.271 OA
BRANCH  35  37
ATOM     37  C   UNL     1       4.677   5.381  -8.451  0.00  0.00    +0.176 C 
BRANCH  37  38
ATOM     38  N   UNL     1       4.562   6.434  -9.430  0.00  0.00    -0.211 NA
BRANCH  38  39
ATOM     39  C   UNL     1       5.540   6.260 -10.473  0.00  0.00    +0.060 C 
ATOM     40  C   UNL     1       4.972   5.340 -11.535  0.00  0.00    +0.017 C 
ATOM     41  C   UNL     1       5.924   7.560 -11.127  0.00  0.00    +0.017 C 
ATOM     42  C   UNL     1       6.779   5.624  -9.900  0.00  0.00    +0.017 C 
ENDBRANCH  38  39
ENDBRANCH  37  38
ENDBRANCH  35  37
ENDBRANCH  23  34
TORSDOF 7
ENDMDL
MODEL 6
REMARK VINA RESULT:      -4.7      2.664      9.603
REMARK  Name = 
REMARK  7 active torsions:
REMARK  status: ('A' for Active; 'I' for Inactive)
REMARK    1  A    between atoms: N_2  and  C_4
REMARK    2  A    between atoms: C_6  and  N_7
REMARK    3  A    between atoms: C_8  and  C_10
REMARK    4  A    between atoms: C_10  and  N_11
REMARK    5  A    between atoms: N_11  and  C_12
REMARK    6  A    between atoms: C_24  and  N_25
REMARK    7  A    between atoms: C_30  and  C_31
REMARK                            x       y       z     vdW  Elec       q    Type
REMARK                         _______ _______ _______ _____ _____    ______ ____
ROOT
ATOM      1  C   UNL     1       0.170   6.703  -4.013  0.00  0.00    +0.045 A 
ATOM      2  C   UNL     1       0.953   6.552  -5.152  0.00  0.00    -0.002 A 
ATOM      3  C   UNL     1       0.578   7.080  -6.477  0.00  0.00    +0.032 C 
ATOM      4  C   UNL     1       0.248   5.755  -7.372  0.00  0.00    +0.033 C 
ATOM      5  C   UNL     1       1.736   5.169  -7.373  0.00  0.00    +0.054 C 
ATOM      6  C   UNL     1       2.639   5.304  -6.313  0.00  0.00    +0.197 C 
ATOM      7  O   UNL     1       3.562   4.442  -6.184  0.00  0.00    -0.287 OA
ATOM      8  C   UNL     1       1.681   4.160  -8.248  0.00  0.00    +0.207 C 
ATOM      9  O   UNL     1       2.626   3.140  -8.071  0.00  0.00    -0.289 OA
ATOM     10  C   UNL     1       1.330   4.406  -9.687  0.00  0.00    +0.237 C 
ATOM     11  C   UNL     1      -0.010   5.278  -9.686  0.00  0.00    +0.065 C 
ATOM     12  C   UNL     1       0.118   6.089 -11.190  0.00  0.00    +0.124 C 
ATOM     13  C   UNL     1       1.471   6.898 -10.942  0.00  0.00    +0.195 C 
ATOM     14  C   UNL     1       2.578   6.310 -10.718  0.00  0.00    +0.130 C 
ATOM     15  O   UNL     1       1.466   8.045 -11.751  0.00  0.00    -0.290 OA
ATOM     16  O   UNL     1       0.988   3.119 -10.149  0.00  0.00    -0.210 OA
ATOM     17  C   UNL     1       2.466   4.951 -10.266  0.00  0.00    +0.215 C 
ATOM     18  O   UNL     1       3.552   4.330 -10.057  0.00  0.00    -0.288 OA
ATOM     19  C   UNL     1       0.557   6.515  -8.791  0.00  0.00    +0.010 C 
ATOM     20  C   UNL     1       2.239   6.024  -5.098  0.00  0.00    +0.076 A 
ATOM     21  C   UNL     1       2.868   5.898  -3.891  0.00  0.00    +0.214 A 
ATOM     22  O   UNL     1       4.068   5.229  -3.821  0.00  0.00    -0.285 OA
ATOM     23  C   UNL     1       2.160   6.280  -2.769  0.00  0.00    +0.114 A 
ATOM     24  C   UNL     1       0.773   6.241  -2.846  0.00  0.00    +0.034 A 
ENDROOT
BRANCH  14  25
ATOM     25  C   UNL     1       3.737   7.147 -10.372  0.00  0.00    +0.290 C 
ATOM     26  O   UNL     1       3.945   7.528  -9.193  0.00  0.00    -0.266 OA
ATOM     27  N   UNL     1       4.834   7.182 -11.292  0.00  0.00    -0.084 NA
ENDBRANCH  14  25
BRANCH  12  28
ATOM     28  N   UNL     1       0.795   4.909 -11.982  0.00  0.00    -0.265 NA
ATOM     29  C   UNL     1      -0.435   4.233 -12.420  0.00  0.00    +0.090 C 
ATOM     30  C   UNL     1       1.210   5.613 -13.202  0.00  0.00    +0.090 C 
ENDBRANCH  12  28
BRANCH   1  32
ATOM     31  C   UNL     1      -1.629   5.805  -4.413  0.00  0.00    +0.112 C 
ATOM     32  N   UNL     1      -1.236   6.495  -4.250  0.00  0.00    -0.304 N 
ATOM     33  C   UNL     1      -1.927   7.772  -4.475  0.00  0.00    +0.112 C 
ENDBRANCH   1  32
BRANCH  23  34
ATOM     34  N   UNL     1       2.866   6.491  -1.552  0.00  0.00    -0.175 NA
ATOM     35  C   UNL     1       3.321   7.784  -1.206  0.00  0.00    +0.263 C 
ATOM     36  O   UNL     1       3.863   8.450  -2.125  0.00  0.00    -0.271 OA
BRANCH  35  37
ATOM     37  C   UNL     1       2.962   8.494   0.055  0.00  0.00    +0.176 C 
BRANCH  37  38
ATOM     38  N   UNL     1       3.999   9.412   0.460  0.00  0.00    -0.211 NA
BRANCH  38  39
ATOM     39  C   UNL     1       3.440  10.706   0.750  0.00  0.00    +0.060 C 
ATOM     40  C   UNL     1       2.025  10.529   1.264  0.00  0.00    +0.017 C 
ATOM     41  C   UNL     1       4.230  11.458   1.788  0.00  0.00    +0.017 C 
ATOM     42  C   UNL     1       3.392  11.530  -0.510  0.00  0.00    +0.017 C 
ENDBRANCH  38  39
ENDBRANCH  37  38
ENDBRANCH  35  37
ENDBRANCH  23  34
TORSDOF 7
ENDMDL
MODEL 7
REMARK VINA RESULT:      -4.5      3.660      5.591
REMARK  Name = 
REMARK  7 active torsions:
REMARK  status: ('A' for Active; 'I' for Inactive)
REMARK    1  A    between atoms: N_2  and  C_4
REMARK    2  A    between atoms: C_6  and  N_7
REMARK    3  A    between atoms: C_8  and  C_10
REMARK    4  A    between atoms: C_10  and  N_11
REMARK    5  A    between atoms: N_11  and  C_12
REMARK    6  A    between atoms: C_24  and  N_25
REMARK    7  A    between atoms: C_30  and  C_31
REMARK                            x       y       z     vdW  Elec       q    Type
REMARK                         _______ _______ _______ _____ _____    ______ ____
ROOT
ATOM      1  C   UNL     1       1.627   5.226  -8.303  0.00  0.00    +0.045 A 
ATOM      2  C   UNL     1       2.325   5.231  -7.101  0.00  0.00    -0.002 A 
ATOM      3  C   UNL     1       1.715   4.894  -5.801  0.00  0.00    +0.032 C 
ATOM      4  C   UNL     1       1.675   6.307  -4.984  0.00  0.00    +0.033 C 
ATOM      5  C   UNL     1       3.260   6.483  -4.861  0.00  0.00    +0.054 C 
ATOM      6  C   UNL     1       4.179   6.058  -5.826  0.00  0.00    +0.197 C 
ATOM      7  O   UNL     1       5.305   6.640  -5.895  0.00  0.00    -0.287 OA
ATOM      8  C   UNL     1       3.402   7.519  -4.028  0.00  0.00    +0.207 C 
ATOM      9  O   UNL     1       4.595   8.245  -4.148  0.00  0.00    -0.289 OA
ATOM     10  C   UNL     1       2.881   7.454  -2.622  0.00  0.00    +0.237 C 
ATOM     11  C   UNL     1       1.362   6.965  -2.722  0.00  0.00    +0.065 C 
ATOM     12  C   UNL     1       1.146   6.234  -1.186  0.00  0.00    +0.124 C 
ATOM     13  C   UNL     1       2.251   5.087  -1.280  0.00  0.00    +0.195 C 
ATOM     14  C   UNL     1       3.489   5.351  -1.416  0.00  0.00    +0.130 C 
ATOM     15  O   UNL     1       1.875   4.029  -0.438  0.00  0.00    -0.290 OA
ATOM     16  O   UNL     1       2.855   8.810  -2.236  0.00  0.00    -0.210 OA
ATOM     17  C   UNL     1       3.780   6.665  -1.921  0.00  0.00    +0.215 C 
ATOM     18  O   UNL     1       5.004   6.968  -2.046  0.00  0.00    -0.288 OA
ATOM     19  C   UNL     1       1.653   5.574  -3.519  0.00  0.00    +0.010 C 
ATOM     20  C   UNL     1       3.705   5.400  -7.050  0.00  0.00    +0.076 A 
ATOM     21  C   UNL     1       4.443   5.289  -8.194  0.00  0.00    +0.214 A 
ATOM     22  O   UNL     1       5.778   5.616  -8.173  0.00  0.00    -0.285 OA
ATOM     23  C   UNL     1       3.754   5.043  -9.365  0.00  0.00    +0.114 A 
ATOM     24  C   UNL     1       2.426   5.448  -9.422  0.00  0.00    +0.034 A 
ENDROOT
BRANCH  14  25
ATOM     25  C   UNL     1       4.409   4.223  -1.624  0.00  0.00    +0.290 C 
ATOM     26  O   UNL     1       4.824   3.914  -2.768  0.00  0.00    -0.266 OA
ATOM     27  N   UNL     1       5.142   3.743  -0.491  0.00  0.00    -0.084 NA
ENDBRANCH  14  25
BRANCH  12  28
ATOM     28  N   UNL     1       2.044   7.239  -0.373  0.00  0.00    -0.265 NA
ATOM     29  C   UNL     1       0.986   8.187   0.006  0.00  0.00    +0.090 C 
ATOM     30  C   UNL     1       2.233   6.478   0.868  0.00  0.00    +0.090 C 
ENDBRANCH  12  28
BRANCH   1  32
ATOM     31  C   UNL     1      -0.258   5.688  -7.644  0.00  0.00    +0.112 C 
ATOM     32  N   UNL     1       0.312   5.807  -8.207  0.00  0.00    -0.304 N 
ATOM     33  C   UNL     1      -0.065   6.468  -9.464  0.00  0.00    +0.112 C 
ENDBRANCH   1  32
BRANCH  23  34
ATOM     34  N   UNL     1       4.477   4.587 -10.503  0.00  0.00    -0.175 NA
ATOM     35  C   UNL     1       4.412   5.297 -11.723  0.00  0.00    +0.263 C 
ATOM     36  O   UNL     1       3.271   5.688 -12.081  0.00  0.00    -0.271 OA
BRANCH  35  37
ATOM     37  C   UNL     1       5.597   5.840 -12.446  0.00  0.00    +0.176 C 
BRANCH  37  38
ATOM     38  N   UNL     1       6.776   5.045 -12.205  0.00  0.00    -0.211 NA
BRANCH  38  39
ATOM     39  C   UNL     1       7.779   5.825 -11.528  0.00  0.00    +0.060 C 
ATOM     40  C   UNL     1       7.247   7.227 -11.306  0.00  0.00    +0.017 C 
ATOM     41  C   UNL     1       8.159   5.245 -10.192  0.00  0.00    +0.017 C 
ATOM     42  C   UNL     1       9.015   5.912 -12.385  0.00  0.00    +0.017 C 
ENDBRANCH  38  39
ENDBRANCH  37  38
ENDBRANCH  35  37
ENDBRANCH  23  34
TORSDOF 7
ENDMDL
MODEL 8
REMARK VINA RESULT:      -4.5      2.793      9.788
REMARK  Name = 
REMARK  7 active torsions:
REMARK  status: ('A' for Active; 'I' for Inactive)
REMARK    1  A    between atoms: N_2  and  C_4
REMARK    2  A    between atoms: C_6  and  N_7
REMARK    3  A    between atoms: C_8  and  C_10
REMARK    4  A    between atoms: C_10  and  N_11
REMARK    5  A    between atoms: N_11  and  C_12
REMARK    6  A    between atoms: C_24  and  N_25
REMARK    7  A    between atoms: C_30  and  C_31
REMARK                            x       y       z     vdW  Elec       q    Type
REMARK                         _______ _______ _______ _____ _____    ______ ____
ROOT
ATOM      1  C   UNL     1      -0.016   6.680  -3.568  0.00  0.00    +0.045 A 
ATOM      2  C   UNL     1       0.831   6.496  -4.655  0.00  0.00    -0.002 A 
ATOM      3  C   UNL     1       0.570   7.050  -5.997  0.00  0.00    +0.032 C 
ATOM      4  C   UNL     1       0.233   5.749  -6.923  0.00  0.00    +0.033 C 
ATOM      5  C   UNL     1       1.687   5.089  -6.833  0.00  0.00    +0.054 C 
ATOM      6  C   UNL     1       2.525   5.172  -5.716  0.00  0.00    +0.197 C 
ATOM      7  O   UNL     1       3.393   4.265  -5.536  0.00  0.00    -0.287 OA
ATOM      8  C   UNL     1       1.638   4.089  -7.719  0.00  0.00    +0.207 C 
ATOM      9  O   UNL     1       2.518   3.022  -7.491  0.00  0.00    -0.289 OA
ATOM     10  C   UNL     1       1.394   4.361  -9.176  0.00  0.00    +0.237 C 
ATOM     11  C   UNL     1       0.102   5.299  -9.253  0.00  0.00    +0.065 C 
ATOM     12  C   UNL     1       0.368   6.111 -10.739  0.00  0.00    +0.124 C 
ATOM     13  C   UNL     1       1.740   6.850 -10.396  0.00  0.00    +0.195 C 
ATOM     14  C   UNL     1       2.800   6.206 -10.106  0.00  0.00    +0.130 C 
ATOM     15  O   UNL     1       1.844   8.000 -11.193  0.00  0.00    -0.290 OA
ATOM     16  O   UNL     1       1.019   3.095  -9.671  0.00  0.00    -0.210 OA
ATOM     17  C   UNL     1       2.591   4.852  -9.675  0.00  0.00    +0.215 C 
ATOM     18  O   UNL     1       3.629   4.175  -9.402  0.00  0.00    -0.288 OA
ATOM     19  C   UNL     1       0.671   6.501  -8.312  0.00  0.00    +0.010 C 
ATOM     20  C   UNL     1       2.083   5.904  -4.523  0.00  0.00    +0.076 A 
ATOM     21  C   UNL     1       2.626   5.740  -3.280  0.00  0.00    +0.214 A 
ATOM     22  O   UNL     1       3.783   5.011  -3.138  0.00  0.00    -0.285 OA
ATOM     23  C   UNL     1       1.866   6.150  -2.202  0.00  0.00    +0.114 A 
ATOM     24  C   UNL     1       0.487   6.182  -2.368  0.00  0.00    +0.034 A 
ENDROOT
BRANCH  14  25
ATOM     25  C   UNL     1       3.974   6.982  -9.679  0.00  0.00    +0.290 C 
ATOM     26  O   UNL     1       4.291   7.081  -8.468  0.00  0.00    -0.266 OA
ATOM     27  N   UNL     1       4.974   7.274 -10.661  0.00  0.00    -0.084 NA
ENDBRANCH  14  25
BRANCH  12  28
ATOM     28  N   UNL     1       1.035   4.903 -11.496  0.00  0.00    -0.265 NA
ATOM     29  C   UNL     1      -0.192   4.315 -12.051  0.00  0.00    +0.090 C 
ATOM     30  C   UNL     1       1.597   5.599 -12.660  0.00  0.00    +0.090 C 
ENDBRANCH  12  28
BRANCH   1  32
ATOM     31  C   UNL     1      -1.834   5.873  -4.063  0.00  0.00    +0.112 C 
ATOM     32  N   UNL     1      -1.412   6.544  -3.897  0.00  0.00    -0.304 N 
ATOM     33  C   UNL     1      -2.008   7.849  -4.215  0.00  0.00    +0.112 C 
ENDBRANCH   1  32
BRANCH  23  34
ATOM     34  N   UNL     1       2.501   6.319  -0.940  0.00  0.00    -0.175 NA
ATOM     35  C   UNL     1       2.771   7.614  -0.444  0.00  0.00    +0.263 C 
ATOM     36  O   UNL     1       3.247   8.439  -1.266  0.00  0.00    -0.271 OA
BRANCH  35  37
ATOM     37  C   UNL     1       2.284   8.134   0.866  0.00  0.00    +0.176 C 
BRANCH  37  38
ATOM     38  N   UNL     1       1.295   9.169   0.690  0.00  0.00    -0.211 NA
BRANCH  38  39
ATOM     39  C   UNL     1       0.060   8.799   1.331  0.00  0.00    +0.060 C 
ATOM     40  C   UNL     1      -0.554  10.030   1.969  0.00  0.00    +0.017 C 
ATOM     41  C   UNL     1      -0.939   8.217   0.367  0.00  0.00    +0.017 C 
ATOM     42  C   UNL     1       0.335   7.786   2.411  0.00  0.00    +0.017 C 
ENDBRANCH  38  39
ENDBRANCH  37  38
ENDBRANCH  35  37
ENDBRANCH  23  34
TORSDOF 7
ENDMDL
