MODEL 1
REMARK VINA RESULT:      -6.4      0.000      0.000
REMARK  Name = 
REMARK  3 active torsions:
REMARK  status: ('A' for Active; 'I' for Inactive)
REMARK    1  A    between atoms: C_2  and  C_4
REMARK    2  A    between atoms: C_2  and  C_13
REMARK    3  A    between atoms: C_4  and  C_5
REMARK                            x       y       z     vdW  Elec       q    Type
REMARK                         _______ _______ _______ _____ _____    ______ ____
ROOT
ATOM      1  C   UNL     1       4.901   5.823  -9.767  0.00  0.00    -0.017 A 
ATOM      2  C   UNL     1       3.847   6.730  -9.776  0.00  0.00    +0.041 A 
ATOM      3  C   UNL     1       3.156   6.999  -8.601  0.00  0.00    +0.234 A 
ATOM      4  O   UNL     1       1.920   7.645  -8.637  0.00  0.00    -0.283 OA
ATOM      5  C   UNL     1       3.544   6.458  -7.383  0.00  0.00    +0.234 A 
ATOM      6  O   UNL     1       2.916   6.829  -6.192  0.00  0.00    -0.283 OA
ATOM      7  C   UNL     1       4.491   5.466  -7.398  0.00  0.00    +0.045 A 
ATOM      8  C   UNL     1       5.131   5.168  -8.569  0.00  0.00    -0.001 A 
ENDROOT
BRANCH   1   9
ATOM      9  C   UNL     1       5.657   5.456 -10.980  0.00  0.00    +0.055 C 
BRANCH   9  11
ATOM     10  C   UNL     1       7.597   6.321  -9.766  0.00  0.00    +0.031 C 
ATOM     11  C   UNL     1       6.899   6.327 -11.096  0.00  0.00    +0.174 C 
ATOM     12  N   UNL     1       6.565   7.675 -11.535  0.00  0.00    -0.123 NA
BRANCH  11  13
ATOM     13  C   UNL     1       7.821   5.767 -12.121  0.00  0.00    +0.380 C 
ATOM     14  O   UNL     1       7.454   4.672 -12.911  0.00  0.00    -0.244 OA
ATOM     15  O   UNL     1       9.075   5.927 -12.000  0.00  0.00    -0.244 OA
ENDBRANCH  11  13
ENDBRANCH   9  11
ENDBRANCH   1   9
TORSDOF 3
ENDMDL
MODEL 2
REMARK VINA RESULT:      -6.3      1.687      2.421
REMARK  Name = 
REMARK  3 active torsions:
REMARK  status: ('A' for Active; 'I' for Inactive)
REMARK    1  A    between atoms: C_2  and  C_4
REMARK    2  A    between atoms: C_2  and  C_13
REMARK    3  A    between atoms: C_4  and  C_5
REMARK                            x       y       z     vdW  Elec       q    Type
REMARK                         _______ _______ _______ _____ _____    ______ ____
ROOT
ATOM      1  C   UNL     1       4.897   5.805  -9.692  0.00  0.00    -0.017 A 
ATOM      2  C   UNL     1       4.347   4.615  -9.229  0.00  0.00    +0.041 A 
ATOM      3  C   UNL     1       3.003   4.565  -8.879  0.00  0.00    +0.234 A 
ATOM      4  O   UNL     1       2.505   3.499  -8.128  0.00  0.00    -0.283 OA
ATOM      5  C   UNL     1       2.157   5.649  -9.063  0.00  0.00    +0.234 A 
ATOM      6  O   UNL     1       0.786   5.549  -8.819  0.00  0.00    -0.283 OA
ATOM      7  C   UNL     1       2.726   6.855  -9.389  0.00  0.00    +0.045 A 
ATOM      8  C   UNL     1       4.061   6.907  -9.681  0.00  0.00    -0.001 A 
ENDROOT
BRANCH   1   9
ATOM      9  C   UNL     1       6.323   5.948 -10.046  0.00  0.00    +0.055 C 
BRANCH   9  11
ATOM     10  C   UNL     1       6.621   7.503 -11.911  0.00  0.00    +0.031 C 
ATOM     11  C   UNL     1       6.469   6.051 -11.557  0.00  0.00    +0.174 C 
ATOM     12  N   UNL     1       5.345   5.433 -12.246  0.00  0.00    -0.123 NA
BRANCH  11  13
ATOM     13  C   UNL     1       7.688   5.322 -12.002  0.00  0.00    +0.380 C 
ATOM     14  O   UNL     1       8.968   5.746 -11.627  0.00  0.00    -0.244 OA
ATOM     15  O   UNL     1       7.658   4.626 -13.064  0.00  0.00    -0.244 OA
ENDBRANCH  11  13
ENDBRANCH   9  11
ENDBRANCH   1   9
TORSDOF 3
ENDMDL
MODEL 3
REMARK VINA RESULT:      -6.3      1.753      5.575
REMARK  Name = 
REMARK  3 active torsions:
REMARK  status: ('A' for Active; 'I' for Inactive)
REMARK    1  A    between atoms: C_2  and  C_4
REMARK    2  A    between atoms: C_2  and  C_13
REMARK    3  A    between atoms: C_4  and  C_5
REMARK                            x       y       z     vdW  Elec       q    Type
REMARK                         _______ _______ _______ _____ _____    ______ ____
ROOT
ATOM      1  C   UNL     1       4.816   6.541 -10.554  0.00  0.00    -0.017 A 
ATOM      2  C   UNL     1       4.477   5.711 -11.617  0.00  0.00    +0.041 A 
ATOM      3  C   UNL     1       5.476   5.159 -12.409  0.00  0.00    +0.234 A 
ATOM      4  O   UNL     1       5.169   4.592 -13.647  0.00  0.00    -0.283 OA
ATOM      5  C   UNL     1       6.822   5.333 -12.119  0.00  0.00    +0.234 A 
ATOM      6  O   UNL     1       7.813   4.676 -12.851  0.00  0.00    -0.283 OA
ATOM      7  C   UNL     1       7.153   6.256 -11.159  0.00  0.00    +0.045 A 
ATOM      8  C   UNL     1       6.161   6.837 -10.419  0.00  0.00    -0.001 A 
ENDROOT
BRANCH   1   9
ATOM      9  C   UNL     1       3.813   7.196  -9.693  0.00  0.00    +0.055 C 
BRANCH   9  11
ATOM     10  C   UNL     1       4.629   5.619  -8.010  0.00  0.00    +0.031 C 
ATOM     11  C   UNL     1       3.390   6.246  -8.583  0.00  0.00    +0.174 C 
ATOM     12  N   UNL     1       2.443   5.250  -9.064  0.00  0.00    -0.123 NA
BRANCH  11  13
ATOM     13  C   UNL     1       2.696   6.999  -7.503  0.00  0.00    +0.380 C 
ATOM     14  O   UNL     1       2.128   8.256  -7.742  0.00  0.00    -0.244 OA
ATOM     15  O   UNL     1       2.989   6.781  -6.287  0.00  0.00    -0.244 OA
ENDBRANCH  11  13
ENDBRANCH   9  11
ENDBRANCH   1   9
TORSDOF 3
ENDMDL
MODEL 4
REMARK VINA RESULT:      -6.2      4.980      7.303
REMARK  Name = 
REMARK  3 active torsions:
REMARK  status: ('A' for Active; 'I' for Inactive)
REMARK    1  A    between atoms: C_2  and  C_4
REMARK    2  A    between atoms: C_2  and  C_13
REMARK    3  A    between atoms: C_4  and  C_5
REMARK                            x       y       z     vdW  Elec       q    Type
REMARK                         _______ _______ _______ _____ _____    ______ ____
ROOT
ATOM      1  C   UNL     1       0.004   6.613  -4.870  0.00  0.00    -0.017 A 
ATOM      2  C   UNL     1       0.406   5.797  -3.818  0.00  0.00    +0.041 A 
ATOM      3  C   UNL     1      -0.542   5.264  -2.954  0.00  0.00    +0.234 A 
ATOM      4  O   UNL     1      -0.158   4.716  -1.729  0.00  0.00    -0.283 OA
ATOM      5  C   UNL     1      -1.903   5.444  -3.159  0.00  0.00    +0.234 A 
ATOM      6  O   UNL     1      -2.848   4.805  -2.354  0.00  0.00    -0.283 OA
ATOM      7  C   UNL     1      -2.291   6.354  -4.110  0.00  0.00    +0.045 A 
ATOM      8  C   UNL     1      -1.345   6.916  -4.923  0.00  0.00    -0.001 A 
ENDROOT
BRANCH   1   9
ATOM      9  C   UNL     1       0.953   7.247  -5.805  0.00  0.00    +0.055 C 
BRANCH   9  11
ATOM     10  C   UNL     1       0.010   5.664  -7.413  0.00  0.00    +0.031 C 
ATOM     11  C   UNL     1       1.291   6.280  -6.929  0.00  0.00    +0.174 C 
ATOM     12  N   UNL     1       2.255   5.277  -6.499  0.00  0.00    -0.123 NA
BRANCH  11  13
ATOM     13  C   UNL     1       1.923   7.013  -8.060  0.00  0.00    +0.380 C 
ATOM     14  O   UNL     1       2.765   6.363  -8.969  0.00  0.00    -0.244 OA
ATOM     15  O   UNL     1       2.112   8.266  -7.977  0.00  0.00    -0.244 OA
ENDBRANCH  11  13
ENDBRANCH   9  11
ENDBRANCH   1   9
TORSDOF 3
ENDMDL
MODEL 5
REMARK VINA RESULT:      -6.2      6.615      9.888
REMARK  Name = 
REMARK  3 active torsions:
REMARK  status: ('A' for Active; 'I' for Inactive)
REMARK    1  A    between atoms: C_2  and  C_4
REMARK    2  A    between atoms: C_2  and  C_13
REMARK    3  A    between atoms: C_4  and  C_5
REMARK                            x       y       z     vdW  Elec       q    Type
REMARK                         _______ _______ _______ _____ _____    ______ ____
ROOT
ATOM      1  C   UNL     1      -1.237   7.013  -5.025  0.00  0.00    -0.017 A 
ATOM      2  C   UNL     1       0.122   7.157  -5.279  0.00  0.00    +0.041 A 
ATOM      3  C   UNL     1       0.705   6.466  -6.335  0.00  0.00    +0.234 A 
ATOM      4  O   UNL     1       2.092   6.342  -6.421  0.00  0.00    -0.283 OA
ATOM      5  C   UNL     1      -0.047   5.699  -7.213  0.00  0.00    +0.234 A 
ATOM      6  O   UNL     1       0.531   5.108  -8.338  0.00  0.00    -0.283 OA
ATOM      7  C   UNL     1      -1.356   5.450  -6.883  0.00  0.00    +0.045 A 
ATOM      8  C   UNL     1      -1.909   6.092  -5.810  0.00  0.00    -0.001 A 
ENDROOT
BRANCH   1   9
ATOM      9  C   UNL     1      -1.921   7.681  -3.900  0.00  0.00    +0.055 C 
BRANCH   9  11
ATOM     10  C   UNL     1      -1.787   7.735  -1.459  0.00  0.00    +0.031 C 
ATOM     11  C   UNL     1      -1.814   6.821  -2.650  0.00  0.00    +0.174 C 
ATOM     12  N   UNL     1      -0.648   5.950  -2.699  0.00  0.00    -0.123 NA
BRANCH  11  13
ATOM     13  C   UNL     1      -3.001   5.930  -2.540  0.00  0.00    +0.380 C 
ATOM     14  O   UNL     1      -2.917   4.566  -2.838  0.00  0.00    -0.244 OA
ATOM     15  O   UNL     1      -4.170   6.415  -2.639  0.00  0.00    -0.244 OA
ENDBRANCH  11  13
ENDBRANCH   9  11
ENDBRANCH   1   9
TORSDOF 3
ENDMDL
MODEL 6
REMARK VINA RESULT:      -6.1      5.666      9.247
REMARK  Name = 
REMARK  3 active torsions:
REMARK  status: ('A' for Active; 'I' for Inactive)
REMARK    1  A    between atoms: C_2  and  C_4
REMARK    2  A    between atoms: C_2  and  C_13
REMARK    3  A    between atoms: C_4  and  C_5
REMARK                            x       y       z     vdW  Elec       q    Type
REMARK                         _______ _______ _______ _____ _____    ______ ____
ROOT
ATOM      1  C   UNL     1      -0.237   5.863  -5.705  0.00  0.00    -0.017 A 
ATOM      2  C   UNL     1       0.394   4.629  -5.813  0.00  0.00    +0.041 A 
ATOM      3  C   UNL     1       1.729   4.566  -6.191  0.00  0.00    +0.234 A 
ATOM      4  O   UNL     1       2.292   3.359  -6.609  0.00  0.00    -0.283 OA
ATOM      5  C   UNL     1       2.493   5.709  -6.378  0.00  0.00    +0.234 A 
ATOM      6  O   UNL     1       3.862   5.633  -6.641  0.00  0.00    -0.283 OA
ATOM      7  C   UNL     1       1.839   6.916  -6.404  0.00  0.00    +0.045 A 
ATOM      8  C   UNL     1       0.510   6.964  -6.083  0.00  0.00    -0.001 A 
ENDROOT
BRANCH   1   9
ATOM      9  C   UNL     1      -1.662   6.010  -5.348  0.00  0.00    +0.055 C 
BRANCH   9  11
ATOM     10  C   UNL     1      -2.079   8.032  -4.036  0.00  0.00    +0.031 C 
ATOM     11  C   UNL     1      -1.783   6.563  -3.936  0.00  0.00    +0.174 C 
ATOM     12  N   UNL     1      -0.584   6.298  -3.153  0.00  0.00    -0.123 NA
BRANCH  11  13
ATOM     13  C   UNL     1      -2.907   5.898  -3.222  0.00  0.00    +0.380 C 
ATOM     14  O   UNL     1      -3.768   6.620  -2.388  0.00  0.00    -0.244 OA
ATOM     15  O   UNL     1      -2.848   4.657  -2.963  0.00  0.00    -0.244 OA
ENDBRANCH  11  13
ENDBRANCH   9  11
ENDBRANCH   1   9
TORSDOF 3
ENDMDL
MODEL 7
REMARK VINA RESULT:      -6.1      5.202      7.369
REMARK  Name = 
REMARK  3 active torsions:
REMARK  status: ('A' for Active; 'I' for Inactive)
REMARK    1  A    between atoms: C_2  and  C_4
REMARK    2  A    between atoms: C_2  and  C_13
REMARK    3  A    between atoms: C_4  and  C_5
REMARK                            x       y       z     vdW  Elec       q    Type
REMARK                         _______ _______ _______ _____ _____    ______ ____
ROOT
ATOM      1  C   UNL     1       0.055   6.453  -4.997  0.00  0.00    -0.017 A 
ATOM      2  C   UNL     1       0.468   5.688  -3.912  0.00  0.00    +0.041 A 
ATOM      3  C   UNL     1      -0.467   5.233  -2.991  0.00  0.00    +0.234 A 
ATOM      4  O   UNL     1      -0.059   4.744  -1.749  0.00  0.00    -0.283 OA
ATOM      5  C   UNL     1      -1.828   5.437  -3.166  0.00  0.00    +0.234 A 
ATOM      6  O   UNL     1      -2.765   4.873  -2.298  0.00  0.00    -0.283 OA
ATOM      7  C   UNL     1      -2.221   6.302  -4.157  0.00  0.00    +0.045 A 
ATOM      8  C   UNL     1      -1.287   6.790  -5.028  0.00  0.00    -0.001 A 
ENDROOT
BRANCH   1   9
ATOM      9  C   UNL     1       0.990   7.007  -5.995  0.00  0.00    +0.055 C 
BRANCH   9  11
ATOM     10  C   UNL     1       1.653   6.756  -8.337  0.00  0.00    +0.031 C 
ATOM     11  C   UNL     1       1.193   6.004  -7.121  0.00  0.00    +0.174 C 
ATOM     12  N   UNL     1      -0.017   5.235  -7.376  0.00  0.00    -0.123 NA
BRANCH  11  13
ATOM     13  C   UNL     1       2.245   5.020  -6.744  0.00  0.00    +0.380 C 
ATOM     14  O   UNL     1       1.928   3.686  -6.466  0.00  0.00    -0.244 OA
ATOM     15  O   UNL     1       3.328   5.420  -6.216  0.00  0.00    -0.244 OA
ENDBRANCH  11  13
ENDBRANCH   9  11
ENDBRANCH   1   9
TORSDOF 3
ENDMDL
MODEL 8
REMARK VINA RESULT:      -6.1      5.424      8.929
REMARK  Name = 
REMARK  3 active torsions:
REMARK  status: ('A' for Active; 'I' for Inactive)
REMARK    1  A    between atoms: C_2  and  C_4
REMARK    2  A    between atoms: C_2  and  C_13
REMARK    3  A    between atoms: C_4  and  C_5
REMARK                            x       y       z     vdW  Elec       q    Type
REMARK                         _______ _______ _______ _____ _____    ______ ____
ROOT
ATOM      1  C   UNL     1      -0.068   5.626  -5.896  0.00  0.00    -0.017 A 
ATOM      2  C   UNL     1       0.665   6.720  -6.344  0.00  0.00    +0.041 A 
ATOM      3  C   UNL     1       2.002   6.563  -6.686  0.00  0.00    +0.234 A 
ATOM      4  O   UNL     1       2.833   7.675  -6.832  0.00  0.00    -0.283 OA
ATOM      5  C   UNL     1       2.618   5.319  -6.685  0.00  0.00    +0.234 A 
ATOM      6  O   UNL     1       3.926   5.157  -7.145  0.00  0.00    -0.283 OA
ATOM      7  C   UNL     1       1.938   4.271  -6.117  0.00  0.00    +0.045 A 
ATOM      8  C   UNL     1       0.638   4.447  -5.733  0.00  0.00    -0.001 A 
ENDROOT
BRANCH   1   9
ATOM      9  C   UNL     1      -1.480   5.720  -5.477  0.00  0.00    +0.055 C 
BRANCH   9  11
ATOM     10  C   UNL     1      -1.887   7.849  -4.343  0.00  0.00    +0.031 C 
ATOM     11  C   UNL     1      -1.568   6.399  -4.119  0.00  0.00    +0.174 C 
ATOM     12  N   UNL     1      -0.344   6.218  -3.350  0.00  0.00    -0.123 NA
BRANCH  11  13
ATOM     13  C   UNL     1      -2.663   5.790  -3.315  0.00  0.00    +0.380 C 
ATOM     14  O   UNL     1      -3.699   6.569  -2.788  0.00  0.00    -0.244 OA
ATOM     15  O   UNL     1      -2.465   4.698  -2.698  0.00  0.00    -0.244 OA
ENDBRANCH  11  13
ENDBRANCH   9  11
ENDBRANCH   1   9
TORSDOF 3
ENDMDL
MODEL 9
REMARK VINA RESULT:      -5.8      4.397      6.139
REMARK  Name = 
REMARK  3 active torsions:
REMARK  status: ('A' for Active; 'I' for Inactive)
REMARK    1  A    between atoms: C_2  and  C_4
REMARK    2  A    between atoms: C_2  and  C_13
REMARK    3  A    between atoms: C_4  and  C_5
REMARK                            x       y       z     vdW  Elec       q    Type
REMARK                         _______ _______ _______ _____ _____    ______ ____
ROOT
ATOM      1  C   UNL     1       4.439   6.038  -5.074  0.00  0.00    -0.017 A 
ATOM      2  C   UNL     1       4.183   5.150  -4.035  0.00  0.00    +0.041 A 
ATOM      3  C   UNL     1       4.195   5.601  -2.721  0.00  0.00    +0.234 A 
ATOM      4  O   UNL     1       4.257   4.696  -1.661  0.00  0.00    -0.283 OA
ATOM      5  C   UNL     1       4.364   6.943  -2.408  0.00  0.00    +0.234 A 
ATOM      6  O   UNL     1       4.255   7.401  -1.094  0.00  0.00    -0.283 OA
ATOM      7  C   UNL     1       4.750   7.790  -3.417  0.00  0.00    +0.045 A 
ATOM      8  C   UNL     1       4.788   7.325  -4.703  0.00  0.00    -0.001 A 
ENDROOT
BRANCH   1   9
ATOM      9  C   UNL     1       4.484   5.628  -6.491  0.00  0.00    +0.055 C 
BRANCH   9  11
ATOM     10  C   UNL     1       3.123   6.282  -8.415  0.00  0.00    +0.031 C 
ATOM     11  C   UNL     1       3.077   5.620  -7.068  0.00  0.00    +0.174 C 
ATOM     12  N   UNL     1       2.128   6.266  -6.171  0.00  0.00    -0.123 NA
BRANCH  11  13
ATOM     13  C   UNL     1       2.605   4.219  -7.242  0.00  0.00    +0.380 C 
ATOM     14  O   UNL     1       2.553   3.619  -8.505  0.00  0.00    -0.244 OA
ATOM     15  O   UNL     1       1.821   3.703  -6.386  0.00  0.00    -0.244 OA
ENDBRANCH  11  13
ENDBRANCH   9  11
ENDBRANCH   1   9
TORSDOF 3
ENDMDL
