MODEL 1
REMARK VINA RESULT:      -4.5      0.000      0.000
REMARK  Name = 
REMARK  4 active torsions:
REMARK  status: ('A' for Active; 'I' for Inactive)
REMARK    1  A    between atoms: N_2  and  C_5
REMARK    2  A    between atoms: C_5  and  C_6
REMARK    3  A    between atoms: C_6  and  C_8
REMARK    4  A    between atoms: C_8  and  C_9
REMARK                            x       y       z     vdW  Elec       q    Type
REMARK                         _______ _______ _______ _____ _____    ______ ____
ROOT
ATOM      1  C   UNL     1       6.681   7.213 -11.020  0.00  0.00    +0.218 C 
ATOM      2  O   UNL     1       6.474   8.674 -11.390  0.00  0.00    -0.216 OA
ENDROOT
BRANCH   1   3
ATOM      3  C   UNL     1       5.073   6.888 -11.169  0.00  0.00    +0.143 C 
BRANCH   3   5
ATOM      4  C   UNL     1       4.449   5.205 -10.421  0.00  0.00    +0.171 C 
ATOM      5  N   UNL     1       4.739   5.990 -10.094  0.00  0.00    +0.313 N 
ATOM      6  C   UNL     1       5.907   5.661  -9.262  0.00  0.00    +0.171 C 
ATOM      7  C   UNL     1       3.748   6.566  -9.184  0.00  0.00    +0.171 C 
ENDBRANCH   3   5
ENDBRANCH   1   3
BRANCH   1   8
ATOM      8  C   UNL     1       6.971   6.811 -12.594  0.00  0.00    +0.153 C 
BRANCH   8   9
ATOM      9  C   UNL     1       7.945   5.699 -12.496  0.00  0.00    +0.368 C 
ATOM     10  O   UNL     1       9.294   5.891 -12.197  0.00  0.00    -0.246 OA
ATOM     11  O   UNL     1       7.662   4.571 -13.001  0.00  0.00    -0.246 OA
ENDBRANCH   8   9
ENDBRANCH   1   8
TORSDOF 4
ENDMDL
MODEL 2
REMARK VINA RESULT:      -4.4      1.262      2.026
REMARK  Name = 
REMARK  4 active torsions:
REMARK  status: ('A' for Active; 'I' for Inactive)
REMARK    1  A    between atoms: N_2  and  C_5
REMARK    2  A    between atoms: C_5  and  C_6
REMARK    3  A    between atoms: C_6  and  C_8
REMARK    4  A    between atoms: C_8  and  C_9
REMARK                            x       y       z     vdW  Elec       q    Type
REMARK                         _______ _______ _______ _____ _____    ______ ____
ROOT
ATOM      1  C   UNL     1       6.462   6.209 -10.751  0.00  0.00    +0.218 C 
ATOM      2  O   UNL     1       7.384   7.279 -10.188  0.00  0.00    -0.216 OA
ENDROOT
BRANCH   1   3
ATOM      3  C   UNL     1       5.156   7.211 -10.671  0.00  0.00    +0.143 C 
BRANCH   3   5
ATOM      4  C   UNL     1       3.620   6.804  -9.551  0.00  0.00    +0.171 C 
ATOM      5  N   UNL     1       4.050   6.401 -10.229  0.00  0.00    +0.313 N 
ATOM      6  C   UNL     1       3.039   6.219 -11.281  0.00  0.00    +0.171 C 
ATOM      7  C   UNL     1       4.474   5.055  -9.843  0.00  0.00    +0.171 C 
ENDBRANCH   3   5
ENDBRANCH   1   3
BRANCH   1   8
ATOM      8  C   UNL     1       6.799   6.672 -12.299  0.00  0.00    +0.153 C 
BRANCH   8   9
ATOM      9  C   UNL     1       6.731   5.406 -13.065  0.00  0.00    +0.368 C 
ATOM     10  O   UNL     1       5.528   4.799 -13.427  0.00  0.00    -0.246 OA
ATOM     11  O   UNL     1       7.753   4.659 -13.135  0.00  0.00    -0.246 OA
ENDBRANCH   8   9
ENDBRANCH   1   8
TORSDOF 4
ENDMDL
MODEL 3
REMARK VINA RESULT:      -4.4      9.051     10.683
REMARK  Name = 
REMARK  4 active torsions:
REMARK  status: ('A' for Active; 'I' for Inactive)
REMARK    1  A    between atoms: N_2  and  C_5
REMARK    2  A    between atoms: C_5  and  C_6
REMARK    3  A    between atoms: C_6  and  C_8
REMARK    4  A    between atoms: C_8  and  C_9
REMARK                            x       y       z     vdW  Elec       q    Type
REMARK                         _______ _______ _______ _____ _____    ______ ____
ROOT
ATOM      1  C   UNL     1      -2.033   6.761  -4.619  0.00  0.00    +0.218 C 
ATOM      2  O   UNL     1      -2.270   8.252  -4.804  0.00  0.00    -0.216 OA
ENDROOT
BRANCH   1   3
ATOM      3  C   UNL     1      -0.398   6.954  -4.698  0.00  0.00    +0.143 C 
BRANCH   3   5
ATOM      4  C   UNL     1       0.630   6.420  -6.260  0.00  0.00    +0.171 C 
ATOM      5  N   UNL     1       0.074   6.015  -5.682  0.00  0.00    +0.313 N 
ATOM      6  C   UNL     1       0.859   4.926  -5.082  0.00  0.00    +0.171 C 
ATOM      7  C   UNL     1      -1.027   5.368  -6.398  0.00  0.00    +0.171 C 
ENDBRANCH   3   5
ENDBRANCH   1   3
BRANCH   1   8
ATOM      8  C   UNL     1      -2.035   6.920  -2.977  0.00  0.00    +0.153 C 
BRANCH   8   9
ATOM      9  C   UNL     1      -2.001   5.521  -2.490  0.00  0.00    +0.368 C 
ATOM     10  O   UNL     1      -0.894   4.963  -1.853  0.00  0.00    -0.246 OA
ATOM     11  O   UNL     1      -2.849   4.685  -2.926  0.00  0.00    -0.246 OA
ENDBRANCH   8   9
ENDBRANCH   1   8
TORSDOF 4
ENDMDL
MODEL 4
REMARK VINA RESULT:      -4.2     10.300     11.830
REMARK  Name = 
REMARK  4 active torsions:
REMARK  status: ('A' for Active; 'I' for Inactive)
REMARK    1  A    between atoms: N_2  and  C_5
REMARK    2  A    between atoms: C_5  and  C_6
REMARK    3  A    between atoms: C_6  and  C_8
REMARK    4  A    between atoms: C_8  and  C_9
REMARK                            x       y       z     vdW  Elec       q    Type
REMARK                         _______ _______ _______ _____ _____    ______ ____
ROOT
ATOM      1  C   UNL     1      -1.706   5.540  -2.719  0.00  0.00    +0.218 C 
ATOM      2  O   UNL     1      -2.938   4.650  -2.781  0.00  0.00    -0.216 OA
ENDROOT
BRANCH   1   3
ATOM      3  C   UNL     1      -2.109   6.294  -4.127  0.00  0.00    +0.143 C 
BRANCH   3   5
ATOM      4  C   UNL     1      -0.597   7.120  -5.028  0.00  0.00    +0.171 C 
ATOM      5  N   UNL     1      -0.923   6.287  -4.944  0.00  0.00    +0.313 N 
ATOM      6  C   UNL     1       0.163   5.500  -4.342  0.00  0.00    +0.171 C 
ATOM      7  C   UNL     1      -1.165   5.696  -6.261  0.00  0.00    +0.171 C 
ENDBRANCH   3   5
ENDBRANCH   1   3
BRANCH   1   8
ATOM      8  C   UNL     1      -2.510   6.663  -1.816  0.00  0.00    +0.153 C 
BRANCH   8   9
ATOM      9  C   UNL     1      -1.459   7.215  -0.929  0.00  0.00    +0.368 C 
ATOM     10  O   UNL     1      -1.574   8.448  -0.288  0.00  0.00    -0.246 OA
ATOM     11  O   UNL     1      -0.283   6.744  -0.982  0.00  0.00    -0.246 OA
ENDBRANCH   8   9
ENDBRANCH   1   8
TORSDOF 4
ENDMDL
MODEL 5
REMARK VINA RESULT:      -4.2      8.853     10.921
REMARK  Name = 
REMARK  4 active torsions:
REMARK  status: ('A' for Active; 'I' for Inactive)
REMARK    1  A    between atoms: N_2  and  C_5
REMARK    2  A    between atoms: C_5  and  C_6
REMARK    3  A    between atoms: C_6  and  C_8
REMARK    4  A    between atoms: C_8  and  C_9
REMARK                            x       y       z     vdW  Elec       q    Type
REMARK                         _______ _______ _______ _____ _____    ______ ____
ROOT
ATOM      1  C   UNL     1      -1.669   5.612  -5.034  0.00  0.00    +0.218 C 
ATOM      2  O   UNL     1      -2.228   5.997  -6.395  0.00  0.00    -0.216 OA
ENDROOT
BRANCH   1   3
ATOM      3  C   UNL     1      -0.397   6.646  -5.200  0.00  0.00    +0.143 C 
BRANCH   3   5
ATOM      4  C   UNL     1       1.502   6.442  -4.834  0.00  0.00    +0.171 C 
ATOM      5  N   UNL     1       0.777   5.912  -4.806  0.00  0.00    +0.313 N 
ATOM      6  C   UNL     1       0.695   5.435  -3.417  0.00  0.00    +0.171 C 
ATOM      7  C   UNL     1       0.981   4.718  -5.628  0.00  0.00    +0.171 C 
ENDBRANCH   3   5
ENDBRANCH   1   3
BRANCH   1   8
ATOM      8  C   UNL     1      -2.586   6.761  -4.284  0.00  0.00    +0.153 C 
BRANCH   8   9
ATOM      9  C   UNL     1      -3.056   6.084  -3.052  0.00  0.00    +0.368 C 
ATOM     10  O   UNL     1      -2.825   4.734  -2.790  0.00  0.00    -0.246 OA
ATOM     11  O   UNL     1      -3.963   6.622  -2.349  0.00  0.00    -0.246 OA
ENDBRANCH   8   9
ENDBRANCH   1   8
TORSDOF 4
ENDMDL
MODEL 6
REMARK VINA RESULT:      -4.2      2.093      3.101
REMARK  Name = 
REMARK  4 active torsions:
REMARK  status: ('A' for Active; 'I' for Inactive)
REMARK    1  A    between atoms: N_2  and  C_5
REMARK    2  A    between atoms: C_5  and  C_6
REMARK    3  A    between atoms: C_6  and  C_8
REMARK    4  A    between atoms: C_8  and  C_9
REMARK                            x       y       z     vdW  Elec       q    Type
REMARK                         _______ _______ _______ _____ _____    ______ ____
ROOT
ATOM      1  C   UNL     1       6.417   5.406 -13.100  0.00  0.00    +0.218 C 
ATOM      2  O   UNL     1       7.689   4.635 -12.785  0.00  0.00    -0.216 OA
ENDROOT
BRANCH   1   3
ATOM      3  C   UNL     1       6.723   6.509 -11.915  0.00  0.00    +0.143 C 
BRANCH   3   5
ATOM      4  C   UNL     1       5.274   7.251 -10.851  0.00  0.00    +0.171 C 
ATOM      5  N   UNL     1       5.618   6.433 -10.995  0.00  0.00    +0.313 N 
ATOM      6  C   UNL     1       4.507   5.629 -11.527  0.00  0.00    +0.171 C 
ATOM      7  C   UNL     1       5.997   5.805  -9.729  0.00  0.00    +0.171 C 
ENDBRANCH   3   5
ENDBRANCH   1   3
BRANCH   1   8
ATOM      8  C   UNL     1       7.198   6.316 -14.234  0.00  0.00    +0.153 C 
BRANCH   8   9
ATOM      9  C   UNL     1       6.096   6.957 -14.988  0.00  0.00    +0.368 C 
ATOM     10  O   UNL     1       6.165   8.260 -15.478  0.00  0.00    -0.246 OA
ATOM     11  O   UNL     1       4.928   6.465 -14.931  0.00  0.00    -0.246 OA
ENDBRANCH   8   9
ENDBRANCH   1   8
TORSDOF 4
ENDMDL
MODEL 7
REMARK VINA RESULT:      -4.2      7.990     10.053
REMARK  Name = 
REMARK  4 active torsions:
REMARK  status: ('A' for Active; 'I' for Inactive)
REMARK    1  A    between atoms: N_2  and  C_5
REMARK    2  A    between atoms: C_5  and  C_6
REMARK    3  A    between atoms: C_6  and  C_8
REMARK    4  A    between atoms: C_8  and  C_9
REMARK                            x       y       z     vdW  Elec       q    Type
REMARK                         _______ _______ _______ _____ _____    ______ ____
ROOT
ATOM      1  C   UNL     1      -0.617   5.449  -5.170  0.00  0.00    +0.218 C 
ATOM      2  O   UNL     1      -1.410   5.809  -6.416  0.00  0.00    -0.216 OA
ENDROOT
BRANCH   1   3
ATOM      3  C   UNL     1       0.285   6.825  -5.277  0.00  0.00    +0.143 C 
BRANCH   3   5
ATOM      4  C   UNL     1       1.936   6.693  -4.258  0.00  0.00    +0.171 C 
ATOM      5  N   UNL     1       1.654   6.429  -5.070  0.00  0.00    +0.313 N 
ATOM      6  C   UNL     1       1.819   4.968  -5.085  0.00  0.00    +0.171 C 
ATOM      7  C   UNL     1       2.540   6.944  -6.115  0.00  0.00    +0.171 C 
ENDBRANCH   3   5
ENDBRANCH   1   3
BRANCH   1   8
ATOM      8  C   UNL     1      -1.730   6.181  -4.196  0.00  0.00    +0.153 C 
BRANCH   8   9
ATOM      9  C   UNL     1      -1.693   5.373  -2.955  0.00  0.00    +0.368 C 
ATOM     10  O   UNL     1      -0.507   4.961  -2.350  0.00  0.00    -0.246 OA
ATOM     11  O   UNL     1      -2.733   4.751  -2.581  0.00  0.00    -0.246 OA
ENDBRANCH   8   9
ENDBRANCH   1   8
TORSDOF 4
ENDMDL
MODEL 8
REMARK VINA RESULT:      -4.0      4.730      6.647
REMARK  Name = 
REMARK  4 active torsions:
REMARK  status: ('A' for Active; 'I' for Inactive)
REMARK    1  A    between atoms: N_2  and  C_5
REMARK    2  A    between atoms: C_5  and  C_6
REMARK    3  A    between atoms: C_6  and  C_8
REMARK    4  A    between atoms: C_8  and  C_9
REMARK                            x       y       z     vdW  Elec       q    Type
REMARK                         _______ _______ _______ _____ _____    ______ ____
ROOT
ATOM      1  C   UNL     1       1.592   6.823  -8.232  0.00  0.00    +0.218 C 
ATOM      2  O   UNL     1       2.276   8.160  -7.994  0.00  0.00    -0.216 OA
ENDROOT
BRANCH   1   3
ATOM      3  C   UNL     1       3.005   6.000  -8.031  0.00  0.00    +0.143 C 
BRANCH   3   5
ATOM      4  C   UNL     1       3.049   4.187  -8.736  0.00  0.00    +0.171 C 
ATOM      5  N   UNL     1       3.054   5.016  -9.082  0.00  0.00    +0.313 N 
ATOM      6  C   UNL     1       1.875   5.080  -9.959  0.00  0.00    +0.171 C 
ATOM      7  C   UNL     1       4.214   5.201  -9.956  0.00  0.00    +0.171 C 
ENDBRANCH   3   5
ENDBRANCH   1   3
BRANCH   1   8
ATOM      8  C   UNL     1       1.212   6.684  -6.633  0.00  0.00    +0.153 C 
BRANCH   8   9
ATOM      9  C   UNL     1       0.344   5.484  -6.583  0.00  0.00    +0.368 C 
ATOM     10  O   UNL     1       0.717   4.300  -5.948  0.00  0.00    -0.246 OA
ATOM     11  O   UNL     1      -0.625   5.377  -7.394  0.00  0.00    -0.246 OA
ENDBRANCH   8   9
ENDBRANCH   1   8
TORSDOF 4
ENDMDL
MODEL 9
REMARK VINA RESULT:      -4.0      4.516      5.634
REMARK  Name = 
REMARK  4 active torsions:
REMARK  status: ('A' for Active; 'I' for Inactive)
REMARK    1  A    between atoms: N_2  and  C_5
REMARK    2  A    between atoms: C_5  and  C_6
REMARK    3  A    between atoms: C_6  and  C_8
REMARK    4  A    between atoms: C_8  and  C_9
REMARK                            x       y       z     vdW  Elec       q    Type
REMARK                         _______ _______ _______ _____ _____    ______ ____
ROOT
ATOM      1  C   UNL     1       2.745   7.037  -7.223  0.00  0.00    +0.218 C 
ATOM      2  O   UNL     1       2.091   8.276  -7.816  0.00  0.00    -0.216 OA
ENDROOT
BRANCH   1   3
ATOM      3  C   UNL     1       1.380   6.141  -7.445  0.00  0.00    +0.143 C 
BRANCH   3   5
ATOM      4  C   UNL     1       1.195   4.591  -6.285  0.00  0.00    +0.171 C 
ATOM      5  N   UNL     1       1.120   5.482  -6.192  0.00  0.00    +0.313 N 
ATOM      6  C   UNL     1       2.096   5.851  -5.156  0.00  0.00    +0.171 C 
ATOM      7  C   UNL     1      -0.193   5.832  -5.648  0.00  0.00    +0.171 C 
ENDBRANCH   3   5
ENDBRANCH   1   3
BRANCH   1   8
ATOM      8  C   UNL     1       3.348   6.597  -8.695  0.00  0.00    +0.153 C 
BRANCH   8   9
ATOM      9  C   UNL     1       4.150   5.388  -8.396  0.00  0.00    +0.368 C 
ATOM     10  O   UNL     1       3.913   4.150  -8.992  0.00  0.00    -0.246 OA
ATOM     11  O   UNL     1       4.866   5.354  -7.350  0.00  0.00    -0.246 OA
ENDBRANCH   8   9
ENDBRANCH   1   8
TORSDOF 4
ENDMDL
