MODEL 1
REMARK VINA RESULT:      -6.5      0.000      0.000
REMARK  Name = 
REMARK  6 active torsions:
REMARK  status: ('A' for Active; 'I' for Inactive)
REMARK    1  A    between atoms: C_2  and  N_4
REMARK    2  A    between atoms: N_4  and  C_5
REMARK    3  A    between atoms: C_5  and  C_6
REMARK    4  A    between atoms: C_6  and  C_8
REMARK    5  A    between atoms: C_8  and  O_9
REMARK    6  A    between atoms: O_9  and  C_10
REMARK                            x       y       z     vdW  Elec       q    Type
REMARK                         _______ _______ _______ _____ _____    ______ ____
ROOT
ATOM      1  O   UNL     1       1.181   5.596  -6.976  0.00  0.00    -0.473 OA
ENDROOT
BRANCH   1   2
ATOM      2  C   UNL     1      -0.035   5.403  -6.334  0.00  0.00    +0.140 A 
ATOM      3  C   UNL     1      -0.074   5.571  -4.959  0.00  0.00    +0.053 A 
ATOM      4  C   UNL     1      -1.291   5.795  -4.340  0.00  0.00    +0.084 A 
ATOM      5  N   UNL     1      -0.983   5.907  -3.025  0.00  0.00    -0.244 NA
ATOM      6  C   UNL     1       0.179   5.311  -2.755  0.00  0.00    +0.099 A 
ATOM      7  C   UNL     1      -2.425   5.974  -5.099  0.00  0.00    +0.019 A 
ATOM      8  C   UNL     1      -2.442   5.665  -6.438  0.00  0.00    +0.005 A 
ATOM      9  C   UNL     1       0.833   5.218  -3.977  0.00  0.00    +0.025 A 
ATOM     10  C   UNL     1      -1.230   5.313  -7.018  0.00  0.00    +0.037 A 
ENDBRANCH   1   2
BRANCH   1  11
ATOM     11  C   UNL     1       1.160   6.175  -8.280  0.00  0.00    +0.240 C 
BRANCH  11  12
ATOM     12  C   UNL     1       2.649   6.960  -8.291  0.00  0.00    +0.213 C 
ATOM     13  O   UNL     1       2.044   8.186  -7.559  0.00  0.00    -0.218 OA
BRANCH  12  14
ATOM     14  C   UNL     1       3.071   6.250  -6.823  0.00  0.00    +0.125 C 
BRANCH  14  15
ATOM     15  N   UNL     1       3.548   7.422  -6.091  0.00  0.00    -0.217 NA
BRANCH  15  17
ATOM     16  C   UNL     1       5.093   7.791  -4.284  0.00  0.00    +0.019 C 
ATOM     17  C   UNL     1       3.962   6.959  -4.768  0.00  0.00    +0.073 C 
ATOM     18  C   UNL     1       4.493   5.533  -4.856  0.00  0.00    +0.019 C 
ENDBRANCH  15  17
ENDBRANCH  14  15
ENDBRANCH  12  14
ENDBRANCH  11  12
ENDBRANCH   1  11
TORSDOF 6
ENDMDL
MODEL 2
REMARK VINA RESULT:      -6.3      2.056      2.874
REMARK  Name = 
REMARK  6 active torsions:
REMARK  status: ('A' for Active; 'I' for Inactive)
REMARK    1  A    between atoms: C_2  and  N_4
REMARK    2  A    between atoms: N_4  and  C_5
REMARK    3  A    between atoms: C_5  and  C_6
REMARK    4  A    between atoms: C_6  and  C_8
REMARK    5  A    between atoms: C_8  and  O_9
REMARK    6  A    between atoms: O_9  and  C_10
REMARK                            x       y       z     vdW  Elec       q    Type
REMARK                         _______ _______ _______ _____ _____    ______ ____
ROOT
ATOM      1  O   UNL     1       1.030   6.113  -7.044  0.00  0.00    -0.473 OA
ENDROOT
BRANCH   1   2
ATOM      2  C   UNL     1      -0.083   5.660  -6.349  0.00  0.00    +0.140 A 
ATOM      3  C   UNL     1      -0.036   5.689  -4.964  0.00  0.00    +0.053 A 
ATOM      4  C   UNL     1      -1.218   5.647  -4.246  0.00  0.00    +0.084 A 
ATOM      5  N   UNL     1      -0.827   5.686  -2.950  0.00  0.00    -0.244 NA
ATOM      6  C   UNL     1       0.434   5.270  -2.821  0.00  0.00    +0.099 A 
ATOM      7  C   UNL     1      -2.425   5.705  -4.907  0.00  0.00    +0.019 A 
ATOM      8  C   UNL     1      -2.501   5.524  -6.268  0.00  0.00    +0.005 A 
ATOM      9  C   UNL     1       0.992   5.402  -4.086  0.00  0.00    +0.025 A 
ATOM     10  C   UNL     1      -1.301   5.436  -6.959  0.00  0.00    +0.037 A 
ENDBRANCH   1   2
BRANCH   1  11
ATOM     11  C   UNL     1       1.477   5.342  -8.158  0.00  0.00    +0.240 C 
BRANCH  11  12
ATOM     12  C   UNL     1       2.583   4.323  -7.401  0.00  0.00    +0.213 C 
ATOM     13  O   UNL     1       2.617   3.388  -8.638  0.00  0.00    -0.218 OA
BRANCH  12  14
ATOM     14  C   UNL     1       3.873   5.222  -8.004  0.00  0.00    +0.125 C 
BRANCH  14  15
ATOM     15  N   UNL     1       3.810   4.859  -9.419  0.00  0.00    -0.217 NA
BRANCH  15  17
ATOM     16  C   UNL     1       6.095   5.539  -9.102  0.00  0.00    +0.019 C 
ATOM     17  C   UNL     1       4.970   5.466 -10.067  0.00  0.00    +0.073 C 
ATOM     18  C   UNL     1       4.656   6.904 -10.463  0.00  0.00    +0.019 C 
ENDBRANCH  15  17
ENDBRANCH  14  15
ENDBRANCH  12  14
ENDBRANCH  11  12
ENDBRANCH   1  11
TORSDOF 6
ENDMDL
MODEL 3
REMARK VINA RESULT:      -6.2      1.972      2.912
REMARK  Name = 
REMARK  6 active torsions:
REMARK  status: ('A' for Active; 'I' for Inactive)
REMARK    1  A    between atoms: C_2  and  N_4
REMARK    2  A    between atoms: N_4  and  C_5
REMARK    3  A    between atoms: C_5  and  C_6
REMARK    4  A    between atoms: C_6  and  C_8
REMARK    5  A    between atoms: C_8  and  O_9
REMARK    6  A    between atoms: O_9  and  C_10
REMARK                            x       y       z     vdW  Elec       q    Type
REMARK                         _______ _______ _______ _____ _____    ______ ____
ROOT
ATOM      1  O   UNL     1       1.352   5.734  -4.231  0.00  0.00    -0.473 OA
ENDROOT
BRANCH   1   2
ATOM      2  C   UNL     1       0.134   5.393  -4.800  0.00  0.00    +0.140 A 
ATOM      3  C   UNL     1      -1.015   5.629  -4.061  0.00  0.00    +0.053 A 
ATOM      4  C   UNL     1      -2.234   5.697  -4.710  0.00  0.00    +0.084 A 
ATOM      5  N   UNL     1      -3.129   5.929  -3.720  0.00  0.00    -0.244 NA
ATOM      6  C   UNL     1      -2.648   5.534  -2.540  0.00  0.00    +0.099 A 
ATOM      7  C   UNL     1      -2.284   5.658  -6.085  0.00  0.00    +0.019 A 
ATOM      8  C   UNL     1      -1.191   5.276  -6.826  0.00  0.00    +0.005 A 
ATOM      9  C   UNL     1      -1.271   5.474  -2.711  0.00  0.00    +0.025 A 
ATOM     10  C   UNL     1      -0.000   5.082  -6.138  0.00  0.00    +0.037 A 
ENDBRANCH   1   2
BRANCH   1  11
ATOM     11  C   UNL     1       2.539   5.389  -4.943  0.00  0.00    +0.240 C 
BRANCH  11  12
ATOM     12  C   UNL     1       3.302   6.888  -5.015  0.00  0.00    +0.213 C 
ATOM     13  O   UNL     1       4.698   6.215  -4.997  0.00  0.00    -0.218 OA
BRANCH  12  14
ATOM     14  C   UNL     1       3.272   6.858  -6.699  0.00  0.00    +0.125 C 
BRANCH  14  15
ATOM     15  N   UNL     1       3.883   5.554  -6.950  0.00  0.00    -0.217 NA
BRANCH  15  17
ATOM     16  C   UNL     1       3.462   4.195  -8.889  0.00  0.00    +0.019 C 
ATOM     17  C   UNL     1       4.084   5.448  -8.393  0.00  0.00    +0.073 C 
ATOM     18  C   UNL     1       5.571   5.337  -8.707  0.00  0.00    +0.019 C 
ENDBRANCH  15  17
ENDBRANCH  14  15
ENDBRANCH  12  14
ENDBRANCH  11  12
ENDBRANCH   1  11
TORSDOF 6
ENDMDL
MODEL 4
REMARK VINA RESULT:      -6.2      3.865      7.544
REMARK  Name = 
REMARK  6 active torsions:
REMARK  status: ('A' for Active; 'I' for Inactive)
REMARK    1  A    between atoms: C_2  and  N_4
REMARK    2  A    between atoms: N_4  and  C_5
REMARK    3  A    between atoms: C_5  and  C_6
REMARK    4  A    between atoms: C_6  and  C_8
REMARK    5  A    between atoms: C_8  and  O_9
REMARK    6  A    between atoms: O_9  and  C_10
REMARK                            x       y       z     vdW  Elec       q    Type
REMARK                         _______ _______ _______ _____ _____    ______ ____
ROOT
ATOM      1  O   UNL     1       3.754   5.514  -9.440  0.00  0.00    -0.473 OA
ENDROOT
BRANCH   1   2
ATOM      2  C   UNL     1       5.060   5.462  -9.908  0.00  0.00    +0.140 A 
ATOM      3  C   UNL     1       5.271   5.673 -11.261  0.00  0.00    +0.053 A 
ATOM      4  C   UNL     1       6.532   6.034 -11.701  0.00  0.00    +0.084 A 
ATOM      5  N   UNL     1       6.399   6.152 -13.044  0.00  0.00    -0.244 NA
ATOM      6  C   UNL     1       5.353   5.450 -13.482  0.00  0.00    +0.099 A 
ATOM      7  C   UNL     1       7.526   6.305 -10.788  0.00  0.00    +0.019 A 
ATOM      8  C   UNL     1       7.390   5.962  -9.464  0.00  0.00    +0.005 A 
ATOM      9  C   UNL     1       4.550   5.258 -12.365  0.00  0.00    +0.025 A 
ATOM     10  C   UNL     1       6.153   5.474  -9.064  0.00  0.00    +0.037 A 
ENDBRANCH   1   2
BRANCH   1  11
ATOM     11  C   UNL     1       3.135   6.795  -9.339  0.00  0.00    +0.240 C 
BRANCH  11  12
ATOM     12  C   UNL     1       2.940   6.912  -7.671  0.00  0.00    +0.213 C 
ATOM     13  O   UNL     1       2.177   8.253  -7.821  0.00  0.00    -0.218 OA
BRANCH  12  14
ATOM     14  C   UNL     1       1.498   6.044  -7.746  0.00  0.00    +0.125 C 
BRANCH  14  15
ATOM     15  N   UNL     1       1.429   5.528  -6.381  0.00  0.00    -0.217 NA
BRANCH  15  17
ATOM     16  C   UNL     1      -0.807   5.365  -7.253  0.00  0.00    +0.019 C 
ATOM     17  C   UNL     1       0.015   5.463  -6.020  0.00  0.00    +0.073 C 
ATOM     18  C   UNL     1      -0.409   6.754  -5.330  0.00  0.00    +0.019 C 
ENDBRANCH  15  17
ENDBRANCH  14  15
ENDBRANCH  12  14
ENDBRANCH  11  12
ENDBRANCH   1  11
TORSDOF 6
ENDMDL
MODEL 5
REMARK VINA RESULT:      -6.2      2.265      3.901
REMARK  Name = 
REMARK  6 active torsions:
REMARK  status: ('A' for Active; 'I' for Inactive)
REMARK    1  A    between atoms: C_2  and  N_4
REMARK    2  A    between atoms: N_4  and  C_5
REMARK    3  A    between atoms: C_5  and  C_6
REMARK    4  A    between atoms: C_6  and  C_8
REMARK    5  A    between atoms: C_8  and  O_9
REMARK    6  A    between atoms: O_9  and  C_10
REMARK                            x       y       z     vdW  Elec       q    Type
REMARK                         _______ _______ _______ _____ _____    ______ ____
ROOT
ATOM      1  O   UNL     1       1.228   5.894  -6.849  0.00  0.00    -0.473 OA
ENDROOT
BRANCH   1   2
ATOM      2  C   UNL     1       0.025   5.541  -6.253  0.00  0.00    +0.140 A 
ATOM      3  C   UNL     1      -0.057   5.610  -4.871  0.00  0.00    +0.053 A 
ATOM      4  C   UNL     1      -1.301   5.672  -4.269  0.00  0.00    +0.084 A 
ATOM      5  N   UNL     1      -1.031   5.723  -2.943  0.00  0.00    -0.244 NA
ATOM      6  C   UNL     1       0.178   5.224  -2.684  0.00  0.00    +0.099 A 
ATOM      7  C   UNL     1      -2.433   5.793  -5.044  0.00  0.00    +0.019 A 
ATOM      8  C   UNL     1      -2.394   5.577  -6.401  0.00  0.00    +0.005 A 
ATOM      9  C   UNL     1       0.861   5.278  -3.892  0.00  0.00    +0.025 A 
ATOM     10  C   UNL     1      -1.143   5.384  -6.972  0.00  0.00    +0.037 A 
ENDBRANCH   1   2
BRANCH   1  11
ATOM     11  C   UNL     1       1.921   4.892  -7.591  0.00  0.00    +0.240 C 
BRANCH  11  12
ATOM     12  C   UNL     1       2.887   5.854  -8.579  0.00  0.00    +0.213 C 
ATOM     13  O   UNL     1       3.206   4.647  -9.497  0.00  0.00    -0.218 OA
BRANCH  12  14
ATOM     14  C   UNL     1       1.558   6.268  -9.528  0.00  0.00    +0.125 C 
BRANCH  14  15
ATOM     15  N   UNL     1       1.215   4.961 -10.085  0.00  0.00    -0.217 NA
BRANCH  15  17
ATOM     16  C   UNL     1       0.471   4.792 -12.366  0.00  0.00    +0.019 C 
ATOM     17  C   UNL     1       0.081   5.165 -10.983  0.00  0.00    +0.073 C 
ATOM     18  C   UNL     1      -0.291   6.642 -11.031  0.00  0.00    +0.019 C 
ENDBRANCH  15  17
ENDBRANCH  14  15
ENDBRANCH  12  14
ENDBRANCH  11  12
ENDBRANCH   1  11
TORSDOF 6
ENDMDL
MODEL 6
REMARK VINA RESULT:      -6.2      3.970      7.296
REMARK  Name = 
REMARK  6 active torsions:
REMARK  status: ('A' for Active; 'I' for Inactive)
REMARK    1  A    between atoms: C_2  and  N_4
REMARK    2  A    between atoms: N_4  and  C_5
REMARK    3  A    between atoms: C_5  and  C_6
REMARK    4  A    between atoms: C_6  and  C_8
REMARK    5  A    between atoms: C_8  and  O_9
REMARK    6  A    between atoms: O_9  and  C_10
REMARK                            x       y       z     vdW  Elec       q    Type
REMARK                         _______ _______ _______ _____ _____    ______ ____
ROOT
ATOM      1  O   UNL     1       4.203   6.745  -9.576  0.00  0.00    -0.473 OA
ENDROOT
BRANCH   1   2
ATOM      2  C   UNL     1       5.261   6.017 -10.102  0.00  0.00    +0.140 A 
ATOM      3  C   UNL     1       5.252   5.754 -11.463  0.00  0.00    +0.053 A 
ATOM      4  C   UNL     1       6.435   5.410 -12.093  0.00  0.00    +0.084 A 
ATOM      5  N   UNL     1       6.083   5.217 -13.386  0.00  0.00    -0.244 NA
ATOM      6  C   UNL     1       4.781   4.945 -13.490  0.00  0.00    +0.099 A 
ATOM      7  C   UNL     1       7.622   5.456 -11.397  0.00  0.00    +0.019 A 
ATOM      8  C   UNL     1       7.641   5.565 -10.027  0.00  0.00    +0.005 A 
ATOM      9  C   UNL     1       4.216   5.416 -12.312  0.00  0.00    +0.025 A 
ATOM     10  C   UNL     1       6.423   5.779  -9.396  0.00  0.00    +0.037 A 
ENDBRANCH   1   2
BRANCH   1  11
ATOM     11  C   UNL     1       3.575   6.248  -8.396  0.00  0.00    +0.240 C 
BRANCH  11  12
ATOM     12  C   UNL     1       2.541   7.527  -8.036  0.00  0.00    +0.213 C 
ATOM     13  O   UNL     1       1.304   6.681  -8.432  0.00  0.00    -0.218 OA
BRANCH  12  14
ATOM     14  C   UNL     1       2.418   7.019  -6.435  0.00  0.00    +0.125 C 
BRANCH  14  15
ATOM     15  N   UNL     1       3.771   6.515  -6.213  0.00  0.00    -0.217 NA
BRANCH  15  17
ATOM     16  C   UNL     1       4.850   7.602  -4.358  0.00  0.00    +0.019 C 
ATOM     17  C   UNL     1       3.979   6.471  -4.768  0.00  0.00    +0.073 C 
ATOM     18  C   UNL     1       4.727   5.199  -4.384  0.00  0.00    +0.019 C 
ENDBRANCH  15  17
ENDBRANCH  14  15
ENDBRANCH  12  14
ENDBRANCH  11  12
ENDBRANCH   1  11
TORSDOF 6
ENDMDL
MODEL 7
REMARK VINA RESULT:      -6.1      2.516      3.884
REMARK  Name = 
REMARK  6 active torsions:
REMARK  status: ('A' for Active; 'I' for Inactive)
REMARK    1  A    between atoms: C_2  and  N_4
REMARK    2  A    between atoms: N_4  and  C_5
REMARK    3  A    between atoms: C_5  and  C_6
REMARK    4  A    between atoms: C_6  and  C_8
REMARK    5  A    between atoms: C_8  and  O_9
REMARK    6  A    between atoms: O_9  and  C_10
REMARK                            x       y       z     vdW  Elec       q    Type
REMARK                         _______ _______ _______ _____ _____    ______ ____
ROOT
ATOM      1  O   UNL     1       1.033   6.550  -3.707  0.00  0.00    -0.473 OA
ENDROOT
BRANCH   1   2
ATOM      2  C   UNL     1      -0.029   6.680  -4.592  0.00  0.00    +0.140 A 
ATOM      3  C   UNL     1       0.085   6.073  -5.833  0.00  0.00    +0.053 A 
ATOM      4  C   UNL     1      -1.058   5.821  -6.570  0.00  0.00    +0.084 A 
ATOM      5  N   UNL     1      -0.604   5.240  -7.706  0.00  0.00    -0.244 NA
ATOM      6  C   UNL     1       0.674   5.554  -7.923  0.00  0.00    +0.099 A 
ATOM      7  C   UNL     1      -2.297   6.055  -6.017  0.00  0.00    +0.019 A 
ATOM      8  C   UNL     1      -2.435   6.789  -4.863  0.00  0.00    +0.005 A 
ATOM      9  C   UNL     1       1.165   5.958  -6.689  0.00  0.00    +0.025 A 
ATOM     10  C   UNL     1      -1.268   7.149  -4.203  0.00  0.00    +0.037 A 
ENDBRANCH   1   2
BRANCH   1  11
ATOM     11  C   UNL     1       0.971   5.499  -2.745  0.00  0.00    +0.240 C 
BRANCH  11  12
ATOM     12  C   UNL     1       2.053   6.076  -1.590  0.00  0.00    +0.213 C 
ATOM     13  O   UNL     1       1.738   4.883  -0.652  0.00  0.00    -0.218 OA
BRANCH  12  14
ATOM     14  C   UNL     1       3.319   5.224  -2.304  0.00  0.00    +0.125 C 
BRANCH  14  15
ATOM     15  N   UNL     1       4.275   6.307  -2.523  0.00  0.00    -0.217 NA
BRANCH  15  17
ATOM     16  C   UNL     1       4.320   7.264  -4.729  0.00  0.00    +0.019 C 
ATOM     17  C   UNL     1       4.799   6.147  -3.877  0.00  0.00    +0.073 C 
ATOM     18  C   UNL     1       4.249   4.870  -4.503  0.00  0.00    +0.019 C 
ENDBRANCH  15  17
ENDBRANCH  14  15
ENDBRANCH  12  14
ENDBRANCH  11  12
ENDBRANCH   1  11
TORSDOF 6
ENDMDL
MODEL 8
REMARK VINA RESULT:      -6.1      4.554      8.361
REMARK  Name = 
REMARK  6 active torsions:
REMARK  status: ('A' for Active; 'I' for Inactive)
REMARK    1  A    between atoms: C_2  and  N_4
REMARK    2  A    between atoms: N_4  and  C_5
REMARK    3  A    between atoms: C_5  and  C_6
REMARK    4  A    between atoms: C_6  and  C_8
REMARK    5  A    between atoms: C_8  and  O_9
REMARK    6  A    between atoms: O_9  and  C_10
REMARK                            x       y       z     vdW  Elec       q    Type
REMARK                         _______ _______ _______ _____ _____    ______ ____
ROOT
ATOM      1  O   UNL     1       4.653   6.404  -9.386  0.00  0.00    -0.473 OA
ENDROOT
BRANCH   1   2
ATOM      2  C   UNL     1       5.691   5.781 -10.064  0.00  0.00    +0.140 A 
ATOM      3  C   UNL     1       5.572   5.635 -11.437  0.00  0.00    +0.053 A 
ATOM      4  C   UNL     1       6.707   5.410 -12.195  0.00  0.00    +0.084 A 
ATOM      5  N   UNL     1       6.250   5.311 -13.465  0.00  0.00    -0.244 NA
ATOM      6  C   UNL     1       4.958   4.981 -13.482  0.00  0.00    +0.099 A 
ATOM      7  C   UNL     1       7.949   5.458 -11.601  0.00  0.00    +0.019 A 
ATOM      8  C   UNL     1       8.086   5.449 -10.234  0.00  0.00    +0.005 A 
ATOM      9  C   UNL     1       4.479   5.318 -12.223  0.00  0.00    +0.025 A 
ATOM     10  C   UNL     1       6.921   5.544  -9.484  0.00  0.00    +0.037 A 
ENDBRANCH   1   2
BRANCH   1  11
ATOM     11  C   UNL     1       4.094   5.730  -8.260  0.00  0.00    +0.240 C 
BRANCH  11  12
ATOM     12  C   UNL     1       2.911   4.799  -9.014  0.00  0.00    +0.213 C 
ATOM     13  O   UNL     1       2.421   4.256  -7.647  0.00  0.00    -0.218 OA
BRANCH  12  14
ATOM     14  C   UNL     1       1.814   6.075  -8.938  0.00  0.00    +0.125 C 
BRANCH  14  15
ATOM     15  N   UNL     1       1.546   6.278 -10.360  0.00  0.00    -0.217 NA
BRANCH  15  17
ATOM     16  C   UNL     1      -0.098   4.832 -11.355  0.00  0.00    +0.019 C 
ATOM     17  C   UNL     1       0.115   6.068 -10.560  0.00  0.00    +0.073 C 
ATOM     18  C   UNL     1      -0.473   7.208 -11.383  0.00  0.00    +0.019 C 
ENDBRANCH  15  17
ENDBRANCH  14  15
ENDBRANCH  12  14
ENDBRANCH  11  12
ENDBRANCH   1  11
TORSDOF 6
ENDMDL
MODEL 9
REMARK VINA RESULT:      -6.1      4.346      7.498
REMARK  Name = 
REMARK  6 active torsions:
REMARK  status: ('A' for Active; 'I' for Inactive)
REMARK    1  A    between atoms: C_2  and  N_4
REMARK    2  A    between atoms: N_4  and  C_5
REMARK    3  A    between atoms: C_5  and  C_6
REMARK    4  A    between atoms: C_6  and  C_8
REMARK    5  A    between atoms: C_8  and  O_9
REMARK    6  A    between atoms: O_9  and  C_10
REMARK                            x       y       z     vdW  Elec       q    Type
REMARK                         _______ _______ _______ _____ _____    ______ ____
ROOT
ATOM      1  O   UNL     1       5.138   6.345  -9.492  0.00  0.00    -0.473 OA
ENDROOT
BRANCH   1   2
ATOM      2  C   UNL     1       5.209   6.219 -10.872  0.00  0.00    +0.140 A 
ATOM      3  C   UNL     1       6.400   5.771 -11.420  0.00  0.00    +0.053 A 
ATOM      4  C   UNL     1       6.401   5.246 -12.700  0.00  0.00    +0.084 A 
ATOM      5  N   UNL     1       7.695   4.917 -12.928  0.00  0.00    -0.244 NA
ATOM      6  C   UNL     1       8.510   5.614 -12.135  0.00  0.00    +0.099 A 
ATOM      7  C   UNL     1       5.210   5.056 -13.365  0.00  0.00    +0.019 A 
ATOM      8  C   UNL     1       4.043   5.624 -12.913  0.00  0.00    +0.005 A 
ATOM      9  C   UNL     1       7.712   6.050 -11.086  0.00  0.00    +0.025 A 
ATOM     10  C   UNL     1       4.091   6.265 -11.682  0.00  0.00    +0.037 A 
ENDBRANCH   1   2
BRANCH   1  11
ATOM     11  C   UNL     1       4.761   5.194  -8.738  0.00  0.00    +0.240 C 
BRANCH  11  12
ATOM     12  C   UNL     1       3.420   5.791  -7.914  0.00  0.00    +0.213 C 
ATOM     13  O   UNL     1       2.892   4.355  -7.666  0.00  0.00    -0.218 OA
BRANCH  12  14
ATOM     14  C   UNL     1       4.265   5.768  -6.457  0.00  0.00    +0.125 C 
BRANCH  14  15
ATOM     15  N   UNL     1       3.641   6.899  -5.772  0.00  0.00    -0.217 NA
BRANCH  15  17
ATOM     16  C   UNL     1       5.250   7.734  -4.191  0.00  0.00    +0.019 C 
ATOM     17  C   UNL     1       4.075   6.846  -4.378  0.00  0.00    +0.073 C 
ATOM     18  C   UNL     1       4.548   5.439  -4.030  0.00  0.00    +0.019 C 
ENDBRANCH  15  17
ENDBRANCH  14  15
ENDBRANCH  12  14
ENDBRANCH  11  12
ENDBRANCH   1  11
TORSDOF 6
ENDMDL
