MODEL 1
REMARK VINA RESULT:      -9.9      0.000      0.000
REMARK  Name = 
REMARK  4 active torsions:
REMARK  status: ('A' for Active; 'I' for Inactive)
REMARK    1  A    between atoms: C_3  and  C_4
REMARK    2  A    between atoms: C_4  and  N_5
REMARK    3  A    between atoms: C_21  and  C_22
REMARK    4  A    between atoms: C_22  and  N_23
REMARK                            x       y       z     vdW  Elec       q    Type
REMARK                         _______ _______ _______ _____ _____    ______ ____
ROOT
ATOM      1  C   UNL     1      -0.050   5.382  -8.880  0.00  0.00    -0.003 A 
ATOM      2  C   UNL     1       0.691   5.798  -7.780  0.00  0.00    -0.006 A 
ATOM      3  C   UNL     1       1.532   6.880  -8.012  0.00  0.00    -0.003 A 
ATOM      4  C   UNL     1       1.962   7.145  -9.307  0.00  0.00    -0.003 A 
ATOM      5  C   UNL     1       1.563   6.357 -10.374  0.00  0.00    -0.006 A 
ATOM      6  C   UNL     1       0.390   5.641 -10.173  0.00  0.00    -0.003 A 
ENDROOT
BRANCH   2   7
ATOM      7  C   UNL     1       0.773   4.982  -6.528  0.00  0.00    +0.099 C 
BRANCH   7   8
ATOM      8  N   UNL     1       1.606   5.703  -5.610  0.00  0.00    -0.268 NA
ATOM      9  C   UNL     1       0.925   6.674  -4.813  0.00  0.00    +0.091 C 
ATOM     10  C   UNL     1       0.099   6.114  -3.700  0.00  0.00    +0.106 C 
ATOM     11  N   UNL     1       0.718   5.037  -2.980  0.00  0.00    -0.217 NA
ATOM     12  C   UNL     1       0.794   5.285  -1.546  0.00  0.00    +0.090 C 
ATOM     13  C   UNL     1       1.820   6.354  -1.291  0.00  0.00    +0.038 C 
ATOM     14  C   UNL     1       3.105   5.822  -0.719  0.00  0.00    +0.090 C 
ATOM     15  N   UNL     1       4.211   5.928  -1.647  0.00  0.00    -0.216 NA
ATOM     16  C   UNL     1       4.699   7.274  -1.796  0.00  0.00    +0.107 C 
ATOM     17  C   UNL     1       4.060   8.024  -2.931  0.00  0.00    +0.107 C 
ATOM     18  N   UNL     1       4.670   7.738  -4.213  0.00  0.00    -0.216 NA
ATOM     19  C   UNL     1       3.683   7.091  -5.073  0.00  0.00    +0.090 C 
ATOM     20  C   UNL     1       3.894   5.583  -5.006  0.00  0.00    +0.036 C 
ATOM     21  C   UNL     1       2.542   4.885  -4.893  0.00  0.00    +0.074 C 
ENDBRANCH   7   8
ENDBRANCH   2   7
BRANCH   5  22
ATOM     22  C   UNL     1       2.420   6.058 -11.536  0.00  0.00    +0.099 C 
BRANCH  22  23
ATOM     23  N   UNL     1       3.758   5.668 -11.198  0.00  0.00    -0.268 NA
ATOM     24  C   UNL     1       4.306   4.948 -12.347  0.00  0.00    +0.091 C 
ATOM     25  C   UNL     1       3.772   5.638 -13.592  0.00  0.00    +0.106 C 
ATOM     26  N   UNL     1       4.585   6.809 -13.856  0.00  0.00    -0.217 NA
ATOM     27  C   UNL     1       5.507   6.465 -14.922  0.00  0.00    +0.090 C 
ATOM     28  C   UNL     1       6.566   5.507 -14.395  0.00  0.00    +0.038 C 
ATOM     29  C   UNL     1       7.313   6.180 -13.262  0.00  0.00    +0.090 C 
ATOM     30  N   UNL     1       8.130   5.189 -12.568  0.00  0.00    -0.216 NA
ATOM     31  C   UNL     1       8.958   5.890 -11.597  0.00  0.00    +0.107 C 
ATOM     32  C   UNL     1       8.102   6.618 -10.581  0.00  0.00    +0.107 C 
ATOM     33  N   UNL     1       7.228   5.623  -9.988  0.00  0.00    -0.216 NA
ATOM     34  C   UNL     1       5.904   6.210  -9.837  0.00  0.00    +0.090 C 
ATOM     35  C   UNL     1       5.036   5.128  -9.215  0.00  0.00    +0.036 C 
ATOM     36  C   UNL     1       3.852   4.778 -10.074  0.00  0.00    +0.074 C 
ENDBRANCH  22  23
ENDBRANCH   5  22
TORSDOF 4
ENDMDL
MODEL 2
REMARK VINA RESULT:      -9.2      2.589     10.582
REMARK  Name = 
REMARK  4 active torsions:
REMARK  status: ('A' for Active; 'I' for Inactive)
REMARK    1  A    between atoms: C_3  and  C_4
REMARK    2  A    between atoms: C_4  and  N_5
REMARK    3  A    between atoms: C_21  and  C_22
REMARK    4  A    between atoms: C_22  and  N_23
REMARK                            x       y       z     vdW  Elec       q    Type
REMARK                         _______ _______ _______ _____ _____    ______ ____
ROOT
ATOM      1  C   UNL     1       4.387   6.770  -5.863  0.00  0.00    -0.003 A 
ATOM      2  C   UNL     1       3.220   6.132  -6.267  0.00  0.00    -0.006 A 
ATOM      3  C   UNL     1       2.096   6.425  -5.504  0.00  0.00    -0.003 A 
ATOM      4  C   UNL     1       2.254   6.867  -4.195  0.00  0.00    -0.003 A 
ATOM      5  C   UNL     1       3.512   7.031  -3.638  0.00  0.00    -0.006 A 
ATOM      6  C   UNL     1       4.545   7.201  -4.551  0.00  0.00    -0.003 A 
ENDROOT
BRANCH   2   7
ATOM      7  C   UNL     1       3.232   5.023  -7.271  0.00  0.00    +0.099 C 
BRANCH   7   8
ATOM      8  N   UNL     1       2.601   5.522  -8.458  0.00  0.00    -0.268 NA
ATOM      9  C   UNL     1       3.256   6.638  -9.065  0.00  0.00    +0.091 C 
ATOM     10  C   UNL     1       4.509   6.308  -9.811  0.00  0.00    +0.106 C 
ATOM     11  N   UNL     1       4.432   5.116 -10.610  0.00  0.00    -0.217 NA
ATOM     12  C   UNL     1       4.774   5.349 -12.007  0.00  0.00    +0.090 C 
ATOM     13  C   UNL     1       3.667   6.133 -12.655  0.00  0.00    +0.038 C 
ATOM     14  C   UNL     1       2.804   5.304 -13.567  0.00  0.00    +0.090 C 
ATOM     15  N   UNL     1       1.463   5.127 -13.050  0.00  0.00    -0.216 NA
ATOM     16  C   UNL     1       0.650   6.310 -13.165  0.00  0.00    +0.107 C 
ATOM     17  C   UNL     1       0.686   7.185 -11.944  0.00  0.00    +0.107 C 
ATOM     18  N   UNL     1      -0.224   6.749 -10.907  0.00  0.00    -0.216 NA
ATOM     19  C   UNL     1       0.549   6.358  -9.731  0.00  0.00    +0.090 C 
ATOM     20  C   UNL     1       0.735   4.846  -9.750  0.00  0.00    +0.036 C 
ATOM     21  C   UNL     1       2.172   4.504  -9.374  0.00  0.00    +0.074 C 
ENDBRANCH   7   8
ENDBRANCH   2   7
BRANCH   5  22
ATOM     22  C   UNL     1       3.816   6.777  -2.218  0.00  0.00    +0.099 C 
BRANCH  22  23
ATOM     23  N   UNL     1       2.659   6.638  -1.382  0.00  0.00    -0.268 NA
ATOM     24  C   UNL     1       3.006   7.173  -0.066  0.00  0.00    +0.091 C 
ATOM     25  C   UNL     1       3.904   8.376  -0.302  0.00  0.00    +0.106 C 
ATOM     26  N   UNL     1       3.070   9.520  -0.618  0.00  0.00    -0.217 NA
ATOM     27  C   UNL     1       2.970  10.328   0.582  0.00  0.00    +0.090 C 
ATOM     28  C   UNL     1       2.092   9.620   1.605  0.00  0.00    +0.038 C 
ATOM     29  C   UNL     1       0.716   9.411   1.006  0.00  0.00    +0.090 C 
ATOM     30  N   UNL     1      -0.043   8.497   1.854  0.00  0.00    -0.216 NA
ATOM     31  C   UNL     1      -1.407   8.445   1.348  0.00  0.00    +0.107 C 
ATOM     32  C   UNL     1      -1.437   7.932  -0.078  0.00  0.00    +0.107 C 
ATOM     33  N   UNL     1      -0.772   6.642  -0.067  0.00  0.00    -0.216 NA
ATOM     34  C   UNL     1       0.065   6.550  -1.254  0.00  0.00    +0.090 C 
ATOM     35  C   UNL     1       0.734   5.185  -1.189  0.00  0.00    +0.036 C 
ATOM     36  C   UNL     1       2.234   5.282  -1.175  0.00  0.00    +0.074 C 
ENDBRANCH  22  23
ENDBRANCH   5  22
TORSDOF 4
ENDMDL
MODEL 3
REMARK VINA RESULT:      -9.1      2.111      4.198
REMARK  Name = 
REMARK  4 active torsions:
REMARK  status: ('A' for Active; 'I' for Inactive)
REMARK    1  A    between atoms: C_3  and  C_4
REMARK    2  A    between atoms: C_4  and  N_5
REMARK    3  A    between atoms: C_21  and  C_22
REMARK    4  A    between atoms: C_22  and  N_23
REMARK                            x       y       z     vdW  Elec       q    Type
REMARK                         _______ _______ _______ _____ _____    ______ ____
ROOT
ATOM      1  C   UNL     1       2.963   5.446  -5.228  0.00  0.00    -0.003 A 
ATOM      2  C   UNL     1       1.844   4.670  -5.505  0.00  0.00    -0.006 A 
ATOM      3  C   UNL     1       1.985   3.798  -6.578  0.00  0.00    -0.003 A 
ATOM      4  C   UNL     1       2.927   4.072  -7.563  0.00  0.00    -0.003 A 
ATOM      5  C   UNL     1       3.737   5.194  -7.492  0.00  0.00    -0.006 A 
ATOM      6  C   UNL     1       3.898   5.726  -6.218  0.00  0.00    -0.003 A 
ENDROOT
BRANCH   2   7
ATOM      7  C   UNL     1       0.517   4.941  -4.870  0.00  0.00    +0.099 C 
BRANCH   7   8
ATOM      8  N   UNL     1       0.769   5.682  -3.668  0.00  0.00    -0.268 NA
ATOM      9  C   UNL     1       0.241   7.010  -3.656  0.00  0.00    +0.091 C 
ATOM     10  C   UNL     1      -1.238   7.101  -3.460  0.00  0.00    +0.106 C 
ATOM     11  N   UNL     1      -1.765   6.209  -2.466  0.00  0.00    -0.217 NA
ATOM     12  C   UNL     1      -2.528   6.899  -1.433  0.00  0.00    +0.090 C 
ATOM     13  C   UNL     1      -1.580   7.678  -0.566  0.00  0.00    +0.038 C 
ATOM     14  C   UNL     1      -1.353   7.052   0.783  0.00  0.00    +0.090 C 
ATOM     15  N   UNL     1      -0.008   6.539   0.936  0.00  0.00    -0.216 NA
ATOM     16  C   UNL     1       0.975   7.574   1.124  0.00  0.00    +0.107 C 
ATOM     17  C   UNL     1       1.615   8.035  -0.156  0.00  0.00    +0.107 C 
ATOM     18  N   UNL     1       2.702   7.181  -0.585  0.00  0.00    -0.216 NA
ATOM     19  C   UNL     1       2.345   6.566  -1.861  0.00  0.00    +0.090 C 
ATOM     20  C   UNL     1       1.791   5.173  -1.592  0.00  0.00    +0.036 C 
ATOM     21  C   UNL     1       0.558   4.939  -2.458  0.00  0.00    +0.074 C 
ENDBRANCH   7   8
ENDBRANCH   2   7
BRANCH   5  22
ATOM     22  C   UNL     1       4.187   5.954  -8.671  0.00  0.00    +0.099 C 
BRANCH  22  23
ATOM     23  N   UNL     1       3.181   6.132  -9.678  0.00  0.00    -0.268 NA
ATOM     24  C   UNL     1       3.803   6.839 -10.797  0.00  0.00    +0.091 C 
ATOM     25  C   UNL     1       5.223   6.311 -10.915  0.00  0.00    +0.106 C 
ATOM     26  N   UNL     1       5.192   5.056 -11.641  0.00  0.00    -0.217 NA
ATOM     27  C   UNL     1       5.603   5.334 -13.004  0.00  0.00    +0.090 C 
ATOM     28  C   UNL     1       4.503   6.100 -13.726  0.00  0.00    +0.038 C 
ATOM     29  C   UNL     1       3.243   5.258 -13.728  0.00  0.00    +0.090 C 
ATOM     30  N   UNL     1       2.116   6.080 -14.160  0.00  0.00    -0.216 NA
ATOM     31  C   UNL     1       0.958   5.211 -14.311  0.00  0.00    +0.107 C 
ATOM     32  C   UNL     1       0.605   4.547 -12.995  0.00  0.00    +0.107 C 
ATOM     33  N   UNL     1       0.408   5.615 -12.033  0.00  0.00    -0.216 NA
ATOM     34  C   UNL     1       1.011   5.210 -10.772  0.00  0.00    +0.090 C 
ATOM     35  C   UNL     1       0.776   6.362  -9.807  0.00  0.00    +0.036 C 
ATOM     36  C   UNL     1       2.058   6.927  -9.264  0.00  0.00    +0.074 C 
ENDBRANCH  22  23
ENDBRANCH   5  22
TORSDOF 4
ENDMDL
MODEL 4
REMARK VINA RESULT:      -9.0      2.425     10.054
REMARK  Name = 
REMARK  4 active torsions:
REMARK  status: ('A' for Active; 'I' for Inactive)
REMARK    1  A    between atoms: C_3  and  C_4
REMARK    2  A    between atoms: C_4  and  N_5
REMARK    3  A    between atoms: C_21  and  C_22
REMARK    4  A    between atoms: C_22  and  N_23
REMARK                            x       y       z     vdW  Elec       q    Type
REMARK                         _______ _______ _______ _____ _____    ______ ____
ROOT
ATOM      1  C   UNL     1      -0.965   6.426  -5.912  0.00  0.00    -0.003 A 
ATOM      2  C   UNL     1      -0.302   5.530  -6.742  0.00  0.00    -0.006 A 
ATOM      3  C   UNL     1       0.394   4.524  -6.084  0.00  0.00    -0.003 A 
ATOM      4  C   UNL     1       0.807   4.723  -4.771  0.00  0.00    -0.003 A 
ATOM      5  C   UNL     1       0.530   5.903  -4.101  0.00  0.00    -0.006 A 
ATOM      6  C   UNL     1      -0.543   6.629  -4.603  0.00  0.00    -0.003 A 
ENDROOT
BRANCH   2   7
ATOM      7  C   UNL     1      -0.134   5.787  -8.207  0.00  0.00    +0.099 C 
BRANCH   7   8
ATOM      8  N   UNL     1       1.262   5.641  -8.502  0.00  0.00    -0.268 NA
ATOM      9  C   UNL     1       1.579   4.586  -9.412  0.00  0.00    +0.091 C 
ATOM     10  C   UNL     1       1.255   4.866 -10.844  0.00  0.00    +0.106 C 
ATOM     11  N   UNL     1       1.588   6.193 -11.284  0.00  0.00    -0.217 NA
ATOM     12  C   UNL     1       2.459   6.200 -12.452  0.00  0.00    +0.090 C 
ATOM     13  C   UNL     1       3.830   5.742 -12.040  0.00  0.00    +0.038 C 
ATOM     14  C   UNL     1       4.833   6.860 -11.959  0.00  0.00    +0.090 C 
ATOM     15  N   UNL     1       5.252   7.130 -10.600  0.00  0.00    -0.216 NA
ATOM     16  C   UNL     1       6.148   6.132 -10.074  0.00  0.00    +0.107 C 
ATOM     17  C   UNL     1       5.450   5.032  -9.325  0.00  0.00    +0.107 C 
ATOM     18  N   UNL     1       5.150   5.382  -7.953  0.00  0.00    -0.216 NA
ATOM     19  C   UNL     1       3.701   5.403  -7.776  0.00  0.00    +0.090 C 
ATOM     20  C   UNL     1       3.215   6.842  -7.905  0.00  0.00    +0.036 C 
ATOM     21  C   UNL     1       1.947   6.877  -8.751  0.00  0.00    +0.074 C 
ENDBRANCH   7   8
ENDBRANCH   2   7
BRANCH   5  22
ATOM     22  C   UNL     1       1.436   6.514  -3.112  0.00  0.00    +0.099 C 
BRANCH  22  23
ATOM     23  N   UNL     1       0.948   6.476  -1.763  0.00  0.00    -0.268 NA
ATOM     24  C   UNL     1       2.085   6.166  -0.897  0.00  0.00    +0.091 C 
ATOM     25  C   UNL     1       3.291   6.883  -1.482  0.00  0.00    +0.106 C 
ATOM     26  N   UNL     1       3.259   8.267  -1.053  0.00  0.00    -0.217 NA
ATOM     27  C   UNL     1       4.204   8.404   0.039  0.00  0.00    +0.090 C 
ATOM     28  C   UNL     1       3.655   7.717   1.281  0.00  0.00    +0.038 C 
ATOM     29  C   UNL     1       2.336   8.363   1.654  0.00  0.00    +0.090 C 
ATOM     30  N   UNL     1       1.666   7.544   2.661  0.00  0.00    -0.216 NA
ATOM     31  C   UNL     1       0.490   8.268   3.118  0.00  0.00    +0.107 C 
ATOM     32  C   UNL     1      -0.471   8.521   1.973  0.00  0.00    +0.107 C 
ATOM     33  N   UNL     1      -0.775   7.225   1.395  0.00  0.00    -0.216 NA
ATOM     34  C   UNL     1      -0.796   7.364  -0.054  0.00  0.00    +0.090 C 
ATOM     35  C   UNL     1      -1.116   5.982  -0.602  0.00  0.00    +0.036 C 
ATOM     36  C   UNL     1      -0.042   5.464  -1.517  0.00  0.00    +0.074 C 
ENDBRANCH  22  23
ENDBRANCH   5  22
TORSDOF 4
ENDMDL
MODEL 5
REMARK VINA RESULT:      -8.9      2.202      9.989
REMARK  Name = 
REMARK  4 active torsions:
REMARK  status: ('A' for Active; 'I' for Inactive)
REMARK    1  A    between atoms: C_3  and  C_4
REMARK    2  A    between atoms: C_4  and  N_5
REMARK    3  A    between atoms: C_21  and  C_22
REMARK    4  A    between atoms: C_22  and  N_23
REMARK                            x       y       z     vdW  Elec       q    Type
REMARK                         _______ _______ _______ _____ _____    ______ ____
ROOT
ATOM      1  C   UNL     1       5.385   5.750  -5.235  0.00  0.00    -0.003 A 
ATOM      2  C   UNL     1       4.657   6.062  -6.377  0.00  0.00    -0.006 A 
ATOM      3  C   UNL     1       3.671   7.026  -6.199  0.00  0.00    -0.003 A 
ATOM      4  C   UNL     1       3.140   7.236  -4.932  0.00  0.00    -0.003 A 
ATOM      5  C   UNL     1       3.580   6.509  -3.838  0.00  0.00    -0.006 A 
ATOM      6  C   UNL     1       4.846   5.952  -3.970  0.00  0.00    -0.003 A 
ENDROOT
BRANCH   2   7
ATOM      7  C   UNL     1       4.749   5.240  -7.623  0.00  0.00    +0.099 C 
BRANCH   7   8
ATOM      8  N   UNL     1       3.640   5.608  -8.454  0.00  0.00    -0.268 NA
ATOM      9  C   UNL     1       3.858   6.757  -9.275  0.00  0.00    +0.091 C 
ATOM     10  C   UNL     1       4.735   6.529 -10.464  0.00  0.00    +0.106 C 
ATOM     11  N   UNL     1       4.488   5.298 -11.162  0.00  0.00    -0.217 NA
ATOM     12  C   UNL     1       4.209   5.497 -12.579  0.00  0.00    +0.090 C 
ATOM     13  C   UNL     1       2.850   6.123 -12.724  0.00  0.00    +0.038 C 
ATOM     14  C   UNL     1       1.799   5.162 -13.208  0.00  0.00    +0.090 C 
ATOM     15  N   UNL     1       0.811   4.866 -12.193  0.00  0.00    -0.216 NA
ATOM     16  C   UNL     1      -0.115   5.946 -11.971  0.00  0.00    +0.107 C 
ATOM     17  C   UNL     1       0.303   6.879 -10.870  0.00  0.00    +0.107 C 
ATOM     18  N   UNL     1      -0.055   6.398  -9.552  0.00  0.00    -0.216 NA
ATOM     19  C   UNL     1       1.166   6.153  -8.790  0.00  0.00    +0.090 C 
ATOM     20  C   UNL     1       1.507   4.670  -8.880  0.00  0.00    +0.036 C 
ATOM     21  C   UNL     1       3.004   4.506  -9.117  0.00  0.00    +0.074 C 
ENDBRANCH   7   8
ENDBRANCH   2   7
BRANCH   5  22
ATOM     22  C   UNL     1       2.709   6.104  -2.720  0.00  0.00    +0.099 C 
BRANCH  22  23
ATOM     23  N   UNL     1       1.364   5.786  -3.106  0.00  0.00    -0.268 NA
ATOM     24  C   UNL     1       0.705   5.193  -1.943  0.00  0.00    +0.091 C 
ATOM     25  C   UNL     1       1.225   5.931  -0.720  0.00  0.00    +0.106 C 
ATOM     26  N   UNL     1       0.490   7.174  -0.583  0.00  0.00    -0.217 NA
ATOM     27  C   UNL     1      -0.509   6.975   0.451  0.00  0.00    +0.090 C 
ATOM     28  C   UNL     1      -1.608   6.059  -0.069  0.00  0.00    +0.038 C 
ATOM     29  C   UNL     1      -2.244   6.700  -1.286  0.00  0.00    +0.090 C 
ATOM     30  N   UNL     1      -3.097   5.721  -1.955  0.00  0.00    -0.216 NA
ATOM     31  C   UNL     1      -3.819   6.407  -3.016  0.00  0.00    +0.107 C 
ATOM     32  C   UNL     1      -2.859   6.997  -4.031  0.00  0.00    +0.107 C 
ATOM     33  N   UNL     1      -2.033   5.901  -4.504  0.00  0.00    -0.216 NA
ATOM     34  C   UNL     1      -0.663   6.380  -4.620  0.00  0.00    +0.090 C 
ATOM     35  C   UNL     1       0.153   5.195  -5.116  0.00  0.00    +0.036 C 
ATOM     36  C   UNL     1       1.261   4.826  -4.170  0.00  0.00    +0.074 C 
ENDBRANCH  22  23
ENDBRANCH   5  22
TORSDOF 4
ENDMDL
MODEL 6
REMARK VINA RESULT:      -8.8      1.949      4.187
REMARK  Name = 
REMARK  4 active torsions:
REMARK  status: ('A' for Active; 'I' for Inactive)
REMARK    1  A    between atoms: C_3  and  C_4
REMARK    2  A    between atoms: C_4  and  N_5
REMARK    3  A    between atoms: C_21  and  C_22
REMARK    4  A    between atoms: C_22  and  N_23
REMARK                            x       y       z     vdW  Elec       q    Type
REMARK                         _______ _______ _______ _____ _____    ______ ____
ROOT
ATOM      1  C   UNL     1       4.763   5.522  -5.262  0.00  0.00    -0.003 A 
ATOM      2  C   UNL     1       3.560   5.120  -4.696  0.00  0.00    -0.006 A 
ATOM      3  C   UNL     1       2.690   4.469  -5.563  0.00  0.00    -0.003 A 
ATOM      4  C   UNL     1       2.799   4.687  -6.931  0.00  0.00    -0.003 A 
ATOM      5  C   UNL     1       3.765   5.533  -7.451  0.00  0.00    -0.006 A 
ATOM      6  C   UNL     1       4.866   5.748  -6.630  0.00  0.00    -0.003 A 
ENDROOT
BRANCH   2   7
ATOM      7  C   UNL     1       3.131   5.585  -3.340  0.00  0.00    +0.099 C 
BRANCH   7   8
ATOM      8  N   UNL     1       1.697   5.563  -3.322  0.00  0.00    -0.268 NA
ATOM      9  C   UNL     1       1.119   4.642  -2.394  0.00  0.00    +0.091 C 
ATOM     10  C   UNL     1       1.179   5.065  -0.961  0.00  0.00    +0.106 C 
ATOM     11  N   UNL     1       0.882   6.452  -0.734  0.00  0.00    -0.217 NA
ATOM     12  C   UNL     1      -0.197   6.649   0.226  0.00  0.00    +0.090 C 
ATOM     13  C   UNL     1      -1.495   6.234  -0.408  0.00  0.00    +0.038 C 
ATOM     14  C   UNL     1      -2.364   7.397  -0.804  0.00  0.00    +0.090 C 
ATOM     15  N   UNL     1      -2.484   7.535  -2.240  0.00  0.00    -0.216 NA
ATOM     16  C   UNL     1      -3.342   6.543  -2.835  0.00  0.00    +0.107 C 
ATOM     17  C   UNL     1      -2.608   5.322  -3.311  0.00  0.00    +0.107 C 
ATOM     18  N   UNL     1      -2.017   5.491  -4.622  0.00  0.00    -0.216 NA
ATOM     19  C   UNL     1      -0.564   5.399  -4.502  0.00  0.00    +0.090 C 
ATOM     20  C   UNL     1       0.008   6.809  -4.421  0.00  0.00    +0.036 C 
ATOM     21  C   UNL     1       1.084   6.861  -3.342  0.00  0.00    +0.074 C 
ENDBRANCH   7   8
ENDBRANCH   2   7
BRANCH   5  22
ATOM     22  C   UNL     1       3.560   6.373  -8.645  0.00  0.00    +0.099 C 
BRANCH  22  23
ATOM     23  N   UNL     1       4.487   6.121  -9.709  0.00  0.00    -0.268 NA
ATOM     24  C   UNL     1       3.869   5.142 -10.603  0.00  0.00    +0.091 C 
ATOM     25  C   UNL     1       2.386   5.470 -10.654  0.00  0.00    +0.106 C 
ATOM     26  N   UNL     1       2.183   6.554 -11.595  0.00  0.00    -0.217 NA
ATOM     27  C   UNL     1       1.693   5.970 -12.829  0.00  0.00    +0.090 C 
ATOM     28  C   UNL     1       2.817   5.210 -13.520  0.00  0.00    +0.038 C 
ATOM     29  C   UNL     1       3.947   6.175 -13.817  0.00  0.00    +0.090 C 
ATOM     30  N   UNL     1       5.131   5.420 -14.218  0.00  0.00    -0.216 NA
ATOM     31  C   UNL     1       6.143   6.372 -14.654  0.00  0.00    +0.107 C 
ATOM     32  C   UNL     1       6.520   7.316 -13.530  0.00  0.00    +0.107 C 
ATOM     33  N   UNL     1       6.945   6.486 -12.418  0.00  0.00    -0.216 NA
ATOM     34  C   UNL     1       6.407   7.056 -11.191  0.00  0.00    +0.090 C 
ATOM     35  C   UNL     1       6.881   6.149 -10.066  0.00  0.00    +0.036 C 
ATOM     36  C   UNL     1       5.740   5.556  -9.288  0.00  0.00    +0.074 C 
ENDBRANCH  22  23
ENDBRANCH   5  22
TORSDOF 4
ENDMDL
MODEL 7
REMARK VINA RESULT:      -8.7      3.660      7.792
REMARK  Name = 
REMARK  4 active torsions:
REMARK  status: ('A' for Active; 'I' for Inactive)
REMARK    1  A    between atoms: C_3  and  C_4
REMARK    2  A    between atoms: C_4  and  N_5
REMARK    3  A    between atoms: C_21  and  C_22
REMARK    4  A    between atoms: C_22  and  N_23
REMARK                            x       y       z     vdW  Elec       q    Type
REMARK                         _______ _______ _______ _____ _____    ______ ____
ROOT
ATOM      1  C   UNL     1       4.258   8.126  -1.636  0.00  0.00    -0.003 A 
ATOM      2  C   UNL     1       4.282   7.550  -0.373  0.00  0.00    -0.006 A 
ATOM      3  C   UNL     1       4.275   6.160  -0.360  0.00  0.00    -0.003 A 
ATOM      4  C   UNL     1       3.764   5.469  -1.453  0.00  0.00    -0.003 A 
ATOM      5  C   UNL     1       3.268   6.138  -2.560  0.00  0.00    -0.006 A 
ATOM      6  C   UNL     1       3.737   7.436  -2.724  0.00  0.00    -0.003 A 
ENDROOT
BRANCH   2   7
ATOM      7  C   UNL     1       4.064   8.356   0.868  0.00  0.00    +0.099 C 
BRANCH   7   8
ATOM      8  N   UNL     1       2.682   8.215   1.225  0.00  0.00    -0.268 NA
ATOM      9  C   UNL     1       2.433   8.059   2.623  0.00  0.00    +0.091 C 
ATOM     10  C   UNL     1       2.564   9.309   3.433  0.00  0.00    +0.106 C 
ATOM     11  N   UNL     1       1.997  10.479   2.823  0.00  0.00    -0.217 NA
ATOM     12  C   UNL     1       1.020  11.145   3.676  0.00  0.00    +0.090 C 
ATOM     13  C   UNL     1      -0.219  10.298   3.749  0.00  0.00    +0.038 C 
ATOM     14  C   UNL     1      -1.362  10.842   2.937  0.00  0.00    +0.090 C 
ATOM     15  N   UNL     1      -1.676  10.010   1.795  0.00  0.00    -0.216 NA
ATOM     16  C   UNL     1      -2.357   8.792   2.151  0.00  0.00    +0.107 C 
ATOM     17  C   UNL     1      -1.433   7.628   2.371  0.00  0.00    +0.107 C 
ATOM     18  N   UNL     1      -1.050   6.969   1.141  0.00  0.00    -0.216 NA
ATOM     19  C   UNL     1       0.391   7.115   0.954  0.00  0.00    +0.090 C 
ATOM     20  C   UNL     1       0.644   8.291   0.018  0.00  0.00    +0.036 C 
ATOM     21  C   UNL     1       1.800   9.128   0.554  0.00  0.00    +0.074 C 
ENDBRANCH   7   8
ENDBRANCH   2   7
BRANCH   5  22
ATOM     22  C   UNL     1       2.131   5.656  -3.365  0.00  0.00    +0.099 C 
BRANCH  22  23
ATOM     23  N   UNL     1       2.431   5.470  -4.755  0.00  0.00    -0.268 NA
ATOM     24  C   UNL     1       1.358   4.657  -5.327  0.00  0.00    +0.091 C 
ATOM     25  C   UNL     1       0.068   5.096  -4.654  0.00  0.00    +0.106 C 
ATOM     26  N   UNL     1      -0.408   6.300  -5.308  0.00  0.00    -0.217 NA
ATOM     27  C   UNL     1      -1.475   5.910  -6.210  0.00  0.00    +0.090 C 
ATOM     28  C   UNL     1      -0.893   5.161  -7.400  0.00  0.00    +0.038 C 
ATOM     29  C   UNL     1       0.085   6.069  -8.118  0.00  0.00    +0.090 C 
ATOM     30  N   UNL     1       0.853   5.285  -9.081  0.00  0.00    -0.216 NA
ATOM     31  C   UNL     1       1.661   6.206  -9.866  0.00  0.00    +0.107 C 
ATOM     32  C   UNL     1       2.623   6.974  -8.981  0.00  0.00    +0.107 C 
ATOM     33  N   UNL     1       3.403   5.984  -8.262  0.00  0.00    -0.216 NA
ATOM     34  C   UNL     1       3.560   6.437  -6.887  0.00  0.00    +0.090 C 
ATOM     35  C   UNL     1       4.380   5.366  -6.186  0.00  0.00    +0.036 C 
ATOM     36  C   UNL     1       3.658   4.767  -5.011  0.00  0.00    +0.074 C 
ENDBRANCH  22  23
ENDBRANCH   5  22
TORSDOF 4
ENDMDL
MODEL 8
REMARK VINA RESULT:      -8.7      2.047     10.371
REMARK  Name = 
REMARK  4 active torsions:
REMARK  status: ('A' for Active; 'I' for Inactive)
REMARK    1  A    between atoms: C_3  and  C_4
REMARK    2  A    between atoms: C_4  and  N_5
REMARK    3  A    between atoms: C_21  and  C_22
REMARK    4  A    between atoms: C_22  and  N_23
REMARK                            x       y       z     vdW  Elec       q    Type
REMARK                         _______ _______ _______ _____ _____    ______ ____
ROOT
ATOM      1  C   UNL     1       2.059   6.297  -6.833  0.00  0.00    -0.003 A 
ATOM      2  C   UNL     1       3.184   6.337  -7.647  0.00  0.00    -0.006 A 
ATOM      3  C   UNL     1       4.349   5.856  -7.063  0.00  0.00    -0.003 A 
ATOM      4  C   UNL     1       4.468   5.849  -5.678  0.00  0.00    -0.003 A 
ATOM      5  C   UNL     1       3.443   6.306  -4.866  0.00  0.00    -0.006 A 
ATOM      6  C   UNL     1       2.181   6.301  -5.448  0.00  0.00    -0.003 A 
ENDROOT
BRANCH   2   7
ATOM      7  C   UNL     1       3.193   7.081  -8.945  0.00  0.00    +0.099 C 
BRANCH   7   8
ATOM      8  N   UNL     1       4.297   6.578  -9.710  0.00  0.00    -0.268 NA
ATOM      9  C   UNL     1       4.104   5.274 -10.262  0.00  0.00    +0.091 C 
ATOM     10  C   UNL     1       3.193   5.216 -11.447  0.00  0.00    +0.106 C 
ATOM     11  N   UNL     1       3.382   6.277 -12.397  0.00  0.00    -0.217 NA
ATOM     12  C   UNL     1       3.637   5.789 -13.747  0.00  0.00    +0.090 C 
ATOM     13  C   UNL     1       5.014   5.188 -13.795  0.00  0.00    +0.038 C 
ATOM     14  C   UNL     1       6.019   6.056 -14.501  0.00  0.00    +0.090 C 
ATOM     15  N   UNL     1       7.018   6.592 -13.601  0.00  0.00    -0.216 NA
ATOM     16  C   UNL     1       7.986   5.612 -13.181  0.00  0.00    +0.107 C 
ATOM     17  C   UNL     1       7.625   4.923 -11.895  0.00  0.00    +0.107 C 
ATOM     18  N   UNL     1       7.994   5.685 -10.721  0.00  0.00    -0.216 NA
ATOM     19  C   UNL     1       6.782   6.050  -9.993  0.00  0.00    +0.090 C 
ATOM     20  C   UNL     1       6.386   7.468 -10.387  0.00  0.00    +0.036 C 
ATOM     21  C   UNL     1       4.879   7.532 -10.611  0.00  0.00    +0.074 C 
ENDBRANCH   7   8
ENDBRANCH   2   7
BRANCH   5  22
ATOM     22  C   UNL     1       3.662   7.004  -3.586  0.00  0.00    +0.099 C 
BRANCH  22  23
ATOM     23  N   UNL     1       2.774   6.601  -2.535  0.00  0.00    -0.268 NA
ATOM     24  C   UNL     1       3.482   6.790  -1.269  0.00  0.00    +0.091 C 
ATOM     25  C   UNL     1       4.314   8.052  -1.416  0.00  0.00    +0.106 C 
ATOM     26  N   UNL     1       3.460   9.200  -1.184  0.00  0.00    -0.217 NA
ATOM     27  C   UNL     1       3.714   9.664   0.167  0.00  0.00    +0.090 C 
ATOM     28  C   UNL     1       3.129   8.677   1.167  0.00  0.00    +0.038 C 
ATOM     29  C   UNL     1       1.636   8.568   0.930  0.00  0.00    +0.090 C 
ATOM     30  N   UNL     1       1.111   7.432   1.681  0.00  0.00    -0.216 NA
ATOM     31  C   UNL     1      -0.340   7.451   1.569  0.00  0.00    +0.107 C 
ATOM     32  C   UNL     1      -0.773   7.325   0.122  0.00  0.00    +0.107 C 
ATOM     33  N   UNL     1      -0.167   6.107  -0.386  0.00  0.00    -0.216 NA
ATOM     34  C   UNL     1       0.312   6.364  -1.737  0.00  0.00    +0.090 C 
ATOM     35  C   UNL     1       0.934   5.061  -2.214  0.00  0.00    +0.036 C 
ATOM     36  C   UNL     1       2.383   5.218  -2.582  0.00  0.00    +0.074 C 
ENDBRANCH  22  23
ENDBRANCH   5  22
TORSDOF 4
ENDMDL
MODEL 9
REMARK VINA RESULT:      -8.6      5.638     10.701
REMARK  Name = 
REMARK  4 active torsions:
REMARK  status: ('A' for Active; 'I' for Inactive)
REMARK    1  A    between atoms: C_3  and  C_4
REMARK    2  A    between atoms: C_4  and  N_5
REMARK    3  A    between atoms: C_21  and  C_22
REMARK    4  A    between atoms: C_22  and  N_23
REMARK                            x       y       z     vdW  Elec       q    Type
REMARK                         _______ _______ _______ _____ _____    ______ ____
ROOT
ATOM      1  C   UNL     1       4.194   5.107  -2.312  0.00  0.00    -0.003 A 
ATOM      2  C   UNL     1       3.863   6.067  -3.260  0.00  0.00    -0.006 A 
ATOM      3  C   UNL     1       4.248   7.364  -2.943  0.00  0.00    -0.003 A 
ATOM      4  C   UNL     1       4.447   7.712  -1.611  0.00  0.00    -0.003 A 
ATOM      5  C   UNL     1       4.277   6.788  -0.593  0.00  0.00    -0.006 A 
ATOM      6  C   UNL     1       4.382   5.457  -0.980  0.00  0.00    -0.003 A 
ENDROOT
BRANCH   2   7
ATOM      7  C   UNL     1       2.938   5.769  -4.398  0.00  0.00    +0.099 C 
BRANCH   7   8
ATOM      8  N   UNL     1       1.610   6.080  -3.953  0.00  0.00    -0.268 NA
ATOM      9  C   UNL     1       0.938   7.082  -4.719  0.00  0.00    +0.091 C 
ATOM     10  C   UNL     1       0.437   6.630  -6.053  0.00  0.00    +0.106 C 
ATOM     11  N   UNL     1      -0.170   5.328  -6.054  0.00  0.00    -0.217 NA
ATOM     12  C   UNL     1      -1.524   5.336  -6.594  0.00  0.00    +0.090 C 
ATOM     13  C   UNL     1      -2.436   6.016  -5.612  0.00  0.00    +0.038 C 
ATOM     14  C   UNL     1      -3.322   5.061  -4.861  0.00  0.00    +0.090 C 
ATOM     15  N   UNL     1      -2.980   4.977  -3.457  0.00  0.00    -0.216 NA
ATOM     16  C   UNL     1      -3.391   6.133  -2.703  0.00  0.00    +0.107 C 
ATOM     17  C   UNL     1      -2.328   7.189  -2.593  0.00  0.00    +0.107 C 
ATOM     18  N   UNL     1      -1.376   6.927  -1.535  0.00  0.00    -0.216 NA
ATOM     19  C   UNL     1      -0.056   6.720  -2.125  0.00  0.00    +0.090 C 
ATOM     20  C   UNL     1       0.185   5.222  -2.266  0.00  0.00    +0.036 C 
ATOM     21  C   UNL     1       0.810   4.934  -3.627  0.00  0.00    +0.074 C 
ENDBRANCH   7   8
ENDBRANCH   2   7
BRANCH   5  22
ATOM     22  C   UNL     1       3.757   7.129   0.743  0.00  0.00    +0.099 C 
BRANCH  22  23
ATOM     23  N   UNL     1       3.734   8.534   1.026  0.00  0.00    -0.268 NA
ATOM     24  C   UNL     1       4.183   8.708   2.407  0.00  0.00    +0.091 C 
ATOM     25  C   UNL     1       5.275   7.679   2.647  0.00  0.00    +0.106 C 
ATOM     26  N   UNL     1       6.520   8.192   2.110  0.00  0.00    -0.217 NA
ATOM     27  C   UNL     1       7.298   8.696   3.226  0.00  0.00    +0.090 C 
ATOM     28  C   UNL     1       6.672   9.982   3.748  0.00  0.00    +0.038 C 
ATOM     29  C   UNL     1       6.649  11.004   2.630  0.00  0.00    +0.090 C 
ATOM     30  N   UNL     1       5.809  12.130   3.025  0.00  0.00    -0.216 NA
ATOM     31  C   UNL     1       5.938  13.164   2.008  0.00  0.00    +0.107 C 
ATOM     32  C   UNL     1       5.474  12.656   0.657  0.00  0.00    +0.107 C 
ATOM     33  N   UNL     1       4.114  12.185   0.837  0.00  0.00    -0.216 NA
ATOM     34  C   UNL     1       3.956  10.947   0.087  0.00  0.00    +0.090 C 
ATOM     35  C   UNL     1       2.520  10.502   0.312  0.00  0.00    +0.036 C 
ATOM     36  C   UNL     1       2.433   9.139   0.939  0.00  0.00    +0.074 C 
ENDBRANCH  22  23
ENDBRANCH   5  22
TORSDOF 4
ENDMDL
