MODEL 1
REMARK VINA RESULT:      -5.9      0.000      0.000
REMARK  Name = 
REMARK  4 active torsions:
REMARK  status: ('A' for Active; 'I' for Inactive)
REMARK    1  A    between atoms: C_2  and  C_4
REMARK    2  A    between atoms: C_4  and  C_5
REMARK    3  A    between atoms: C_5  and  C_6
REMARK    4  A    between atoms: C_6  and  C_7
REMARK                            x       y       z     vdW  Elec       q    Type
REMARK                         _______ _______ _______ _____ _____    ______ ____
ROOT
ATOM      1  C   UNL     1      -1.814   7.981  -4.376  0.00  0.00    +0.027 C 
ENDROOT
BRANCH   1   2
ATOM      2  C   UNL     1      -1.236   6.906  -5.232  0.00  0.00    -0.022 A 
ATOM      3  C   UNL     1      -2.143   6.044  -5.828  0.00  0.00    -0.004 A 
ATOM      4  C   UNL     1      -1.615   5.231  -6.824  0.00  0.00    -0.000 A 
ATOM      5  C   UNL     1      -0.371   5.491  -7.378  0.00  0.00    -0.000 A 
ATOM      6  C   UNL     1       0.529   6.218  -6.615  0.00  0.00    -0.000 A 
ATOM      7  C   UNL     1       0.134   6.795  -5.434  0.00  0.00    -0.004 A 
ENDBRANCH   1   2
BRANCH   1   8
ATOM      8  C   UNL     1      -2.748   7.295  -3.399  0.00  0.00    +0.016 C 
BRANCH   8   9
ATOM      9  C   UNL     1      -1.962   7.040  -2.118  0.00  0.00    +0.114 C 
BRANCH   9  11
ATOM     10  O   UNL     1      -0.852   5.111  -1.413  0.00  0.00    -0.246 OA
ATOM     11  C   UNL     1      -1.900   5.555  -1.970  0.00  0.00    +0.365 C 
ATOM     12  O   UNL     1      -2.801   4.692  -2.552  0.00  0.00    -0.246 OA
ENDBRANCH   9  11
ENDBRANCH   8   9
ENDBRANCH   1   8
TORSDOF 4
ENDMDL
MODEL 2
REMARK VINA RESULT:      -5.7      6.150      8.111
REMARK  Name = 
REMARK  4 active torsions:
REMARK  status: ('A' for Active; 'I' for Inactive)
REMARK    1  A    between atoms: C_2  and  C_4
REMARK    2  A    between atoms: C_4  and  C_5
REMARK    3  A    between atoms: C_5  and  C_6
REMARK    4  A    between atoms: C_6  and  C_7
REMARK                            x       y       z     vdW  Elec       q    Type
REMARK                         _______ _______ _______ _____ _____    ______ ____
ROOT
ATOM      1  C   UNL     1       4.338   4.989  -9.270  0.00  0.00    +0.027 C 
ENDROOT
BRANCH   1   2
ATOM      2  C   UNL     1       5.345   5.981  -9.739  0.00  0.00    -0.022 A 
ATOM      3  C   UNL     1       6.662   5.736  -9.380  0.00  0.00    -0.004 A 
ATOM      4  C   UNL     1       7.608   6.507 -10.045  0.00  0.00    -0.000 A 
ATOM      5  C   UNL     1       7.276   7.225 -11.184  0.00  0.00    -0.000 A 
ATOM      6  C   UNL     1       5.946   7.574 -11.355  0.00  0.00    -0.000 A 
ATOM      7  C   UNL     1       4.981   7.077 -10.513  0.00  0.00    -0.004 A 
ENDBRANCH   1   2
BRANCH   1   8
ATOM      8  C   UNL     1       4.079   5.299  -7.809  0.00  0.00    +0.016 C 
BRANCH   8   9
ATOM      9  C   UNL     1       2.647   5.812  -7.698  0.00  0.00    +0.114 C 
BRANCH   9  11
ATOM     10  O   UNL     1       3.272   7.413  -6.120  0.00  0.00    -0.246 OA
ATOM     11  C   UNL     1       2.759   7.236  -7.265  0.00  0.00    +0.365 C 
ATOM     12  O   UNL     1       2.186   8.287  -7.945  0.00  0.00    -0.246 OA
ENDBRANCH   9  11
ENDBRANCH   8   9
ENDBRANCH   1   8
TORSDOF 4
ENDMDL
MODEL 3
REMARK VINA RESULT:      -5.7      6.071      7.927
REMARK  Name = 
REMARK  4 active torsions:
REMARK  status: ('A' for Active; 'I' for Inactive)
REMARK    1  A    between atoms: C_2  and  C_4
REMARK    2  A    between atoms: C_4  and  C_5
REMARK    3  A    between atoms: C_5  and  C_6
REMARK    4  A    between atoms: C_6  and  C_7
REMARK                            x       y       z     vdW  Elec       q    Type
REMARK                         _______ _______ _______ _____ _____    ______ ____
ROOT
ATOM      1  C   UNL     1       5.121   5.204  -8.247  0.00  0.00    +0.027 C 
ENDROOT
BRANCH   1   2
ATOM      2  C   UNL     1       5.760   5.871  -9.416  0.00  0.00    -0.022 A 
ATOM      3  C   UNL     1       4.912   6.568 -10.264  0.00  0.00    -0.004 A 
ATOM      4  C   UNL     1       5.546   7.398 -11.180  0.00  0.00    -0.000 A 
ATOM      5  C   UNL     1       6.885   7.731 -11.040  0.00  0.00    -0.000 A 
ATOM      6  C   UNL     1       7.687   6.864 -10.315  0.00  0.00    -0.000 A 
ATOM      7  C   UNL     1       7.132   5.813  -9.627  0.00  0.00    -0.004 A 
ENDBRANCH   1   2
BRANCH   1   8
ATOM      8  C   UNL     1       3.684   5.684  -8.212  0.00  0.00    +0.016 C 
BRANCH   8   9
ATOM      9  C   UNL     1       3.473   6.400  -6.883  0.00  0.00    +0.114 C 
BRANCH   9  11
ATOM     10  O   UNL     1       1.207   6.832  -6.533  0.00  0.00    -0.246 OA
ATOM     11  C   UNL     1       2.270   7.262  -7.073  0.00  0.00    +0.365 C 
ATOM     12  O   UNL     1       2.234   8.346  -7.921  0.00  0.00    -0.246 OA
ENDBRANCH   9  11
ENDBRANCH   8   9
ENDBRANCH   1   8
TORSDOF 4
ENDMDL
MODEL 4
REMARK VINA RESULT:      -5.6      2.240      4.361
REMARK  Name = 
REMARK  4 active torsions:
REMARK  status: ('A' for Active; 'I' for Inactive)
REMARK    1  A    between atoms: C_2  and  C_4
REMARK    2  A    between atoms: C_4  and  C_5
REMARK    3  A    between atoms: C_5  and  C_6
REMARK    4  A    between atoms: C_6  and  C_7
REMARK                            x       y       z     vdW  Elec       q    Type
REMARK                         _______ _______ _______ _____ _____    ______ ____
ROOT
ATOM      1  C   UNL     1      -2.353   6.135  -6.360  0.00  0.00    +0.027 C 
ENDROOT
BRANCH   1   2
ATOM      2  C   UNL     1      -2.330   6.276  -4.877  0.00  0.00    -0.022 A 
ATOM      3  C   UNL     1      -1.904   7.500  -4.384  0.00  0.00    -0.004 A 
ATOM      4  C   UNL     1      -2.144   7.707  -3.031  0.00  0.00    -0.000 A 
ATOM      5  C   UNL     1      -3.013   6.890  -2.323  0.00  0.00    -0.000 A 
ATOM      6  C   UNL     1      -3.231   5.612  -2.814  0.00  0.00    -0.000 A 
ATOM      7  C   UNL     1      -2.736   5.243  -4.041  0.00  0.00    -0.004 A 
ENDBRANCH   1   2
BRANCH   1   8
ATOM      8  C   UNL     1      -1.412   4.995  -6.696  0.00  0.00    +0.016 C 
BRANCH   8   9
ATOM      9  C   UNL     1       0.001   5.564  -6.729  0.00  0.00    +0.114 C 
BRANCH   9  11
ATOM     10  O   UNL     1       0.811   4.915  -4.638  0.00  0.00    -0.246 OA
ATOM     11  C   UNL     1       0.824   4.654  -5.878  0.00  0.00    +0.365 C 
ATOM     12  O   UNL     1       1.694   3.715  -6.385  0.00  0.00    -0.246 OA
ENDBRANCH   9  11
ENDBRANCH   8   9
ENDBRANCH   1   8
TORSDOF 4
ENDMDL
MODEL 5
REMARK VINA RESULT:      -5.5      2.801      4.530
REMARK  Name = 
REMARK  4 active torsions:
REMARK  status: ('A' for Active; 'I' for Inactive)
REMARK    1  A    between atoms: C_2  and  C_4
REMARK    2  A    between atoms: C_4  and  C_5
REMARK    3  A    between atoms: C_5  and  C_6
REMARK    4  A    between atoms: C_6  and  C_7
REMARK                            x       y       z     vdW  Elec       q    Type
REMARK                         _______ _______ _______ _____ _____    ______ ____
ROOT
ATOM      1  C   UNL     1      -2.052   5.385  -6.372  0.00  0.00    +0.027 C 
ENDROOT
BRANCH   1   2
ATOM      2  C   UNL     1      -2.417   6.124  -5.130  0.00  0.00    -0.022 A 
ATOM      3  C   UNL     1      -2.917   5.359  -4.086  0.00  0.00    -0.004 A 
ATOM      4  C   UNL     1      -2.993   6.013  -2.862  0.00  0.00    -0.000 A 
ATOM      5  C   UNL     1      -2.334   7.213  -2.646  0.00  0.00    -0.000 A 
ATOM      6  C   UNL     1      -2.039   7.988  -3.757  0.00  0.00    -0.000 A 
ATOM      7  C   UNL     1      -2.243   7.498  -5.023  0.00  0.00    -0.004 A 
ENDBRANCH   1   2
BRANCH   1   8
ATOM      8  C   UNL     1      -0.610   5.741  -6.674  0.00  0.00    +0.016 C 
BRANCH   8   9
ATOM      9  C   UNL     1       0.270   4.883  -5.773  0.00  0.00    +0.114 C 
BRANCH   9  11
ATOM     10  O   UNL     1       2.025   3.505  -6.455  0.00  0.00    -0.246 OA
ATOM     11  C   UNL     1       1.541   4.673  -6.528  0.00  0.00    +0.365 C 
ATOM     12  O   UNL     1       2.259   5.693  -7.110  0.00  0.00    -0.246 OA
ENDBRANCH   9  11
ENDBRANCH   8   9
ENDBRANCH   1   8
TORSDOF 4
ENDMDL
MODEL 6
REMARK VINA RESULT:      -5.5      6.010      8.037
REMARK  Name = 
REMARK  4 active torsions:
REMARK  status: ('A' for Active; 'I' for Inactive)
REMARK    1  A    between atoms: C_2  and  C_4
REMARK    2  A    between atoms: C_4  and  C_5
REMARK    3  A    between atoms: C_5  and  C_6
REMARK    4  A    between atoms: C_6  and  C_7
REMARK                            x       y       z     vdW  Elec       q    Type
REMARK                         _______ _______ _______ _____ _____    ______ ____
ROOT
ATOM      1  C   UNL     1       3.827   5.344 -10.040  0.00  0.00    +0.027 C 
ENDROOT
BRANCH   1   2
ATOM      2  C   UNL     1       5.098   6.123 -10.052  0.00  0.00    -0.022 A 
ATOM      3  C   UNL     1       6.159   5.576  -9.347  0.00  0.00    -0.004 A 
ATOM      4  C   UNL     1       7.394   6.165  -9.590  0.00  0.00    -0.000 A 
ATOM      5  C   UNL     1       7.586   7.009 -10.674  0.00  0.00    -0.000 A 
ATOM      6  C   UNL     1       6.470   7.647 -11.192  0.00  0.00    -0.000 A 
ATOM      7  C   UNL     1       5.212   7.318 -10.751  0.00  0.00    -0.004 A 
ENDBRANCH   1   2
BRANCH   1   8
ATOM      8  C   UNL     1       3.955   4.333  -8.918  0.00  0.00    +0.016 C 
BRANCH   8   9
ATOM      9  C   UNL     1       2.544   3.917  -8.516  0.00  0.00    +0.114 C 
BRANCH   9  11
ATOM     10  O   UNL     1       3.303   5.009  -6.598  0.00  0.00    -0.246 OA
ATOM     11  C   UNL     1       2.439   4.203  -7.054  0.00  0.00    +0.365 C 
ATOM     12  O   UNL     1       1.604   3.518  -6.201  0.00  0.00    -0.246 OA
ENDBRANCH   9  11
ENDBRANCH   8   9
ENDBRANCH   1   8
TORSDOF 4
ENDMDL
MODEL 7
REMARK VINA RESULT:      -5.3      9.724     11.019
REMARK  Name = 
REMARK  4 active torsions:
REMARK  status: ('A' for Active; 'I' for Inactive)
REMARK    1  A    between atoms: C_2  and  C_4
REMARK    2  A    between atoms: C_4  and  C_5
REMARK    3  A    between atoms: C_5  and  C_6
REMARK    4  A    between atoms: C_6  and  C_7
REMARK                            x       y       z     vdW  Elec       q    Type
REMARK                         _______ _______ _______ _____ _____    ______ ____
ROOT
ATOM      1  C   UNL     1       3.837   5.924 -11.208  0.00  0.00    +0.027 C 
ENDROOT
BRANCH   1   2
ATOM      2  C   UNL     1       5.132   6.427 -10.667  0.00  0.00    -0.022 A 
ATOM      3  C   UNL     1       5.814   5.571  -9.817  0.00  0.00    -0.004 A 
ATOM      4  C   UNL     1       7.127   5.936  -9.542  0.00  0.00    -0.000 A 
ATOM      5  C   UNL     1       7.779   6.895 -10.303  0.00  0.00    -0.000 A 
ATOM      6  C   UNL     1       6.995   7.819 -10.976  0.00  0.00    -0.000 A 
ATOM      7  C   UNL     1       5.630   7.676 -11.016  0.00  0.00    -0.004 A 
ENDBRANCH   1   2
BRANCH   1   8
ATOM      8  C   UNL     1       3.920   6.064 -12.715  0.00  0.00    +0.016 C 
BRANCH   8   9
ATOM      9  C   UNL     1       4.713   4.873 -13.241  0.00  0.00    +0.114 C 
BRANCH   9  11
ATOM     10  O   UNL     1       7.041   4.837 -13.401  0.00  0.00    -0.246 OA
ATOM     11  C   UNL     1       5.989   5.438 -13.772  0.00  0.00    +0.365 C 
ATOM     12  O   UNL     1       6.069   6.629 -14.457  0.00  0.00    -0.246 OA
ENDBRANCH   9  11
ENDBRANCH   8   9
ENDBRANCH   1   8
TORSDOF 4
ENDMDL
MODEL 8
REMARK VINA RESULT:      -5.3      3.613      4.926
REMARK  Name = 
REMARK  4 active torsions:
REMARK  status: ('A' for Active; 'I' for Inactive)
REMARK    1  A    between atoms: C_2  and  C_4
REMARK    2  A    between atoms: C_4  and  C_5
REMARK    3  A    between atoms: C_5  and  C_6
REMARK    4  A    between atoms: C_6  and  C_7
REMARK                            x       y       z     vdW  Elec       q    Type
REMARK                         _______ _______ _______ _____ _____    ______ ____
ROOT
ATOM      1  C   UNL     1       1.182   6.159  -4.501  0.00  0.00    +0.027 C 
ENDROOT
BRANCH   1   2
ATOM      2  C   UNL     1      -0.083   6.269  -5.281  0.00  0.00    -0.022 A 
ATOM      3  C   UNL     1      -0.251   5.353  -6.308  0.00  0.00    -0.004 A 
ATOM      4  C   UNL     1      -1.534   5.293  -6.840  0.00  0.00    -0.000 A 
ATOM      5  C   UNL     1      -2.610   5.871  -6.185  0.00  0.00    -0.000 A 
ATOM      6  C   UNL     1      -2.341   6.907  -5.305  0.00  0.00    -0.000 A 
ATOM      7  C   UNL     1      -1.045   7.223  -4.976  0.00  0.00    -0.004 A 
ENDBRANCH   1   2
BRANCH   1   8
ATOM      8  C   UNL     1       2.263   5.769  -5.489  0.00  0.00    +0.016 C 
BRANCH   8   9
ATOM      9  C   UNL     1       3.023   7.037  -5.859  0.00  0.00    +0.114 C 
BRANCH   9  11
ATOM     10  O   UNL     1       3.418   6.428  -8.077  0.00  0.00    -0.246 OA
ATOM     11  C   UNL     1       2.797   7.234  -7.321  0.00  0.00    +0.365 C 
ATOM     12  O   UNL     1       2.126   8.312  -7.851  0.00  0.00    -0.246 OA
ENDBRANCH   9  11
ENDBRANCH   8   9
ENDBRANCH   1   8
TORSDOF 4
ENDMDL
MODEL 9
REMARK VINA RESULT:      -5.2      3.166      5.135
REMARK  Name = 
REMARK  4 active torsions:
REMARK  status: ('A' for Active; 'I' for Inactive)
REMARK    1  A    between atoms: C_2  and  C_4
REMARK    2  A    between atoms: C_4  and  C_5
REMARK    3  A    between atoms: C_5  and  C_6
REMARK    4  A    between atoms: C_6  and  C_7
REMARK                            x       y       z     vdW  Elec       q    Type
REMARK                         _______ _______ _______ _____ _____    ______ ____
ROOT
ATOM      1  C   UNL     1      -0.277   5.022  -7.050  0.00  0.00    +0.027 C 
ENDROOT
BRANCH   1   2
ATOM      2  C   UNL     1      -1.016   5.734  -5.969  0.00  0.00    -0.022 A 
ATOM      3  C   UNL     1      -0.300   6.010  -4.815  0.00  0.00    -0.004 A 
ATOM      4  C   UNL     1      -0.912   6.900  -3.941  0.00  0.00    -0.000 A 
ATOM      5  C   UNL     1      -1.989   7.675  -4.343  0.00  0.00    -0.000 A 
ATOM      6  C   UNL     1      -2.750   7.210  -5.403  0.00  0.00    -0.000 A 
ATOM      7  C   UNL     1      -2.344   6.115  -6.126  0.00  0.00    -0.004 A 
ENDBRANCH   1   2
BRANCH   1   8
ATOM      8  C   UNL     1       0.426   6.090  -7.864  0.00  0.00    +0.016 C 
BRANCH   8   9
ATOM      9  C   UNL     1       1.924   5.926  -7.636  0.00  0.00    +0.114 C 
BRANCH   9  11
ATOM     10  O   UNL     1       2.120   8.239  -7.880  0.00  0.00    -0.246 OA
ATOM     11  C   UNL     1       2.406   7.249  -7.141  0.00  0.00    +0.365 C 
ATOM     12  O   UNL     1       3.261   7.399  -6.073  0.00  0.00    -0.246 OA
ENDBRANCH   9  11
ENDBRANCH   8   9
ENDBRANCH   1   8
TORSDOF 4
ENDMDL
