MODEL 1
REMARK VINA RESULT:      -7.2      0.000      0.000
REMARK  Name = 
REMARK  9 active torsions:
REMARK  status: ('A' for Active; 'I' for Inactive)
REMARK    1  A    between atoms: C_2  and  N_3
REMARK    2  A    between atoms: N_3  and  C_4
REMARK    3  A    between atoms: N_3  and  C_7
REMARK    4  A    between atoms: C_4  and  C_5
REMARK    5  A    between atoms: C_7  and  C_8
REMARK    6  A    between atoms: C_8  and  C_9
REMARK    7  A    between atoms: C_9  and  C_10
REMARK    8  A    between atoms: C_10  and  N_12
REMARK    9  A    between atoms: N_12  and  C_13
REMARK                            x       y       z     vdW  Elec       q    Type
REMARK                         _______ _______ _______ _____ _____    ______ ____
ROOT
ATOM      1  N   UNL     1       0.784   5.585  -8.840  0.00  0.00    -0.239 NA
ENDROOT
BRANCH   1   2
ATOM      2  C   UNL     1       0.997   5.007  -7.547  0.00  0.00    +0.068 A 
ATOM      3  C   UNL     1       0.068   5.275  -6.573  0.00  0.00    +0.033 A 
ATOM      4  C   UNL     1       0.369   5.235  -5.231  0.00  0.00    +0.083 A 
ATOM      5  C   UNL     1      -0.583   5.612  -4.295  0.00  0.00    +0.031 A 
ATOM      6  C   UNL     1      -1.890   5.824  -4.703  0.00  0.00    +0.059 A 
ATOM      7  C   UNL     1      -2.204   5.594  -6.019  0.00  0.00    +0.012 A 
ATOM      8 CL   UNL     1      -2.992   6.769  -3.719  0.00  0.00    -0.082 Cl
ATOM      9  N   UNL     1       1.604   4.810  -4.870  0.00  0.00    -0.244 NA
ATOM     10  C   UNL     1       2.481   4.384  -5.792  0.00  0.00    +0.100 A 
ATOM     11  C   UNL     1      -1.237   5.470  -6.998  0.00  0.00    +0.004 A 
ATOM     12  C   UNL     1       2.201   4.467  -7.151  0.00  0.00    +0.037 A 
ENDBRANCH   1   2
BRANCH   1  13
ATOM     13  C   UNL     1       1.494   4.750 -10.003  0.00  0.00    +0.093 C 
ATOM     14  C   UNL     1       0.120   4.819 -10.948  0.00  0.00    +0.023 C 
BRANCH  13  15
ATOM     15  C   UNL     1       2.093   6.144 -10.698  0.00  0.00    +0.023 C 
BRANCH  15  16
ATOM     16  C   UNL     1       3.575   6.111 -10.368  0.00  0.00    +0.019 C 
BRANCH  16  17
ATOM     17  C   UNL     1       4.361   5.601 -11.545  0.00  0.00    +0.072 C 
BRANCH  17  18
ATOM     18  N   UNL     1       5.776   5.503 -11.296  0.00  0.00    -0.270 NA
BRANCH  18  20
ATOM     19  C   UNL     1       7.365   5.892  -9.564  0.00  0.00    +0.019 C 
ATOM     20  C   UNL     1       6.100   5.880  -9.939  0.00  0.00    +0.072 C 
ENDBRANCH  18  20
BRANCH  18  21
ATOM     21  C   UNL     1       6.410   6.506 -12.152  0.00  0.00    +0.108 C 
BRANCH  21  22
ATOM     22  C   UNL     1       7.010   5.760 -13.339  0.00  0.00    +0.199 C 
ATOM     23  O   UNL     1       7.609   4.605 -12.838  0.00  0.00    -0.219 OA
ENDBRANCH  21  22
ENDBRANCH  18  21
ENDBRANCH  17  18
ENDBRANCH  16  17
ENDBRANCH  15  16
ENDBRANCH  13  15
ENDBRANCH   1  13
TORSDOF 9
ENDMDL
MODEL 2
REMARK VINA RESULT:      -7.0      4.386      8.417
REMARK  Name = 
REMARK  9 active torsions:
REMARK  status: ('A' for Active; 'I' for Inactive)
REMARK    1  A    between atoms: C_2  and  N_3
REMARK    2  A    between atoms: N_3  and  C_4
REMARK    3  A    between atoms: N_3  and  C_7
REMARK    4  A    between atoms: C_4  and  C_5
REMARK    5  A    between atoms: C_7  and  C_8
REMARK    6  A    between atoms: C_8  and  C_9
REMARK    7  A    between atoms: C_9  and  C_10
REMARK    8  A    between atoms: C_10  and  N_12
REMARK    9  A    between atoms: N_12  and  C_13
REMARK                            x       y       z     vdW  Elec       q    Type
REMARK                         _______ _______ _______ _____ _____    ______ ____
ROOT
ATOM      1  N   UNL     1       4.093   5.646  -6.307  0.00  0.00    -0.239 NA
ENDROOT
BRANCH   1   2
ATOM      2  C   UNL     1       3.676   5.155  -7.587  0.00  0.00    +0.068 A 
ATOM      3  C   UNL     1       4.496   5.405  -8.658  0.00  0.00    +0.033 A 
ATOM      4  C   UNL     1       4.030   5.459  -9.951  0.00  0.00    +0.083 A 
ATOM      5  C   UNL     1       4.887   5.813 -10.983  0.00  0.00    +0.031 A 
ATOM      6  C   UNL     1       6.246   5.905 -10.736  0.00  0.00    +0.059 A 
ATOM      7  C   UNL     1       6.701   5.583  -9.483  0.00  0.00    +0.012 A 
ATOM      8 CL   UNL     1       7.291   6.817 -11.811  0.00  0.00    -0.082 Cl
ATOM      9  N   UNL     1       2.730   5.146 -10.171  0.00  0.00    -0.244 NA
ATOM     10  C   UNL     1       1.942   4.738  -9.164  0.00  0.00    +0.100 A 
ATOM     11  C   UNL     1       5.856   5.479  -8.394  0.00  0.00    +0.004 A 
ATOM     12  C   UNL     1       2.393   4.728  -7.849  0.00  0.00    +0.037 A 
ENDBRANCH   1   2
BRANCH   1  13
ATOM     13  C   UNL     1       3.292   4.964  -5.104  0.00  0.00    +0.093 C 
ATOM     14  C   UNL     1       4.679   4.863  -4.183  0.00  0.00    +0.023 C 
BRANCH  13  15
ATOM     15  C   UNL     1       2.917   6.453  -4.452  0.00  0.00    +0.023 C 
BRANCH  15  16
ATOM     16  C   UNL     1       1.427   6.603  -4.712  0.00  0.00    +0.019 C 
BRANCH  16  17
ATOM     17  C   UNL     1       0.700   5.346  -4.318  0.00  0.00    +0.072 C 
BRANCH  17  18
ATOM     18  N   UNL     1      -0.715   5.391  -4.583  0.00  0.00    -0.270 NA
BRANCH  18  20
ATOM     19  C   UNL     1      -1.269   5.253  -6.896  0.00  0.00    +0.019 C 
ATOM     20  C   UNL     1      -0.993   6.017  -5.856  0.00  0.00    +0.072 C 
ENDBRANCH  18  20
BRANCH  18  21
ATOM     21  C   UNL     1      -1.291   6.273  -3.569  0.00  0.00    +0.108 C 
BRANCH  21  22
ATOM     22  C   UNL     1      -2.750   5.862  -3.401  0.00  0.00    +0.199 C 
ATOM     23  O   UNL     1      -2.764   4.695  -2.639  0.00  0.00    -0.219 OA
ENDBRANCH  21  22
ENDBRANCH  18  21
ENDBRANCH  17  18
ENDBRANCH  16  17
ENDBRANCH  15  16
ENDBRANCH  13  15
ENDBRANCH   1  13
TORSDOF 9
ENDMDL
MODEL 3
REMARK VINA RESULT:      -6.6      4.329      8.613
REMARK  Name = 
REMARK  9 active torsions:
REMARK  status: ('A' for Active; 'I' for Inactive)
REMARK    1  A    between atoms: C_2  and  N_3
REMARK    2  A    between atoms: N_3  and  C_4
REMARK    3  A    between atoms: N_3  and  C_7
REMARK    4  A    between atoms: C_4  and  C_5
REMARK    5  A    between atoms: C_7  and  C_8
REMARK    6  A    between atoms: C_8  and  C_9
REMARK    7  A    between atoms: C_9  and  C_10
REMARK    8  A    between atoms: C_10  and  N_12
REMARK    9  A    between atoms: N_12  and  C_13
REMARK                            x       y       z     vdW  Elec       q    Type
REMARK                         _______ _______ _______ _____ _____    ______ ____
ROOT
ATOM      1  N   UNL     1       3.892   6.797  -9.626  0.00  0.00    -0.239 NA
ENDROOT
BRANCH   1   2
ATOM      2  C   UNL     1       4.125   6.053 -10.829  0.00  0.00    +0.068 A 
ATOM      3  C   UNL     1       5.428   5.879 -11.223  0.00  0.00    +0.033 A 
ATOM      4  C   UNL     1       5.781   5.658 -12.534  0.00  0.00    +0.083 A 
ATOM      5  C   UNL     1       7.121   5.588 -12.889  0.00  0.00    +0.031 A 
ATOM      6  C   UNL     1       8.084   5.533 -11.895  0.00  0.00    +0.059 A 
ATOM      7  C   UNL     1       7.668   5.490 -10.589  0.00  0.00    +0.012 A 
ATOM      8 CL   UNL     1       9.752   5.953 -12.242  0.00  0.00    -0.082 Cl
ATOM      9  N   UNL     1       4.788   5.502 -13.442  0.00  0.00    -0.244 NA
ATOM     10  C   UNL     1       3.501   5.503 -13.060  0.00  0.00    +0.100 A 
ATOM     11  C   UNL     1       6.377   5.811 -10.215  0.00  0.00    +0.004 A 
ATOM     12  C   UNL     1       3.136   5.775 -11.747  0.00  0.00    +0.037 A 
ENDBRANCH   1   2
BRANCH   1  13
ATOM     13  C   UNL     1       2.898   6.043  -8.628  0.00  0.00    +0.093 C 
ATOM     14  C   UNL     1       4.118   5.830  -7.510  0.00  0.00    +0.023 C 
BRANCH  13  15
ATOM     15  C   UNL     1       2.445   7.484  -7.920  0.00  0.00    +0.023 C 
BRANCH  15  16
ATOM     16  C   UNL     1       1.449   7.070  -6.850  0.00  0.00    +0.019 C 
BRANCH  16  17
ATOM     17  C   UNL     1       0.646   5.887  -7.315  0.00  0.00    +0.072 C 
BRANCH  17  18
ATOM     18  N   UNL     1       0.148   5.068  -6.240  0.00  0.00    -0.270 NA
BRANCH  18  20
ATOM     19  C   UNL     1      -2.134   5.739  -6.374  0.00  0.00    +0.019 C 
ATOM     20  C   UNL     1      -1.038   5.642  -5.646  0.00  0.00    +0.072 C 
ENDBRANCH  18  20
BRANCH  18  21
ATOM     21  C   UNL     1       1.173   5.097  -5.198  0.00  0.00    +0.108 C 
BRANCH  21  22
ATOM     22  C   UNL     1       0.448   5.282  -3.869  0.00  0.00    +0.199 C 
ATOM     23  O   UNL     1       1.337   5.917  -3.001  0.00  0.00    -0.219 OA
ENDBRANCH  21  22
ENDBRANCH  18  21
ENDBRANCH  17  18
ENDBRANCH  16  17
ENDBRANCH  15  16
ENDBRANCH  13  15
ENDBRANCH   1  13
TORSDOF 9
ENDMDL
MODEL 4
REMARK VINA RESULT:      -6.6      4.413      6.360
REMARK  Name = 
REMARK  9 active torsions:
REMARK  status: ('A' for Active; 'I' for Inactive)
REMARK    1  A    between atoms: C_2  and  N_3
REMARK    2  A    between atoms: N_3  and  C_4
REMARK    3  A    between atoms: N_3  and  C_7
REMARK    4  A    between atoms: C_4  and  C_5
REMARK    5  A    between atoms: C_7  and  C_8
REMARK    6  A    between atoms: C_8  and  C_9
REMARK    7  A    between atoms: C_9  and  C_10
REMARK    8  A    between atoms: C_10  and  N_12
REMARK    9  A    between atoms: N_12  and  C_13
REMARK                            x       y       z     vdW  Elec       q    Type
REMARK                         _______ _______ _______ _____ _____    ______ ____
ROOT
ATOM      1  N   UNL     1       2.200   6.666 -10.287  0.00  0.00    -0.239 NA
ENDROOT
BRANCH   1   2
ATOM      2  C   UNL     1       3.202   6.447  -9.287  0.00  0.00    +0.068 A 
ATOM      3  C   UNL     1       4.511   6.421  -9.699  0.00  0.00    +0.033 A 
ATOM      4  C   UNL     1       5.492   5.750  -9.006  0.00  0.00    +0.083 A 
ATOM      5  C   UNL     1       6.778   5.675  -9.522  0.00  0.00    +0.031 A 
ATOM      6  C   UNL     1       7.115   6.448 -10.620  0.00  0.00    +0.059 A 
ATOM      7  C   UNL     1       6.172   7.308 -11.123  0.00  0.00    +0.012 A 
ATOM      8 CL   UNL     1       8.504   6.037 -11.610  0.00  0.00    -0.082 Cl
ATOM      9  N   UNL     1       5.160   5.189  -7.818  0.00  0.00    -0.244 NA
ATOM     10  C   UNL     1       3.927   5.338  -7.309  0.00  0.00    +0.100 A 
ATOM     11  C   UNL     1       4.834   7.213 -10.791  0.00  0.00    +0.004 A 
ATOM     12  C   UNL     1       2.919   5.972  -8.025  0.00  0.00    +0.037 A 
ENDBRANCH   1   2
BRANCH   1  13
ATOM     13  C   UNL     1       0.764   6.131  -9.834  0.00  0.00    +0.093 C 
ATOM     14  C   UNL     1       0.004   7.078 -10.979  0.00  0.00    +0.023 C 
BRANCH  13  15
ATOM     15  C   UNL     1       0.858   4.848 -10.897  0.00  0.00    +0.023 C 
BRANCH  15  16
ATOM     16  C   UNL     1       0.460   5.450 -12.234  0.00  0.00    +0.019 C 
BRANCH  16  17
ATOM     17  C   UNL     1       0.738   4.478 -13.347  0.00  0.00    +0.072 C 
BRANCH  17  18
ATOM     18  N   UNL     1       1.558   5.023 -14.399  0.00  0.00    -0.270 NA
BRANCH  18  20
ATOM     19  C   UNL     1       3.774   5.776 -13.954  0.00  0.00    +0.019 C 
ATOM     20  C   UNL     1       2.959   4.759 -14.164  0.00  0.00    +0.072 C 
ENDBRANCH  18  20
BRANCH  18  21
ATOM     21  C   UNL     1       1.406   6.475 -14.323  0.00  0.00    +0.108 C 
BRANCH  21  22
ATOM     22  C   UNL     1       0.565   6.896 -15.523  0.00  0.00    +0.199 C 
ATOM     23  O   UNL     1       1.449   7.219 -16.552  0.00  0.00    -0.219 OA
ENDBRANCH  21  22
ENDBRANCH  18  21
ENDBRANCH  17  18
ENDBRANCH  16  17
ENDBRANCH  15  16
ENDBRANCH  13  15
ENDBRANCH   1  13
TORSDOF 9
ENDMDL
MODEL 5
REMARK VINA RESULT:      -6.5      4.020      7.824
REMARK  Name = 
REMARK  9 active torsions:
REMARK  status: ('A' for Active; 'I' for Inactive)
REMARK    1  A    between atoms: C_2  and  N_3
REMARK    2  A    between atoms: N_3  and  C_4
REMARK    3  A    between atoms: N_3  and  C_7
REMARK    4  A    between atoms: C_4  and  C_5
REMARK    5  A    between atoms: C_7  and  C_8
REMARK    6  A    between atoms: C_8  and  C_9
REMARK    7  A    between atoms: C_9  and  C_10
REMARK    8  A    between atoms: C_10  and  N_12
REMARK    9  A    between atoms: N_12  and  C_13
REMARK                            x       y       z     vdW  Elec       q    Type
REMARK                         _______ _______ _______ _____ _____    ______ ____
ROOT
ATOM      1  N   UNL     1       3.232   5.148  -5.940  0.00  0.00    -0.239 NA
ENDROOT
BRANCH   1   2
ATOM      2  C   UNL     1       3.765   5.479  -7.228  0.00  0.00    +0.068 A 
ATOM      3  C   UNL     1       2.883   5.555  -8.277  0.00  0.00    +0.033 A 
ATOM      4  C   UNL     1       3.268   5.359  -9.584  0.00  0.00    +0.083 A 
ATOM      5  C   UNL     1       2.316   5.350 -10.593  0.00  0.00    +0.031 A 
ATOM      6  C   UNL     1       1.019   5.743 -10.307  0.00  0.00    +0.059 A 
ATOM      7  C   UNL     1       0.740   6.186  -9.039  0.00  0.00    +0.012 A 
ATOM      8 CL   UNL     1      -0.308   5.281 -11.357  0.00  0.00    -0.082 Cl
ATOM      9  N   UNL     1       4.588   5.192  -9.839  0.00  0.00    -0.244 NA
ATOM     10  C   UNL     1       5.494   5.276  -8.852  0.00  0.00    +0.100 A 
ATOM     11  C   UNL     1       1.594   5.965  -7.975  0.00  0.00    +0.004 A 
ATOM     12  C   UNL     1       5.109   5.425  -7.525  0.00  0.00    +0.037 A 
ENDBRANCH   1   2
BRANCH   1  13
ATOM     13  C   UNL     1       4.175   5.641  -4.748  0.00  0.00    +0.093 C 
ATOM     14  C   UNL     1       3.520   7.175  -4.809  0.00  0.00    +0.023 C 
BRANCH  13  15
ATOM     15  C   UNL     1       3.055   5.164  -3.607  0.00  0.00    +0.023 C 
BRANCH  15  16
ATOM     16  C   UNL     1       1.743   5.734  -4.119  0.00  0.00    +0.019 C 
BRANCH  16  17
ATOM     17  C   UNL     1       0.629   5.421  -3.159  0.00  0.00    +0.072 C 
BRANCH  17  18
ATOM     18  N   UNL     1      -0.678   5.438  -3.766  0.00  0.00    -0.270 NA
BRANCH  18  20
ATOM     19  C   UNL     1      -1.706   5.801  -5.884  0.00  0.00    +0.019 C 
ATOM     20  C   UNL     1      -0.610   5.845  -5.151  0.00  0.00    +0.072 C 
ENDBRANCH  18  20
BRANCH  18  21
ATOM     21  C   UNL     1      -1.433   6.485  -3.078  0.00  0.00    +0.108 C 
BRANCH  21  22
ATOM     22  C   UNL     1      -2.349   5.788  -2.079  0.00  0.00    +0.199 C 
ATOM     23  O   UNL     1      -2.809   4.621  -2.689  0.00  0.00    -0.219 OA
ENDBRANCH  21  22
ENDBRANCH  18  21
ENDBRANCH  17  18
ENDBRANCH  16  17
ENDBRANCH  15  16
ENDBRANCH  13  15
ENDBRANCH   1  13
TORSDOF 9
ENDMDL
MODEL 6
REMARK VINA RESULT:      -6.5      2.337      3.562
REMARK  Name = 
REMARK  9 active torsions:
REMARK  status: ('A' for Active; 'I' for Inactive)
REMARK    1  A    between atoms: C_2  and  N_3
REMARK    2  A    between atoms: N_3  and  C_4
REMARK    3  A    between atoms: N_3  and  C_7
REMARK    4  A    between atoms: C_4  and  C_5
REMARK    5  A    between atoms: C_7  and  C_8
REMARK    6  A    between atoms: C_8  and  C_9
REMARK    7  A    between atoms: C_9  and  C_10
REMARK    8  A    between atoms: C_10  and  N_12
REMARK    9  A    between atoms: N_12  and  C_13
REMARK                            x       y       z     vdW  Elec       q    Type
REMARK                         _______ _______ _______ _____ _____    ______ ____
ROOT
ATOM      1  N   UNL     1       3.427   6.464  -8.147  0.00  0.00    -0.239 NA
ENDROOT
BRANCH   1   2
ATOM      2  C   UNL     1       3.027   6.320  -6.779  0.00  0.00    +0.068 A 
ATOM      3  C   UNL     1       1.684   6.202  -6.521  0.00  0.00    +0.033 A 
ATOM      4  C   UNL     1       1.128   6.557  -5.314  0.00  0.00    +0.083 A 
ATOM      5  C   UNL     1      -0.248   6.509  -5.144  0.00  0.00    +0.031 A 
ATOM      6  C   UNL     1      -1.032   5.909  -6.115  0.00  0.00    +0.059 A 
ATOM      7  C   UNL     1      -0.405   5.328  -7.188  0.00  0.00    +0.012 A 
ATOM      8 CL   UNL     1      -2.748   6.257  -6.220  0.00  0.00    -0.082 Cl
ATOM      9  N   UNL     1       1.963   6.935  -4.316  0.00  0.00    -0.244 NA
ATOM     10  C   UNL     1       3.294   6.904  -4.486  0.00  0.00    +0.100 A 
ATOM     11  C   UNL     1       0.918   5.584  -7.497  0.00  0.00    +0.004 A 
ATOM     12  C   UNL     1       3.861   6.594  -5.716  0.00  0.00    +0.037 A 
ENDBRANCH   1   2
BRANCH   1  13
ATOM     13  C   UNL     1       4.768   5.659  -8.476  0.00  0.00    +0.093 C 
ATOM     14  C   UNL     1       3.899   4.284  -8.850  0.00  0.00    +0.023 C 
BRANCH  13  15
ATOM     15  C   UNL     1       4.733   6.164 -10.066  0.00  0.00    +0.023 C 
BRANCH  15  16
ATOM     16  C   UNL     1       3.310   5.873 -10.511  0.00  0.00    +0.019 C 
BRANCH  16  17
ATOM     17  C   UNL     1       3.128   6.252 -11.956  0.00  0.00    +0.072 C 
BRANCH  17  18
ATOM     18  N   UNL     1       1.761   6.532 -12.312  0.00  0.00    -0.270 NA
BRANCH  18  20
ATOM     19  C   UNL     1      -0.157   5.617 -11.233  0.00  0.00    +0.019 C 
ATOM     20  C   UNL     1       0.886   6.424 -11.167  0.00  0.00    +0.072 C 
ENDBRANCH  18  20
BRANCH  18  21
ATOM     21  C   UNL     1       1.353   5.467 -13.229  0.00  0.00    +0.108 C 
BRANCH  21  22
ATOM     22  C   UNL     1       2.556   5.160 -14.114  0.00  0.00    +0.199 C 
ATOM     23  O   UNL     1       2.440   3.829 -14.516  0.00  0.00    -0.219 OA
ENDBRANCH  21  22
ENDBRANCH  18  21
ENDBRANCH  17  18
ENDBRANCH  16  17
ENDBRANCH  15  16
ENDBRANCH  13  15
ENDBRANCH   1  13
TORSDOF 9
ENDMDL
MODEL 7
REMARK VINA RESULT:      -6.5      4.433      7.562
REMARK  Name = 
REMARK  9 active torsions:
REMARK  status: ('A' for Active; 'I' for Inactive)
REMARK    1  A    between atoms: C_2  and  N_3
REMARK    2  A    between atoms: N_3  and  C_4
REMARK    3  A    between atoms: N_3  and  C_7
REMARK    4  A    between atoms: C_4  and  C_5
REMARK    5  A    between atoms: C_7  and  C_8
REMARK    6  A    between atoms: C_8  and  C_9
REMARK    7  A    between atoms: C_9  and  C_10
REMARK    8  A    between atoms: C_10  and  N_12
REMARK    9  A    between atoms: N_12  and  C_13
REMARK                            x       y       z     vdW  Elec       q    Type
REMARK                         _______ _______ _______ _____ _____    ______ ____
ROOT
ATOM      1  N   UNL     1       1.963   5.023  -7.723  0.00  0.00    -0.239 NA
ENDROOT
BRANCH   1   2
ATOM      2  C   UNL     1       2.185   5.024  -9.139  0.00  0.00    +0.068 A 
ATOM      3  C   UNL     1       3.404   5.467  -9.588  0.00  0.00    +0.033 A 
ATOM      4  C   UNL     1       3.582   5.991 -10.848  0.00  0.00    +0.083 A 
ATOM      5  C   UNL     1       4.814   6.514 -11.213  0.00  0.00    +0.031 A 
ATOM      6  C   UNL     1       5.908   6.318 -10.386  0.00  0.00    +0.059 A 
ATOM      7  C   UNL     1       5.739   5.557  -9.257  0.00  0.00    +0.012 A 
ATOM      8 CL   UNL     1       7.321   7.350 -10.512  0.00  0.00    -0.082 Cl
ATOM      9  N   UNL     1       2.531   5.963 -11.702  0.00  0.00    -0.244 NA
ATOM     10  C   UNL     1       1.372   5.386 -11.347  0.00  0.00    +0.100 A 
ATOM     11  C   UNL     1       4.489   5.249  -8.754  0.00  0.00    +0.004 A 
ATOM     12  C   UNL     1       1.169   4.899 -10.061  0.00  0.00    +0.037 A 
ENDBRANCH   1   2
BRANCH   1  13
ATOM     13  C   UNL     1       1.045   6.242  -7.251  0.00  0.00    +0.093 C 
ATOM     14  C   UNL     1       0.291   5.286  -6.110  0.00  0.00    +0.023 C 
BRANCH  13  15
ATOM     15  C   UNL     1       2.191   6.734  -6.143  0.00  0.00    +0.023 C 
BRANCH  15  16
ATOM     16  C   UNL     1       2.633   5.443  -5.475  0.00  0.00    +0.019 C 
BRANCH  16  17
ATOM     17  C   UNL     1       3.524   5.741  -4.301  0.00  0.00    +0.072 C 
BRANCH  17  18
ATOM     18  N   UNL     1       3.148   6.928  -3.576  0.00  0.00    -0.270 NA
BRANCH  18  20
ATOM     19  C   UNL     1       5.229   7.876  -4.243  0.00  0.00    +0.019 C 
ATOM     20  C   UNL     1       4.291   7.773  -3.320  0.00  0.00    +0.072 C 
ENDBRANCH  18  20
BRANCH  18  21
ATOM     21  C   UNL     1       2.683   6.474  -2.266  0.00  0.00    +0.108 C 
BRANCH  21  22
ATOM     22  C   UNL     1       3.774   5.572  -1.697  0.00  0.00    +0.199 C 
ATOM     23  O   UNL     1       3.487   5.383  -0.345  0.00  0.00    -0.219 OA
ENDBRANCH  21  22
ENDBRANCH  18  21
ENDBRANCH  17  18
ENDBRANCH  16  17
ENDBRANCH  15  16
ENDBRANCH  13  15
ENDBRANCH   1  13
TORSDOF 9
ENDMDL
MODEL 8
REMARK VINA RESULT:      -6.4      2.315      3.073
REMARK  Name = 
REMARK  9 active torsions:
REMARK  status: ('A' for Active; 'I' for Inactive)
REMARK    1  A    between atoms: C_2  and  N_3
REMARK    2  A    between atoms: N_3  and  C_4
REMARK    3  A    between atoms: N_3  and  C_7
REMARK    4  A    between atoms: C_4  and  C_5
REMARK    5  A    between atoms: C_7  and  C_8
REMARK    6  A    between atoms: C_8  and  C_9
REMARK    7  A    between atoms: C_9  and  C_10
REMARK    8  A    between atoms: C_10  and  N_12
REMARK    9  A    between atoms: N_12  and  C_13
REMARK                            x       y       z     vdW  Elec       q    Type
REMARK                         _______ _______ _______ _____ _____    ______ ____
ROOT
ATOM      1  N   UNL     1       1.019   6.395  -8.728  0.00  0.00    -0.239 NA
ENDROOT
BRANCH   1   2
ATOM      2  C   UNL     1       0.620   6.205  -7.365  0.00  0.00    +0.068 A 
ATOM      3  C   UNL     1       1.605   6.215  -6.410  0.00  0.00    +0.033 A 
ATOM      4  C   UNL     1       1.470   5.572  -5.201  0.00  0.00    +0.083 A 
ATOM      5  C   UNL     1       2.536   5.532  -4.314  0.00  0.00    +0.031 A 
ATOM      6  C   UNL     1       3.653   6.313  -4.559  0.00  0.00    +0.059 A 
ATOM      7  C   UNL     1       3.636   7.147  -5.649  0.00  0.00    +0.012 A 
ATOM      8 CL   UNL     1       5.189   5.940  -3.799  0.00  0.00    -0.082 Cl
ATOM      9  N   UNL     1       0.274   5.003  -4.914  0.00  0.00    -0.244 NA
ATOM     10  C   UNL     1      -0.762   5.118  -5.759  0.00  0.00    +0.100 A 
ATOM     11  C   UNL     1       2.708   7.014  -6.665  0.00  0.00    +0.004 A 
ATOM     12  C   UNL     1      -0.619   5.723  -7.003  0.00  0.00    +0.037 A 
ENDBRANCH   1   2
BRANCH   1  13
ATOM     13  C   UNL     1       0.158   5.511  -9.743  0.00  0.00    +0.093 C 
ATOM     14  C   UNL     1       0.030   6.786 -10.810  0.00  0.00    +0.023 C 
BRANCH  13  15
ATOM     15  C   UNL     1       1.537   4.959 -10.502  0.00  0.00    +0.023 C 
BRANCH  15  16
ATOM     16  C   UNL     1       2.446   6.175 -10.540  0.00  0.00    +0.019 C 
BRANCH  16  17
ATOM     17  C   UNL     1       3.638   5.908 -11.418  0.00  0.00    +0.072 C 
BRANCH  17  18
ATOM     18  N   UNL     1       4.736   5.283 -10.727  0.00  0.00    -0.270 NA
BRANCH  18  20
ATOM     19  C   UNL     1       5.335   5.144  -8.426  0.00  0.00    +0.019 C 
ATOM     20  C   UNL     1       4.972   5.902  -9.443  0.00  0.00    +0.072 C 
ENDBRANCH  18  20
BRANCH  18  21
ATOM     21  C   UNL     1       5.929   5.555 -11.528  0.00  0.00    +0.108 C 
BRANCH  21  22
ATOM     22  C   UNL     1       5.515   5.445 -12.992  0.00  0.00    +0.199 C 
ATOM     23  O   UNL     1       6.606   4.927 -13.689  0.00  0.00    -0.219 OA
ENDBRANCH  21  22
ENDBRANCH  18  21
ENDBRANCH  17  18
ENDBRANCH  16  17
ENDBRANCH  15  16
ENDBRANCH  13  15
ENDBRANCH   1  13
TORSDOF 9
ENDMDL
MODEL 9
REMARK VINA RESULT:      -6.4      4.555      8.430
REMARK  Name = 
REMARK  9 active torsions:
REMARK  status: ('A' for Active; 'I' for Inactive)
REMARK    1  A    between atoms: C_2  and  N_3
REMARK    2  A    between atoms: N_3  and  C_4
REMARK    3  A    between atoms: N_3  and  C_7
REMARK    4  A    between atoms: C_4  and  C_5
REMARK    5  A    between atoms: C_7  and  C_8
REMARK    6  A    between atoms: C_8  and  C_9
REMARK    7  A    between atoms: C_9  and  C_10
REMARK    8  A    between atoms: C_10  and  N_12
REMARK    9  A    between atoms: N_12  and  C_13
REMARK                            x       y       z     vdW  Elec       q    Type
REMARK                         _______ _______ _______ _____ _____    ______ ____
ROOT
ATOM      1  N   UNL     1       2.885   6.912  -3.571  0.00  0.00    -0.239 NA
ENDROOT
BRANCH   1   2
ATOM      2  C   UNL     1       2.700   6.747  -4.982  0.00  0.00    +0.068 A 
ATOM      3  C   UNL     1       1.432   6.466  -5.425  0.00  0.00    +0.033 A 
ATOM      4  C   UNL     1       1.190   5.806  -6.608  0.00  0.00    +0.083 A 
ATOM      5  C   UNL     1      -0.107   5.462  -6.958  0.00  0.00    +0.031 A 
ATOM      6  C   UNL     1      -1.166   5.965  -6.220  0.00  0.00    +0.059 A 
ATOM      7  C   UNL     1      -0.888   6.839  -5.200  0.00  0.00    +0.012 A 
ATOM      8 CL   UNL     1      -2.740   5.192  -6.273  0.00  0.00    -0.082 Cl
ATOM      9  N   UNL     1       2.249   5.525  -7.406  0.00  0.00    -0.244 NA
ATOM     10  C   UNL     1       3.484   5.933  -7.077  0.00  0.00    +0.100 A 
ATOM     11  C   UNL     1       0.385   6.991  -4.683  0.00  0.00    +0.004 A 
ATOM     12  C   UNL     1       3.743   6.556  -5.862  0.00  0.00    +0.037 A 
ENDBRANCH   1   2
BRANCH   1  13
ATOM     13  C   UNL     1       3.983   5.914  -2.980  0.00  0.00    +0.093 C 
ATOM     14  C   UNL     1       4.505   7.066  -1.892  0.00  0.00    +0.023 C 
BRANCH  13  15
ATOM     15  C   UNL     1       2.895   5.301  -1.873  0.00  0.00    +0.023 C 
BRANCH  15  16
ATOM     16  C   UNL     1       2.151   6.528  -1.373  0.00  0.00    +0.019 C 
BRANCH  16  17
ATOM     17  C   UNL     1       0.984   6.118  -0.518  0.00  0.00    +0.072 C 
BRANCH  17  18
ATOM     18  N   UNL     1      -0.291   6.543  -1.037  0.00  0.00    -0.270 NA
BRANCH  18  20
ATOM     19  C   UNL     1      -1.232   8.155   0.443  0.00  0.00    +0.019 C 
ATOM     20  C   UNL     1      -1.199   6.903   0.028  0.00  0.00    +0.072 C 
ENDBRANCH  18  20
BRANCH  18  21
ATOM     21  C   UNL     1      -0.878   5.370  -1.685  0.00  0.00    +0.108 C 
BRANCH  21  22
ATOM     22  C   UNL     1      -2.322   5.726  -2.020  0.00  0.00    +0.199 C 
ATOM     23  O   UNL     1      -2.863   4.642  -2.711  0.00  0.00    -0.219 OA
ENDBRANCH  21  22
ENDBRANCH  18  21
ENDBRANCH  17  18
ENDBRANCH  16  17
ENDBRANCH  15  16
ENDBRANCH  13  15
ENDBRANCH   1  13
TORSDOF 9
ENDMDL
