MODEL 1
REMARK VINA RESULT:      -6.8      0.000      0.000
REMARK  Name = 
REMARK  8 active torsions:
REMARK  status: ('A' for Active; 'I' for Inactive)
REMARK    1  A    between atoms: C_2  and  N_4
REMARK    2  A    between atoms: N_4  and  C_5
REMARK    3  A    between atoms: C_5  and  C_6
REMARK    4  A    between atoms: C_6  and  C_8
REMARK    5  A    between atoms: C_8  and  O_9
REMARK    6  A    between atoms: O_9  and  C_10
REMARK    7  A    between atoms: C_13  and  C_14
REMARK    8  A    between atoms: C_14  and  C_15
REMARK                            x       y       z     vdW  Elec       q    Type
REMARK                         _______ _______ _______ _____ _____    ______ ____
ROOT
ATOM      1  C   UNL     1       4.816   6.097  -9.471  0.00  0.00    +0.139 A 
ATOM      2  C   UNL     1       5.968   5.483  -8.996  0.00  0.00    +0.037 A 
ATOM      3  C   UNL     1       7.149   5.817  -9.645  0.00  0.00    -0.001 A 
ATOM      4  C   UNL     1       7.167   6.639 -10.748  0.00  0.00    -0.013 A 
ATOM      5  C   UNL     1       6.039   7.358 -11.069  0.00  0.00    -0.001 A 
ATOM      6  C   UNL     1       4.826   6.990 -10.516  0.00  0.00    +0.037 A 
ENDROOT
BRANCH   1   7
ATOM      7  O   UNL     1       3.617   5.487  -9.095  0.00  0.00    -0.473 OA
BRANCH   7   8
ATOM      8  C   UNL     1       2.463   6.326  -9.133  0.00  0.00    +0.240 C 
BRANCH   8   9
ATOM      9  C   UNL     1       2.453   6.793  -7.518  0.00  0.00    +0.213 C 
ATOM     10  O   UNL     1       2.163   8.263  -7.907  0.00  0.00    -0.218 OA
BRANCH   9  11
ATOM     11  C   UNL     1       0.810   6.464  -7.390  0.00  0.00    +0.125 C 
BRANCH  11  12
ATOM     12  N   UNL     1       0.625   6.647  -5.952  0.00  0.00    -0.217 NA
BRANCH  12  14
ATOM     13  C   UNL     1      -1.237   6.474  -4.988  0.00  0.00    +0.019 C 
ATOM     14  C   UNL     1      -0.556   5.867  -5.592  0.00  0.00    +0.073 C 
ATOM     15  C   UNL     1      -1.126   5.357  -6.911  0.00  0.00    +0.019 C 
ENDBRANCH  12  14
ENDBRANCH  11  12
ENDBRANCH   9  11
ENDBRANCH   8   9
ENDBRANCH   7   8
ENDBRANCH   1   7
BRANCH   4  16
ATOM     16  C   UNL     1       8.318   6.479 -11.687  0.00  0.00    +0.115 C 
BRANCH  16  17
ATOM     17  C   UNL     1       7.897   5.708 -12.872  0.00  0.00    +0.265 C 
ATOM     18  O   UNL     1       7.695   4.484 -12.743  0.00  0.00    -0.271 OA
ATOM     19  N   UNL     1       7.416   6.389 -14.021  0.00  0.00    -0.087 NA
ENDBRANCH  16  17
ENDBRANCH   4  16
TORSDOF 8
ENDMDL
MODEL 2
REMARK VINA RESULT:      -6.7      1.728      2.090
REMARK  Name = 
REMARK  8 active torsions:
REMARK  status: ('A' for Active; 'I' for Inactive)
REMARK    1  A    between atoms: C_2  and  N_4
REMARK    2  A    between atoms: N_4  and  C_5
REMARK    3  A    between atoms: C_5  and  C_6
REMARK    4  A    between atoms: C_6  and  C_8
REMARK    5  A    between atoms: C_8  and  O_9
REMARK    6  A    between atoms: O_9  and  C_10
REMARK    7  A    between atoms: C_13  and  C_14
REMARK    8  A    between atoms: C_14  and  C_15
REMARK                            x       y       z     vdW  Elec       q    Type
REMARK                         _______ _______ _______ _____ _____    ______ ____
ROOT
ATOM      1  C   UNL     1       4.182   5.468  -8.619  0.00  0.00    +0.139 A 
ATOM      2  C   UNL     1       5.534   5.155  -8.564  0.00  0.00    +0.037 A 
ATOM      3  C   UNL     1       6.338   5.756  -9.523  0.00  0.00    -0.001 A 
ATOM      4  C   UNL     1       5.815   6.545 -10.521  0.00  0.00    -0.013 A 
ATOM      5  C   UNL     1       4.510   6.968 -10.430  0.00  0.00    -0.001 A 
ATOM      6  C   UNL     1       3.654   6.325  -9.555  0.00  0.00    +0.037 A 
ENDROOT
BRANCH   1   7
ATOM      7  O   UNL     1       3.339   4.591  -7.932  0.00  0.00    -0.473 OA
BRANCH   7   8
ATOM      8  C   UNL     1       2.173   5.183  -7.358  0.00  0.00    +0.240 C 
BRANCH   8   9
ATOM      9  C   UNL     1       1.801   3.963  -6.262  0.00  0.00    +0.213 C 
ATOM     10  O   UNL     1       2.833   4.509  -5.247  0.00  0.00    -0.218 OA
BRANCH   9  11
ATOM     11  C   UNL     1       0.580   4.895  -5.577  0.00  0.00    +0.125 C 
BRANCH  11  12
ATOM     12  N   UNL     1      -0.341   4.979  -6.707  0.00  0.00    -0.217 NA
BRANCH  12  14
ATOM     13  C   UNL     1      -2.337   5.470  -6.258  0.00  0.00    +0.019 C 
ATOM     14  C   UNL     1      -1.359   5.956  -6.330  0.00  0.00    +0.073 C 
ATOM     15  C   UNL     1      -0.851   6.600  -5.045  0.00  0.00    +0.019 C 
ENDBRANCH  12  14
ENDBRANCH  11  12
ENDBRANCH   9  11
ENDBRANCH   8   9
ENDBRANCH   7   8
ENDBRANCH   1   7
BRANCH   4  16
ATOM     16  C   UNL     1       6.616   6.656 -11.778  0.00  0.00    +0.115 C 
BRANCH  16  17
ATOM     17  C   UNL     1       6.672   5.348 -12.456  0.00  0.00    +0.265 C 
ATOM     18  O   UNL     1       5.672   4.969 -13.099  0.00  0.00    -0.271 OA
ATOM     19  N   UNL     1       7.924   4.708 -12.649  0.00  0.00    -0.087 NA
ENDBRANCH  16  17
ENDBRANCH   4  16
TORSDOF 8
ENDMDL
MODEL 3
REMARK VINA RESULT:      -6.7      1.870      2.563
REMARK  Name = 
REMARK  8 active torsions:
REMARK  status: ('A' for Active; 'I' for Inactive)
REMARK    1  A    between atoms: C_2  and  N_4
REMARK    2  A    between atoms: N_4  and  C_5
REMARK    3  A    between atoms: C_5  and  C_6
REMARK    4  A    between atoms: C_6  and  C_8
REMARK    5  A    between atoms: C_8  and  O_9
REMARK    6  A    between atoms: O_9  and  C_10
REMARK    7  A    between atoms: C_13  and  C_14
REMARK    8  A    between atoms: C_14  and  C_15
REMARK                            x       y       z     vdW  Elec       q    Type
REMARK                         _______ _______ _______ _____ _____    ______ ____
ROOT
ATOM      1  C   UNL     1       4.504   5.750  -8.966  0.00  0.00    +0.139 A 
ATOM      2  C   UNL     1       5.817   5.317  -8.832  0.00  0.00    +0.037 A 
ATOM      3  C   UNL     1       6.727   5.842  -9.740  0.00  0.00    -0.001 A 
ATOM      4  C   UNL     1       6.337   6.672 -10.765  0.00  0.00    -0.013 A 
ATOM      5  C   UNL     1       5.072   7.211 -10.750  0.00  0.00    -0.001 A 
ATOM      6  C   UNL     1       4.111   6.649  -9.928  0.00  0.00    +0.037 A 
ENDROOT
BRANCH   1   7
ATOM      7  O   UNL     1       3.547   4.953  -8.333  0.00  0.00    -0.473 OA
BRANCH   7   8
ATOM      8  C   UNL     1       3.095   5.428  -7.064  0.00  0.00    +0.240 C 
BRANCH   8   9
ATOM      9  C   UNL     1       1.552   4.760  -7.095  0.00  0.00    +0.213 C 
ATOM     10  O   UNL     1       1.204   5.408  -5.734  0.00  0.00    -0.218 OA
BRANCH   9  11
ATOM     11  C   UNL     1       0.948   6.091  -7.925  0.00  0.00    +0.125 C 
BRANCH  11  12
ATOM     12  N   UNL     1      -0.021   5.430  -8.796  0.00  0.00    -0.217 NA
BRANCH  12  14
ATOM     13  C   UNL     1       0.253   4.535 -10.680  0.00  0.00    +0.019 C 
ATOM     14  C   UNL     1       0.568   5.428 -10.132  0.00  0.00    +0.073 C 
ATOM     15  C   UNL     1       0.165   6.758 -10.758  0.00  0.00    +0.019 C 
ENDBRANCH  12  14
ENDBRANCH  11  12
ENDBRANCH   9  11
ENDBRANCH   8   9
ENDBRANCH   7   8
ENDBRANCH   1   7
BRANCH   4  16
ATOM     16  C   UNL     1       7.216   6.709 -11.972  0.00  0.00    +0.115 C 
BRANCH  16  17
ATOM     17  C   UNL     1       7.087   5.450 -12.727  0.00  0.00    +0.265 C 
ATOM     18  O   UNL     1       7.959   4.572 -12.572  0.00  0.00    -0.271 OA
ATOM     19  N   UNL     1       5.849   5.119 -13.339  0.00  0.00    -0.087 NA
ENDBRANCH  16  17
ENDBRANCH   4  16
TORSDOF 8
ENDMDL
MODEL 4
REMARK VINA RESULT:      -6.6      1.498      2.119
REMARK  Name = 
REMARK  8 active torsions:
REMARK  status: ('A' for Active; 'I' for Inactive)
REMARK    1  A    between atoms: C_2  and  N_4
REMARK    2  A    between atoms: N_4  and  C_5
REMARK    3  A    between atoms: C_5  and  C_6
REMARK    4  A    between atoms: C_6  and  C_8
REMARK    5  A    between atoms: C_8  and  O_9
REMARK    6  A    between atoms: O_9  and  C_10
REMARK    7  A    between atoms: C_13  and  C_14
REMARK    8  A    between atoms: C_14  and  C_15
REMARK                            x       y       z     vdW  Elec       q    Type
REMARK                         _______ _______ _______ _____ _____    ______ ____
ROOT
ATOM      1  C   UNL     1       4.213   6.000  -8.948  0.00  0.00    +0.139 A 
ATOM      2  C   UNL     1       3.993   6.573 -10.194  0.00  0.00    +0.037 A 
ATOM      3  C   UNL     1       5.095   6.643 -11.035  0.00  0.00    -0.001 A 
ATOM      4  C   UNL     1       6.348   6.249 -10.628  0.00  0.00    -0.013 A 
ATOM      5  C   UNL     1       6.482   5.530  -9.464  0.00  0.00    -0.001 A 
ATOM      6  C   UNL     1       5.439   5.520  -8.556  0.00  0.00    +0.037 A 
ENDROOT
BRANCH   1   7
ATOM      7  O   UNL     1       3.239   6.277  -7.985  0.00  0.00    -0.473 OA
BRANCH   7   8
ATOM      8  C   UNL     1       3.223   5.400  -6.858  0.00  0.00    +0.240 C 
BRANCH   8   9
ATOM      9  C   UNL     1       1.680   4.766  -7.071  0.00  0.00    +0.213 C 
ATOM     10  O   UNL     1       2.114   3.410  -6.466  0.00  0.00    -0.218 OA
BRANCH   9  11
ATOM     11  C   UNL     1       1.197   5.327  -5.561  0.00  0.00    +0.125 C 
BRANCH  11  12
ATOM     12  N   UNL     1       0.429   6.504  -5.960  0.00  0.00    -0.217 NA
BRANCH  12  14
ATOM     13  C   UNL     1      -1.108   7.441  -4.872  0.00  0.00    +0.019 C 
ATOM     14  C   UNL     1      -0.826   6.441  -5.217  0.00  0.00    +0.073 C 
ATOM     15  C   UNL     1      -1.822   5.766  -6.153  0.00  0.00    +0.019 C 
ENDBRANCH  12  14
ENDBRANCH  11  12
ENDBRANCH   9  11
ENDBRANCH   8   9
ENDBRANCH   7   8
ENDBRANCH   1   7
BRANCH   4  16
ATOM     16  C   UNL     1       7.510   6.872 -11.331  0.00  0.00    +0.115 C 
BRANCH  16  17
ATOM     17  C   UNL     1       8.224   5.853 -12.123  0.00  0.00    +0.265 C 
ATOM     18  O   UNL     1       9.464   5.779 -12.015  0.00  0.00    -0.271 OA
ATOM     19  N   UNL     1       7.498   4.788 -12.718  0.00  0.00    -0.087 NA
ENDBRANCH  16  17
ENDBRANCH   4  16
TORSDOF 8
ENDMDL
MODEL 5
REMARK VINA RESULT:      -6.5      2.349      3.189
REMARK  Name = 
REMARK  8 active torsions:
REMARK  status: ('A' for Active; 'I' for Inactive)
REMARK    1  A    between atoms: C_2  and  N_4
REMARK    2  A    between atoms: N_4  and  C_5
REMARK    3  A    between atoms: C_5  and  C_6
REMARK    4  A    between atoms: C_6  and  C_8
REMARK    5  A    between atoms: C_8  and  O_9
REMARK    6  A    between atoms: O_9  and  C_10
REMARK    7  A    between atoms: C_13  and  C_14
REMARK    8  A    between atoms: C_14  and  C_15
REMARK                            x       y       z     vdW  Elec       q    Type
REMARK                         _______ _______ _______ _____ _____    ______ ____
ROOT
ATOM      1  C   UNL     1       4.449   5.858  -8.800  0.00  0.00    +0.139 A 
ATOM      2  C   UNL     1       4.072   6.415 -10.016  0.00  0.00    +0.037 A 
ATOM      3  C   UNL     1       5.077   6.537 -10.967  0.00  0.00    -0.001 A 
ATOM      4  C   UNL     1       6.384   6.209 -10.693  0.00  0.00    -0.013 A 
ATOM      5  C   UNL     1       6.674   5.501  -9.550  0.00  0.00    -0.001 A 
ATOM      6  C   UNL     1       5.733   5.440  -8.539  0.00  0.00    +0.037 A 
ENDROOT
BRANCH   1   7
ATOM      7  O   UNL     1       3.568   6.088  -7.741  0.00  0.00    -0.473 OA
BRANCH   7   8
ATOM      8  C   UNL     1       2.848   4.944  -7.281  0.00  0.00    +0.240 C 
BRANCH   8   9
ATOM      9  C   UNL     1       1.621   5.748  -6.459  0.00  0.00    +0.213 C 
ATOM     10  O   UNL     1       1.544   4.624  -5.399  0.00  0.00    -0.218 OA
BRANCH   9  11
ATOM     11  C   UNL     1       2.740   6.595  -5.533  0.00  0.00    +0.125 C 
BRANCH  11  12
ATOM     12  N   UNL     1       2.914   5.659  -4.425  0.00  0.00    -0.217 NA
BRANCH  12  14
ATOM     13  C   UNL     1       4.887   4.999  -4.118  0.00  0.00    +0.019 C 
ATOM     14  C   UNL     1       4.265   5.876  -3.917  0.00  0.00    +0.073 C 
ATOM     15  C   UNL     1       4.738   7.177  -4.557  0.00  0.00    +0.019 C 
ENDBRANCH  12  14
ENDBRANCH  11  12
ENDBRANCH   9  11
ENDBRANCH   8   9
ENDBRANCH   7   8
ENDBRANCH   1   7
BRANCH   4  16
ATOM     16  C   UNL     1       7.433   6.887 -11.512  0.00  0.00    +0.115 C 
BRANCH  16  17
ATOM     17  C   UNL     1       8.215   5.884 -12.258  0.00  0.00    +0.265 C 
ATOM     18  O   UNL     1       9.444   5.817 -12.054  0.00  0.00    -0.271 OA
ATOM     19  N   UNL     1       7.547   4.821 -12.921  0.00  0.00    -0.087 NA
ENDBRANCH  16  17
ENDBRANCH   4  16
TORSDOF 8
ENDMDL
MODEL 6
REMARK VINA RESULT:      -6.5      3.958      8.828
REMARK  Name = 
REMARK  8 active torsions:
REMARK  status: ('A' for Active; 'I' for Inactive)
REMARK    1  A    between atoms: C_2  and  N_4
REMARK    2  A    between atoms: N_4  and  C_5
REMARK    3  A    between atoms: C_5  and  C_6
REMARK    4  A    between atoms: C_6  and  C_8
REMARK    5  A    between atoms: C_8  and  O_9
REMARK    6  A    between atoms: O_9  and  C_10
REMARK    7  A    between atoms: C_13  and  C_14
REMARK    8  A    between atoms: C_14  and  C_15
REMARK                            x       y       z     vdW  Elec       q    Type
REMARK                         _______ _______ _______ _____ _____    ______ ____
ROOT
ATOM      1  C   UNL     1      -0.186   5.763  -6.399  0.00  0.00    +0.139 A 
ATOM      2  C   UNL     1      -1.494   5.365  -6.643  0.00  0.00    +0.037 A 
ATOM      3  C   UNL     1      -2.462   5.911  -5.810  0.00  0.00    -0.001 A 
ATOM      4  C   UNL     1      -2.136   6.728  -4.752  0.00  0.00    -0.013 A 
ATOM      5  C   UNL     1      -0.861   7.232  -4.660  0.00  0.00    -0.001 A 
ATOM      6  C   UNL     1       0.150   6.648  -5.402  0.00  0.00    +0.037 A 
ENDROOT
BRANCH   1   7
ATOM      7  O   UNL     1       0.799   4.943  -6.955  0.00  0.00    -0.473 OA
BRANCH   7   8
ATOM      8  C   UNL     1       1.326   5.380  -8.208  0.00  0.00    +0.240 C 
BRANCH   8   9
ATOM      9  C   UNL     1       2.799   4.572  -8.143  0.00  0.00    +0.213 C 
ATOM     10  O   UNL     1       3.054   4.839  -9.645  0.00  0.00    -0.218 OA
BRANCH   9  11
ATOM     11  C   UNL     1       3.603   5.986  -7.718  0.00  0.00    +0.125 C 
BRANCH  11  12
ATOM     12  N   UNL     1       4.575   5.450  -6.767  0.00  0.00    -0.217 NA
BRANCH  12  14
ATOM     13  C   UNL     1       4.586   5.095  -4.694  0.00  0.00    +0.019 C 
ATOM     14  C   UNL     1       3.983   5.617  -5.443  0.00  0.00    +0.073 C 
ATOM     15  C   UNL     1       3.848   7.123  -5.243  0.00  0.00    +0.019 C 
ENDBRANCH  12  14
ENDBRANCH  11  12
ENDBRANCH   9  11
ENDBRANCH   8   9
ENDBRANCH   7   8
ENDBRANCH   1   7
BRANCH   4  16
ATOM     16  C   UNL     1      -3.111   6.784  -3.621  0.00  0.00    +0.115 C 
BRANCH  16  17
ATOM     17  C   UNL     1      -2.673   5.889  -2.535  0.00  0.00    +0.265 C 
ATOM     18  O   UNL     1      -2.690   4.659  -2.736  0.00  0.00    -0.271 OA
ATOM     19  N   UNL     1      -1.946   6.419  -1.436  0.00  0.00    -0.087 NA
ENDBRANCH  16  17
ENDBRANCH   4  16
TORSDOF 8
ENDMDL
MODEL 7
REMARK VINA RESULT:      -6.4      2.728      8.822
REMARK  Name = 
REMARK  8 active torsions:
REMARK  status: ('A' for Active; 'I' for Inactive)
REMARK    1  A    between atoms: C_2  and  N_4
REMARK    2  A    between atoms: N_4  and  C_5
REMARK    3  A    between atoms: C_5  and  C_6
REMARK    4  A    between atoms: C_6  and  C_8
REMARK    5  A    between atoms: C_8  and  O_9
REMARK    6  A    between atoms: O_9  and  C_10
REMARK    7  A    between atoms: C_13  and  C_14
REMARK    8  A    between atoms: C_14  and  C_15
REMARK                            x       y       z     vdW  Elec       q    Type
REMARK                         _______ _______ _______ _____ _____    ______ ____
ROOT
ATOM      1  C   UNL     1       0.111   5.760  -6.967  0.00  0.00    +0.139 A 
ATOM      2  C   UNL     1      -1.186   5.264  -6.968  0.00  0.00    +0.037 A 
ATOM      3  C   UNL     1      -2.032   5.771  -5.990  0.00  0.00    -0.001 A 
ATOM      4  C   UNL     1      -1.589   6.644  -5.024  0.00  0.00    -0.013 A 
ATOM      5  C   UNL     1      -0.358   7.238  -5.169  0.00  0.00    -0.001 A 
ATOM      6  C   UNL     1       0.548   6.700  -6.065  0.00  0.00    +0.037 A 
ENDROOT
BRANCH   1   7
ATOM      7  O   UNL     1       1.043   4.991  -7.670  0.00  0.00    -0.473 OA
BRANCH   7   8
ATOM      8  C   UNL     1       2.386   5.474  -7.637  0.00  0.00    +0.240 C 
BRANCH   8   9
ATOM      9  C   UNL     1       3.045   4.421  -8.771  0.00  0.00    +0.213 C 
ATOM     10  O   UNL     1       1.664   4.216  -9.437  0.00  0.00    -0.218 OA
BRANCH   9  11
ATOM     11  C   UNL     1       3.398   5.695  -9.810  0.00  0.00    +0.125 C 
BRANCH  11  12
ATOM     12  N   UNL     1       4.477   5.096 -10.591  0.00  0.00    -0.217 NA
BRANCH  12  14
ATOM     13  C   UNL     1       5.114   7.101 -10.619  0.00  0.00    +0.019 C 
ATOM     14  C   UNL     1       5.542   6.094 -10.645  0.00  0.00    +0.073 C 
ATOM     15  C   UNL     1       6.482   5.751  -9.495  0.00  0.00    +0.019 C 
ENDBRANCH  12  14
ENDBRANCH  11  12
ENDBRANCH   9  11
ENDBRANCH   8   9
ENDBRANCH   7   8
ENDBRANCH   1   7
BRANCH   4  16
ATOM     16  C   UNL     1      -2.354   6.672  -3.741  0.00  0.00    +0.115 C 
BRANCH  16  17
ATOM     17  C   UNL     1      -2.066   5.456  -2.958  0.00  0.00    +0.265 C 
ATOM     18  O   UNL     1      -2.939   4.568  -2.897  0.00  0.00    -0.271 OA
ATOM     19  N   UNL     1      -0.730   5.166  -2.574  0.00  0.00    -0.087 NA
ENDBRANCH  16  17
ENDBRANCH   4  16
TORSDOF 8
ENDMDL
MODEL 8
REMARK VINA RESULT:      -6.4      3.829      8.487
REMARK  Name = 
REMARK  8 active torsions:
REMARK  status: ('A' for Active; 'I' for Inactive)
REMARK    1  A    between atoms: C_2  and  N_4
REMARK    2  A    between atoms: N_4  and  C_5
REMARK    3  A    between atoms: C_5  and  C_6
REMARK    4  A    between atoms: C_6  and  C_8
REMARK    5  A    between atoms: C_8  and  O_9
REMARK    6  A    between atoms: O_9  and  C_10
REMARK    7  A    between atoms: C_13  and  C_14
REMARK    8  A    between atoms: C_14  and  C_15
REMARK                            x       y       z     vdW  Elec       q    Type
REMARK                         _______ _______ _______ _____ _____    ______ ____
ROOT
ATOM      1  C   UNL     1       0.035   5.794  -6.846  0.00  0.00    +0.139 A 
ATOM      2  C   UNL     1      -1.272   5.325  -6.833  0.00  0.00    +0.037 A 
ATOM      3  C   UNL     1      -2.095   5.845  -5.844  0.00  0.00    -0.001 A 
ATOM      4  C   UNL     1      -1.624   6.706  -4.881  0.00  0.00    -0.013 A 
ATOM      5  C   UNL     1      -0.383   7.276  -5.039  0.00  0.00    -0.001 A 
ATOM      6  C   UNL     1       0.502   6.723  -5.947  0.00  0.00    +0.037 A 
ENDROOT
BRANCH   1   7
ATOM      7  O   UNL     1       0.943   5.009  -7.563  0.00  0.00    -0.473 OA
BRANCH   7   8
ATOM      8  C   UNL     1       2.292   5.052  -7.098  0.00  0.00    +0.240 C 
BRANCH   8   9
ATOM      9  C   UNL     1       2.987   5.775  -8.447  0.00  0.00    +0.213 C 
ATOM     10  O   UNL     1       4.157   4.762  -8.433  0.00  0.00    -0.218 OA
BRANCH   9  11
ATOM     11  C   UNL     1       2.100   4.791  -9.482  0.00  0.00    +0.125 C 
BRANCH  11  12
ATOM     12  N   UNL     1       1.858   5.726 -10.579  0.00  0.00    -0.217 NA
BRANCH  12  14
ATOM     13  C   UNL     1       0.178   6.907 -11.035  0.00  0.00    +0.019 C 
ATOM     14  C   UNL     1       0.411   5.912 -10.642  0.00  0.00    +0.073 C 
ATOM     15  C   UNL     1      -0.115   4.742 -11.466  0.00  0.00    +0.019 C 
ENDBRANCH  12  14
ENDBRANCH  11  12
ENDBRANCH   9  11
ENDBRANCH   8   9
ENDBRANCH   7   8
ENDBRANCH   1   7
BRANCH   4  16
ATOM     16  C   UNL     1      -2.373   6.745  -3.588  0.00  0.00    +0.115 C 
BRANCH  16  17
ATOM     17  C   UNL     1      -2.131   5.504  -2.830  0.00  0.00    +0.265 C 
ATOM     18  O   UNL     1      -3.002   4.612  -2.858  0.00  0.00    -0.271 OA
ATOM     19  N   UNL     1      -0.822   5.204  -2.368  0.00  0.00    -0.087 NA
ENDBRANCH  16  17
ENDBRANCH   4  16
TORSDOF 8
ENDMDL
MODEL 9
REMARK VINA RESULT:      -6.1      2.551      3.759
REMARK  Name = 
REMARK  8 active torsions:
REMARK  status: ('A' for Active; 'I' for Inactive)
REMARK    1  A    between atoms: C_2  and  N_4
REMARK    2  A    between atoms: N_4  and  C_5
REMARK    3  A    between atoms: C_5  and  C_6
REMARK    4  A    between atoms: C_6  and  C_8
REMARK    5  A    between atoms: C_8  and  O_9
REMARK    6  A    between atoms: O_9  and  C_10
REMARK    7  A    between atoms: C_13  and  C_14
REMARK    8  A    between atoms: C_14  and  C_15
REMARK                            x       y       z     vdW  Elec       q    Type
REMARK                         _______ _______ _______ _____ _____    ______ ____
ROOT
ATOM      1  C   UNL     1       3.385   6.889  -5.981  0.00  0.00    +0.139 A 
ATOM      2  C   UNL     1       4.407   5.950  -6.036  0.00  0.00    +0.037 A 
ATOM      3  C   UNL     1       4.705   5.447  -7.295  0.00  0.00    -0.001 A 
ATOM      4  C   UNL     1       3.975   5.791  -8.409  0.00  0.00    -0.013 A 
ATOM      5  C   UNL     1       3.099   6.848  -8.338  0.00  0.00    -0.001 A 
ATOM      6  C   UNL     1       2.703   7.313  -7.097  0.00  0.00    +0.037 A 
ENDROOT
BRANCH   1   7
ATOM      7  O   UNL     1       2.834   7.097  -4.714  0.00  0.00    -0.473 OA
BRANCH   7   8
ATOM      8  C   UNL     1       1.425   6.890  -4.616  0.00  0.00    +0.240 C 
BRANCH   8   9
ATOM      9  C   UNL     1       1.456   5.334  -3.980  0.00  0.00    +0.213 C 
ATOM     10  O   UNL     1       0.067   5.533  -3.328  0.00  0.00    -0.218 OA
BRANCH   9  11
ATOM     11  C   UNL     1       0.753   4.706  -5.372  0.00  0.00    +0.125 C 
BRANCH  11  12
ATOM     12  N   UNL     1      -0.283   5.708  -5.609  0.00  0.00    -0.217 NA
BRANCH  12  14
ATOM     13  C   UNL     1      -2.142   5.597  -6.588  0.00  0.00    +0.019 C 
ATOM     14  C   UNL     1      -1.138   5.168  -6.663  0.00  0.00    +0.073 C 
ATOM     15  C   UNL     1      -0.402   5.447  -7.969  0.00  0.00    +0.019 C 
ENDBRANCH  12  14
ENDBRANCH  11  12
ENDBRANCH   9  11
ENDBRANCH   8   9
ENDBRANCH   7   8
ENDBRANCH   1   7
BRANCH   4  16
ATOM     16  C   UNL     1       3.975   4.815  -9.540  0.00  0.00    +0.115 C 
BRANCH  16  17
ATOM     17  C   UNL     1       4.639   5.409 -10.715  0.00  0.00    +0.265 C 
ATOM     18  O   UNL     1       3.967   5.585 -11.751  0.00  0.00    -0.271 OA
ATOM     19  N   UNL     1       5.892   6.060 -10.563  0.00  0.00    -0.087 NA
ENDBRANCH  16  17
ENDBRANCH   4  16
TORSDOF 8
ENDMDL
