MODEL 1
REMARK VINA RESULT:      -9.5      0.000      0.000
REMARK  Name = 
REMARK  7 active torsions:
REMARK  status: ('A' for Active; 'I' for Inactive)
REMARK    1  A    between atoms: C_2  and  C_4
REMARK    2  A    between atoms: C_8  and  C_9
REMARK    3  A    between atoms: C_12  and  S_13
REMARK    4  A    between atoms: S_13  and  C_14
REMARK    5  A    between atoms: C_17  and  C_18
REMARK    6  A    between atoms: N_20  and  C_21
REMARK    7  A    between atoms: C_25  and  C_26
REMARK                            x       y       z     vdW  Elec       q    Type
REMARK                         _______ _______ _______ _____ _____    ______ ____
ROOT
ATOM      1  C   UNL     1       1.183   5.691  -9.663  0.00  0.00    +0.071 C 
ATOM      2  C   UNL     1       2.049   5.403 -10.971  0.00  0.00    +0.039 C 
ATOM      3  C   UNL     1       0.860   6.309 -11.685  0.00  0.00    +0.152 C 
ATOM      4  N   UNL     1      -0.124   5.077 -11.576  0.00  0.00    -0.209 NA
ATOM      5  C   UNL     1       0.080   4.679 -10.182  0.00  0.00    +0.100 C 
ENDROOT
BRANCH   3   6
ATOM      6  C   UNL     1       1.415   6.031 -13.170  0.00  0.00    +0.261 C 
ATOM      7  N   UNL     1       2.518   6.625 -13.699  0.00  0.00    -0.178 NA
ATOM      8  O   UNL     1       1.272   4.786 -13.388  0.00  0.00    -0.271 OA
BRANCH   7   9
ATOM      9  C   UNL     1       3.690   5.908 -14.168  0.00  0.00    +0.074 A 
ATOM     10  C   UNL     1       4.605   5.397 -13.253  0.00  0.00    +0.023 A 
ATOM     11  C   UNL     1       5.973   5.605 -13.400  0.00  0.00    +0.081 A 
ATOM     12  C   UNL     1       6.468   6.428 -14.399  0.00  0.00    +0.007 A 
ATOM     13  C   UNL     1       5.578   6.977 -15.288  0.00  0.00    +0.002 A 
ATOM     14  C   UNL     1       4.271   6.511 -15.281  0.00  0.00    +0.017 A 
BRANCH  11  15
ATOM     15  C   UNL     1       6.912   5.292 -12.309  0.00  0.00    +0.388 C 
ATOM     16  O   UNL     1       6.932   5.994 -11.123  0.00  0.00    -0.241 OA
ATOM     17  O   UNL     1       7.875   4.519 -12.570  0.00  0.00    -0.241 OA
ENDBRANCH  11  15
ENDBRANCH   7   9
ENDBRANCH   3   6
BRANCH   1  18
ATOM     18  S   UNL     1       2.165   4.585  -8.455  0.00  0.00    -0.116 S 
BRANCH  18  23
ATOM     19  C   UNL     1      -0.825   5.607  -4.172  0.00  0.00    +0.126 C 
ATOM     20  C   UNL     1       0.752   5.256  -4.619  0.00  0.00    +0.096 C 
ATOM     21  N   UNL     1       0.659   6.581  -5.417  0.00  0.00    -0.254 N 
ATOM     22  C   UNL     1       1.731   6.264  -6.297  0.00  0.00    +0.136 C 
ATOM     23  C   UNL     1       1.544   5.095  -6.867  0.00  0.00    +0.024 C 
ATOM     24  C   UNL     1       0.456   4.315  -6.006  0.00  0.00    +0.049 C 
ATOM     25  C   UNL     1      -0.778   5.169  -6.623  0.00  0.00    +0.007 C 
ATOM     26  C   UNL     1      -0.548   7.008  -4.847  0.00  0.00    +0.233 C 
ATOM     27  O   UNL     1      -1.231   7.995  -5.095  0.00  0.00    -0.274 OA
BRANCH  19  29
ATOM     28  C   UNL     1      -1.740   6.419  -2.081  0.00  0.00    +0.036 C 
ATOM     29  C   UNL     1      -0.226   6.217  -2.687  0.00  0.00    +0.162 C 
ATOM     30  O   UNL     1      -0.102   4.831  -2.102  0.00  0.00    -0.223 OA
ENDBRANCH  19  29
BRANCH  22  31
ATOM     31  C   UNL     1       2.759   7.258  -6.610  0.00  0.00    +0.401 C 
ATOM     32  O   UNL     1       2.454   8.185  -7.607  0.00  0.00    -0.239 OA
ATOM     33  O   UNL     1       3.678   7.623  -5.815  0.00  0.00    -0.239 OA
ENDBRANCH  22  31
ENDBRANCH  18  23
ENDBRANCH   1  18
TORSDOF 7
ENDMDL
MODEL 2
REMARK VINA RESULT:      -9.2      4.835      8.227
REMARK  Name = 
REMARK  7 active torsions:
REMARK  status: ('A' for Active; 'I' for Inactive)
REMARK    1  A    between atoms: C_2  and  C_4
REMARK    2  A    between atoms: C_8  and  C_9
REMARK    3  A    between atoms: C_12  and  S_13
REMARK    4  A    between atoms: S_13  and  C_14
REMARK    5  A    between atoms: C_17  and  C_18
REMARK    6  A    between atoms: N_20  and  C_21
REMARK    7  A    between atoms: C_25  and  C_26
REMARK                            x       y       z     vdW  Elec       q    Type
REMARK                         _______ _______ _______ _____ _____    ______ ____
ROOT
ATOM      1  C   UNL     1       4.700   5.565  -4.237  0.00  0.00    +0.071 C 
ATOM      2  C   UNL     1       3.377   5.049  -4.961  0.00  0.00    +0.039 C 
ATOM      3  C   UNL     1       4.016   5.889  -6.237  0.00  0.00    +0.152 C 
ATOM      4  N   UNL     1       3.590   7.241  -5.542  0.00  0.00    -0.209 NA
ATOM      5  C   UNL     1       4.088   7.025  -4.182  0.00  0.00    +0.100 C 
ENDROOT
BRANCH   3   6
ATOM      6  C   UNL     1       2.707   5.675  -7.151  0.00  0.00    +0.261 C 
ATOM      7  N   UNL     1       1.490   5.307  -6.670  0.00  0.00    -0.178 NA
ATOM      8  O   UNL     1       2.723   6.592  -8.033  0.00  0.00    -0.271 OA
BRANCH   7   9
ATOM      9  C   UNL     1       0.279   6.095  -6.812  0.00  0.00    +0.074 A 
ATOM     10  C   UNL     1      -0.115   6.954  -5.791  0.00  0.00    +0.023 A 
ATOM     11  C   UNL     1      -1.422   6.964  -5.313  0.00  0.00    +0.081 A 
ATOM     12  C   UNL     1      -2.352   6.037  -5.757  0.00  0.00    +0.007 A 
ATOM     13  C   UNL     1      -1.972   5.152  -6.734  0.00  0.00    +0.002 A 
ATOM     14  C   UNL     1      -0.764   5.368  -7.381  0.00  0.00    +0.017 A 
BRANCH  11  15
ATOM     15  C   UNL     1      -1.775   7.677  -4.074  0.00  0.00    +0.388 C 
ATOM     16  O   UNL     1      -2.147   7.020  -2.920  0.00  0.00    -0.241 OA
ATOM     17  O   UNL     1      -1.968   8.922  -4.150  0.00  0.00    -0.241 OA
ENDBRANCH  11  15
ENDBRANCH   7   9
ENDBRANCH   3   6
BRANCH   1  18
ATOM     18  S   UNL     1       4.300   4.927  -2.482  0.00  0.00    -0.116 S 
BRANCH  18  23
ATOM     19  C   UNL     1       3.864   9.167   0.705  0.00  0.00    +0.126 C 
ATOM     20  C   UNL     1       3.441   8.625  -0.824  0.00  0.00    +0.096 C 
ATOM     21  N   UNL     1       2.644   7.543  -0.053  0.00  0.00    -0.254 N 
ATOM     22  C   UNL     1       2.580   6.640  -1.151  0.00  0.00    +0.136 C 
ATOM     23  C   UNL     1       3.777   6.405  -1.641  0.00  0.00    +0.024 C 
ATOM     24  C   UNL     1       4.738   7.563  -1.122  0.00  0.00    +0.049 C 
ATOM     25  C   UNL     1       4.870   6.915   0.360  0.00  0.00    +0.007 C 
ATOM     26  C   UNL     1       2.778   8.138   1.209  0.00  0.00    +0.233 C 
ATOM     27  O   UNL     1       2.410   7.741   2.309  0.00  0.00    -0.274 OA
BRANCH  19  29
ATOM     28  C   UNL     1       3.115  11.093   1.971  0.00  0.00    +0.036 C 
ATOM     29  C   UNL     1       2.648  10.367   0.572  0.00  0.00    +0.162 C 
ATOM     30  O   UNL     1       3.535  11.255  -0.266  0.00  0.00    -0.223 OA
ENDBRANCH  19  29
BRANCH  22  31
ATOM     31  C   UNL     1       1.327   5.963  -1.488  0.00  0.00    +0.401 C 
ATOM     32  O   UNL     1       0.325   5.976  -0.518  0.00  0.00    -0.239 OA
ATOM     33  O   UNL     1       0.914   5.754  -2.670  0.00  0.00    -0.239 OA
ENDBRANCH  22  31
ENDBRANCH  18  23
ENDBRANCH   1  18
TORSDOF 7
ENDMDL
MODEL 3
REMARK VINA RESULT:      -9.2      2.410      3.589
REMARK  Name = 
REMARK  7 active torsions:
REMARK  status: ('A' for Active; 'I' for Inactive)
REMARK    1  A    between atoms: C_2  and  C_4
REMARK    2  A    between atoms: C_8  and  C_9
REMARK    3  A    between atoms: C_12  and  S_13
REMARK    4  A    between atoms: S_13  and  C_14
REMARK    5  A    between atoms: C_17  and  C_18
REMARK    6  A    between atoms: N_20  and  C_21
REMARK    7  A    between atoms: C_25  and  C_26
REMARK                            x       y       z     vdW  Elec       q    Type
REMARK                         _______ _______ _______ _____ _____    ______ ____
ROOT
ATOM      1  C   UNL     1       1.361   5.969  -7.715  0.00  0.00    +0.071 C 
ATOM      2  C   UNL     1       2.135   5.388  -8.982  0.00  0.00    +0.039 C 
ATOM      3  C   UNL     1       1.433   6.690  -9.727  0.00  0.00    +0.152 C 
ATOM      4  N   UNL     1       0.048   5.930  -9.719  0.00  0.00    -0.209 NA
ATOM      5  C   UNL     1      -0.007   5.465  -8.332  0.00  0.00    +0.100 C 
ENDROOT
BRANCH   3   6
ATOM      6  C   UNL     1       1.936   6.241 -11.189  0.00  0.00    +0.261 C 
ATOM      7  N   UNL     1       3.152   6.554 -11.711  0.00  0.00    -0.178 NA
ATOM      8  O   UNL     1       1.524   5.050 -11.368  0.00  0.00    -0.271 OA
BRANCH   7   9
ATOM      9  C   UNL     1       4.142   5.578 -12.127  0.00  0.00    +0.074 A 
ATOM     10  C   UNL     1       5.309   5.411 -11.387  0.00  0.00    +0.023 A 
ATOM     11  C   UNL     1       6.559   5.380 -11.997  0.00  0.00    +0.081 A 
ATOM     12  C   UNL     1       6.699   5.632 -13.353  0.00  0.00    +0.007 A 
ATOM     13  C   UNL     1       5.564   5.841 -14.095  0.00  0.00    +0.002 A 
ATOM     14  C   UNL     1       4.336   5.574 -13.507  0.00  0.00    +0.017 A 
BRANCH  11  15
ATOM     15  C   UNL     1       7.796   5.464 -11.202  0.00  0.00    +0.388 C 
ATOM     16  O   UNL     1       7.789   5.613  -9.832  0.00  0.00    -0.241 OA
ATOM     17  O   UNL     1       8.880   5.643 -11.824  0.00  0.00    -0.241 OA
ENDBRANCH  11  15
ENDBRANCH   7   9
ENDBRANCH   3   6
BRANCH   1  18
ATOM     18  S   UNL     1       1.764   4.556  -6.496  0.00  0.00    -0.116 S 
BRANCH  18  23
ATOM     19  C   UNL     1       3.995   6.547  -2.093  0.00  0.00    +0.126 C 
ATOM     20  C   UNL     1       2.883   6.927  -3.289  0.00  0.00    +0.096 C 
ATOM     21  N   UNL     1       2.109   5.699  -2.747  0.00  0.00    -0.254 N 
ATOM     22  C   UNL     1       1.344   5.510  -3.932  0.00  0.00    +0.136 C 
ATOM     23  C   UNL     1       2.121   5.431  -4.989  0.00  0.00    +0.024 C 
ATOM     24  C   UNL     1       3.536   6.036  -4.584  0.00  0.00    +0.049 C 
ATOM     25  C   UNL     1       3.975   4.704  -3.768  0.00  0.00    +0.007 C 
ATOM     26  C   UNL     1       2.890   5.535  -1.595  0.00  0.00    +0.233 C 
ATOM     27  O   UNL     1       2.841   4.669  -0.728  0.00  0.00    -0.274 OA
BRANCH  19  29
ATOM     28  C   UNL     1       4.508   7.665  -0.006  0.00  0.00    +0.036 C 
ATOM     29  C   UNL     1       3.300   7.769  -1.114  0.00  0.00    +0.162 C 
ATOM     30  O   UNL     1       4.003   8.863  -1.881  0.00  0.00    -0.223 OA
ENDBRANCH  19  29
BRANCH  22  31
ATOM     31  C   UNL     1      -0.095   5.252  -3.858  0.00  0.00    +0.401 C 
ATOM     32  O   UNL     1      -0.613   4.941  -2.601  0.00  0.00    -0.239 OA
ATOM     33  O   UNL     1      -0.950   5.685  -4.689  0.00  0.00    -0.239 OA
ENDBRANCH  22  31
ENDBRANCH  18  23
ENDBRANCH   1  18
TORSDOF 7
ENDMDL
MODEL 4
REMARK VINA RESULT:      -9.1      2.660     10.242
REMARK  Name = 
REMARK  7 active torsions:
REMARK  status: ('A' for Active; 'I' for Inactive)
REMARK    1  A    between atoms: C_2  and  C_4
REMARK    2  A    between atoms: C_8  and  C_9
REMARK    3  A    between atoms: C_12  and  S_13
REMARK    4  A    between atoms: S_13  and  C_14
REMARK    5  A    between atoms: C_17  and  C_18
REMARK    6  A    between atoms: N_20  and  C_21
REMARK    7  A    between atoms: C_25  and  C_26
REMARK                            x       y       z     vdW  Elec       q    Type
REMARK                         _______ _______ _______ _____ _____    ______ ____
ROOT
ATOM      1  C   UNL     1       3.594   5.981  -5.736  0.00  0.00    +0.071 C 
ATOM      2  C   UNL     1       2.712   5.848  -4.414  0.00  0.00    +0.039 C 
ATOM      3  C   UNL     1       3.873   6.862  -3.806  0.00  0.00    +0.152 C 
ATOM      4  N   UNL     1       4.879   5.646  -3.741  0.00  0.00    -0.209 NA
ATOM      5  C   UNL     1       4.705   5.067  -5.074  0.00  0.00    +0.100 C 
ENDROOT
BRANCH   3   6
ATOM      6  C   UNL     1       3.298   6.769  -2.305  0.00  0.00    +0.261 C 
ATOM      7  N   UNL     1       2.040   7.134  -1.943  0.00  0.00    -0.178 NA
ATOM      8  O   UNL     1       3.748   5.687  -1.808  0.00  0.00    -0.271 OA
BRANCH   7   9
ATOM      9  C   UNL     1       1.067   6.240  -1.340  0.00  0.00    +0.074 A 
ATOM     10  C   UNL     1      -0.059   5.852  -2.059  0.00  0.00    +0.023 A 
ATOM     11  C   UNL     1      -1.333   5.910  -1.502  0.00  0.00    +0.081 A 
ATOM     12  C   UNL     1      -1.541   6.467  -0.250  0.00  0.00    +0.007 A 
ATOM     13  C   UNL     1      -0.447   6.896   0.459  0.00  0.00    +0.002 A 
ATOM     14  C   UNL     1       0.814   6.553  -0.007  0.00  0.00    +0.017 A 
BRANCH  11  15
ATOM     15  C   UNL     1      -2.536   5.749  -2.336  0.00  0.00    +0.388 C 
ATOM     16  O   UNL     1      -3.476   6.747  -2.482  0.00  0.00    -0.241 OA
ATOM     17  O   UNL     1      -2.825   4.584  -2.727  0.00  0.00    -0.241 OA
ENDBRANCH  11  15
ENDBRANCH   7   9
ENDBRANCH   3   6
BRANCH   1  18
ATOM     18  S   UNL     1       2.652   4.709  -6.803  0.00  0.00    -0.116 S 
BRANCH  18  23
ATOM     19  C   UNL     1       5.448   5.544 -11.254  0.00  0.00    +0.126 C 
ATOM     20  C   UNL     1       3.917   5.110 -10.728  0.00  0.00    +0.096 C 
ATOM     21  N   UNL     1       3.914   6.511 -10.066  0.00  0.00    -0.254 N 
ATOM     22  C   UNL     1       2.893   6.196  -9.127  0.00  0.00    +0.136 C 
ATOM     23  C   UNL     1       3.191   5.108  -8.451  0.00  0.00    +0.024 C 
ATOM     24  C   UNL     1       4.323   4.339  -9.265  0.00  0.00    +0.049 C 
ATOM     25  C   UNL     1       5.493   5.350  -8.772  0.00  0.00    +0.007 C 
ATOM     26  C   UNL     1       5.068   6.977 -10.711  0.00  0.00    +0.233 C 
ATOM     27  O   UNL     1       5.669   8.037 -10.581  0.00  0.00    -0.274 OA
BRANCH  19  29
ATOM     28  C   UNL     1       6.234   6.341 -13.403  0.00  0.00    +0.036 C 
ATOM     29  C   UNL     1       4.767   5.951 -12.773  0.00  0.00    +0.162 C 
ATOM     30  O   UNL     1       4.860   4.525 -13.261  0.00  0.00    -0.223 OA
ENDBRANCH  19  29
BRANCH  22  31
ATOM     31  C   UNL     1       1.791   7.127  -8.881  0.00  0.00    +0.401 C 
ATOM     32  O   UNL     1       2.067   8.226  -8.067  0.00  0.00    -0.239 OA
ATOM     33  O   UNL     1       0.786   7.274  -9.641  0.00  0.00    -0.239 OA
ENDBRANCH  22  31
ENDBRANCH  18  23
ENDBRANCH   1  18
TORSDOF 7
ENDMDL
MODEL 5
REMARK VINA RESULT:      -9.0      2.342      3.191
REMARK  Name = 
REMARK  7 active torsions:
REMARK  status: ('A' for Active; 'I' for Inactive)
REMARK    1  A    between atoms: C_2  and  C_4
REMARK    2  A    between atoms: C_8  and  C_9
REMARK    3  A    between atoms: C_12  and  S_13
REMARK    4  A    between atoms: S_13  and  C_14
REMARK    5  A    between atoms: C_17  and  C_18
REMARK    6  A    between atoms: N_20  and  C_21
REMARK    7  A    between atoms: C_25  and  C_26
REMARK                            x       y       z     vdW  Elec       q    Type
REMARK                         _______ _______ _______ _____ _____    ______ ____
ROOT
ATOM      1  C   UNL     1       1.861   4.429  -9.024  0.00  0.00    +0.071 C 
ATOM      2  C   UNL     1       2.921   5.610  -9.184  0.00  0.00    +0.039 C 
ATOM      3  C   UNL     1       3.999   4.360  -9.042  0.00  0.00    +0.152 C 
ATOM      4  N   UNL     1       3.700   4.297  -7.492  0.00  0.00    -0.209 NA
ATOM      5  C   UNL     1       2.236   4.314  -7.489  0.00  0.00    +0.100 C 
ENDROOT
BRANCH   3   6
ATOM      6  C   UNL     1       5.273   5.343  -8.992  0.00  0.00    +0.261 C 
ATOM      7  N   UNL     1       6.392   5.187  -9.749  0.00  0.00    -0.178 NA
ATOM      8  O   UNL     1       4.817   6.526  -8.878  0.00  0.00    -0.271 OA
BRANCH   7   9
ATOM      9  C   UNL     1       6.884   6.169 -10.698  0.00  0.00    +0.074 A 
ATOM     10  C   UNL     1       6.132   6.485 -11.826  0.00  0.00    +0.023 A 
ATOM     11  C   UNL     1       6.704   6.523 -13.093  0.00  0.00    +0.081 A 
ATOM     12  C   UNL     1       8.019   6.134 -13.296  0.00  0.00    +0.007 A 
ATOM     13  C   UNL     1       8.767   5.778 -12.202  0.00  0.00    +0.002 A 
ATOM     14  C   UNL     1       8.249   6.034 -10.941  0.00  0.00    +0.017 A 
BRANCH  11  15
ATOM     15  C   UNL     1       5.868   6.600 -14.304  0.00  0.00    +0.388 C 
ATOM     16  O   UNL     1       6.117   7.497 -15.321  0.00  0.00    -0.241 OA
ATOM     17  O   UNL     1       4.762   5.992 -14.291  0.00  0.00    -0.241 OA
ENDBRANCH  11  15
ENDBRANCH   7   9
ENDBRANCH   3   6
BRANCH   1  18
ATOM     18  S   UNL     1       0.287   5.505  -8.944  0.00  0.00    -0.116 S 
BRANCH  18  23
ATOM     19  C   UNL     1      -1.598   6.037  -3.995  0.00  0.00    +0.126 C 
ATOM     20  C   UNL     1      -0.220   5.579  -4.833  0.00  0.00    +0.096 C 
ATOM     21  N   UNL     1      -0.240   7.037  -5.358  0.00  0.00    -0.254 N 
ATOM     22  C   UNL     1       0.571   6.764  -6.495  0.00  0.00    +0.136 C 
ATOM     23  C   UNL     1       0.082   5.766  -7.196  0.00  0.00    +0.024 C 
ATOM     24  C   UNL     1      -0.935   4.979  -6.257  0.00  0.00    +0.049 C 
ATOM     25  C   UNL     1      -2.102   6.092  -6.433  0.00  0.00    +0.007 C 
ATOM     26  C   UNL     1      -1.224   7.496  -4.471  0.00  0.00    +0.233 C 
ATOM     27  O   UNL     1      -1.764   8.593  -4.393  0.00  0.00    -0.274 OA
BRANCH  19  29
ATOM     28  C   UNL     1      -1.939   6.523  -1.645  0.00  0.00    +0.036 C 
ATOM     29  C   UNL     1      -0.628   6.257  -2.599  0.00  0.00    +0.162 C 
ATOM     30  O   UNL     1      -0.624   4.777  -2.299  0.00  0.00    -0.223 OA
ENDBRANCH  19  29
BRANCH  22  31
ATOM     31  C   UNL     1       1.672   7.658  -6.858  0.00  0.00    +0.401 C 
ATOM     32  O   UNL     1       2.903   7.418  -6.249  0.00  0.00    -0.239 OA
ATOM     33  O   UNL     1       1.738   8.320  -7.939  0.00  0.00    -0.239 OA
ENDBRANCH  22  31
ENDBRANCH  18  23
ENDBRANCH   1  18
TORSDOF 7
ENDMDL
MODEL 6
REMARK VINA RESULT:      -8.7      2.980      4.519
REMARK  Name = 
REMARK  7 active torsions:
REMARK  status: ('A' for Active; 'I' for Inactive)
REMARK    1  A    between atoms: C_2  and  C_4
REMARK    2  A    between atoms: C_8  and  C_9
REMARK    3  A    between atoms: C_12  and  S_13
REMARK    4  A    between atoms: S_13  and  C_14
REMARK    5  A    between atoms: C_17  and  C_18
REMARK    6  A    between atoms: N_20  and  C_21
REMARK    7  A    between atoms: C_25  and  C_26
REMARK                            x       y       z     vdW  Elec       q    Type
REMARK                         _______ _______ _______ _____ _____    ______ ____
ROOT
ATOM      1  C   UNL     1       2.005   6.236  -7.266  0.00  0.00    +0.071 C 
ATOM      2  C   UNL     1       3.257   5.364  -7.732  0.00  0.00    +0.039 C 
ATOM      3  C   UNL     1       3.432   6.603  -8.817  0.00  0.00    +0.152 C 
ATOM      4  N   UNL     1       2.214   6.030  -9.645  0.00  0.00    -0.209 NA
ATOM      5  C   UNL     1       1.232   5.810  -8.582  0.00  0.00    +0.100 C 
ENDROOT
BRANCH   3   6
ATOM      6  C   UNL     1       4.621   5.862  -9.610  0.00  0.00    +0.261 C 
ATOM      7  N   UNL     1       4.835   5.972 -10.949  0.00  0.00    -0.178 NA
ATOM      8  O   UNL     1       5.646   5.908  -8.858  0.00  0.00    -0.271 OA
BRANCH   7   9
ATOM      9  C   UNL     1       6.056   6.483 -11.545  0.00  0.00    +0.074 A 
ATOM     10  C   UNL     1       6.022   7.065 -12.808  0.00  0.00    +0.023 A 
ATOM     11  C   UNL     1       6.934   6.710 -13.797  0.00  0.00    +0.081 A 
ATOM     12  C   UNL     1       7.838   5.678 -13.598  0.00  0.00    +0.007 A 
ATOM     13  C   UNL     1       7.859   5.061 -12.373  0.00  0.00    +0.002 A 
ATOM     14  C   UNL     1       7.143   5.637 -11.335  0.00  0.00    +0.017 A 
BRANCH  11  15
ATOM     15  C   UNL     1       6.743   7.129 -15.196  0.00  0.00    +0.388 C 
ATOM     16  O   UNL     1       5.995   8.233 -15.544  0.00  0.00    -0.241 OA
ATOM     17  O   UNL     1       7.075   6.314 -16.101  0.00  0.00    -0.241 OA
ENDBRANCH  11  15
ENDBRANCH   7   9
ENDBRANCH   3   6
BRANCH   1  18
ATOM     18  S   UNL     1       1.289   5.002  -5.998  0.00  0.00    -0.116 S 
BRANCH  18  23
ATOM     19  C   UNL     1       4.174   6.425  -1.758  0.00  0.00    +0.126 C 
ATOM     20  C   UNL     1       2.863   6.917  -2.678  0.00  0.00    +0.096 C 
ATOM     21  N   UNL     1       2.233   5.577  -2.221  0.00  0.00    -0.254 N 
ATOM     22  C   UNL     1       1.283   5.526  -3.279  0.00  0.00    +0.136 C 
ATOM     23  C   UNL     1       1.870   5.656  -4.448  0.00  0.00    +0.024 C 
ATOM     24  C   UNL     1       3.314   6.274  -4.189  0.00  0.00    +0.049 C 
ATOM     25  C   UNL     1       3.929   4.861  -3.680  0.00  0.00    +0.007 C 
ATOM     26  C   UNL     1       3.205   5.285  -1.254  0.00  0.00    +0.233 C 
ATOM     27  O   UNL     1       3.334   4.296  -0.541  0.00  0.00    -0.274 OA
BRANCH  19  29
ATOM     28  C   UNL     1       5.029   7.296   0.336  0.00  0.00    +0.036 C 
ATOM     29  C   UNL     1       3.618   7.440  -0.495  0.00  0.00    +0.162 C 
ATOM     30  O   UNL     1       4.086   8.684  -1.210  0.00  0.00    -0.223 OA
ENDBRANCH  19  29
BRANCH  22  31
ATOM     31  C   UNL     1      -0.112   5.175  -3.013  0.00  0.00    +0.401 C 
ATOM     32  O   UNL     1      -0.416   4.741  -1.723  0.00  0.00    -0.239 OA
ATOM     33  O   UNL     1      -1.106   5.615  -3.668  0.00  0.00    -0.239 OA
ENDBRANCH  22  31
ENDBRANCH  18  23
ENDBRANCH   1  18
TORSDOF 7
ENDMDL
MODEL 7
REMARK VINA RESULT:      -8.7      2.348      9.718
REMARK  Name = 
REMARK  7 active torsions:
REMARK  status: ('A' for Active; 'I' for Inactive)
REMARK    1  A    between atoms: C_2  and  C_4
REMARK    2  A    between atoms: C_8  and  C_9
REMARK    3  A    between atoms: C_12  and  S_13
REMARK    4  A    between atoms: S_13  and  C_14
REMARK    5  A    between atoms: C_17  and  C_18
REMARK    6  A    between atoms: N_20  and  C_21
REMARK    7  A    between atoms: C_25  and  C_26
REMARK                            x       y       z     vdW  Elec       q    Type
REMARK                         _______ _______ _______ _____ _____    ______ ____
ROOT
ATOM      1  C   UNL     1       3.167   6.111  -7.708  0.00  0.00    +0.071 C 
ATOM      2  C   UNL     1       2.716   5.554  -6.284  0.00  0.00    +0.039 C 
ATOM      3  C   UNL     1       3.580   6.862  -5.749  0.00  0.00    +0.152 C 
ATOM      4  N   UNL     1       4.920   6.092  -6.074  0.00  0.00    -0.209 NA
ATOM      5  C   UNL     1       4.642   5.606  -7.427  0.00  0.00    +0.100 C 
ENDROOT
BRANCH   3   6
ATOM      6  C   UNL     1       3.438   6.438  -4.202  0.00  0.00    +0.261 C 
ATOM      7  N   UNL     1       2.407   6.809  -3.397  0.00  0.00    -0.178 NA
ATOM      8  O   UNL     1       3.828   5.230  -4.117  0.00  0.00    -0.271 OA
BRANCH   7   9
ATOM      9  C   UNL     1       1.509   5.881  -2.734  0.00  0.00    +0.074 A 
ATOM     10  C   UNL     1       0.307   5.524  -3.339  0.00  0.00    +0.023 A 
ATOM     11  C   UNL     1      -0.894   5.547  -2.638  0.00  0.00    +0.081 A 
ATOM     12  C   UNL     1      -0.957   6.039  -1.344  0.00  0.00    +0.007 A 
ATOM     13  C   UNL     1       0.211   6.436  -0.743  0.00  0.00    +0.002 A 
ATOM     14  C   UNL     1       1.410   6.124  -1.367  0.00  0.00    +0.017 A 
BRANCH  11  15
ATOM     15  C   UNL     1      -2.185   5.422  -3.336  0.00  0.00    +0.388 C 
ATOM     16  O   UNL     1      -2.564   6.271  -4.354  0.00  0.00    -0.241 OA
ATOM     17  O   UNL     1      -3.058   4.669  -2.821  0.00  0.00    -0.241 OA
ENDBRANCH  11  15
ENDBRANCH   7   9
ENDBRANCH   3   6
BRANCH   1  18
ATOM     18  S   UNL     1       2.480   4.683  -8.772  0.00  0.00    -0.116 S 
BRANCH  18  23
ATOM     19  C   UNL     1       0.533   6.347 -13.438  0.00  0.00    +0.126 C 
ATOM     20  C   UNL     1       1.523   6.838 -12.178  0.00  0.00    +0.096 C 
ATOM     21  N   UNL     1       2.394   5.625 -12.592  0.00  0.00    -0.254 N 
ATOM     22  C   UNL     1       3.067   5.531 -11.342  0.00  0.00    +0.136 C 
ATOM     23  C   UNL     1       2.210   5.465 -10.347  0.00  0.00    +0.024 C 
ATOM     24  C   UNL     1       0.807   5.979 -10.895  0.00  0.00    +0.049 C 
ATOM     25  C   UNL     1       0.497   4.589 -11.673  0.00  0.00    +0.007 C 
ATOM     26  C   UNL     1       1.719   5.367 -13.793  0.00  0.00    +0.233 C 
ATOM     27  O   UNL     1       1.878   4.464 -14.607  0.00  0.00    -0.274 OA
BRANCH  19  29
ATOM     28  C   UNL     1       0.102   7.385 -15.585  0.00  0.00    +0.036 C 
ATOM     29  C   UNL     1       1.250   7.553 -14.421  0.00  0.00    +0.162 C 
ATOM     30  O   UNL     1       0.484   8.654 -13.728  0.00  0.00    -0.223 OA
ENDBRANCH  19  29
BRANCH  22  31
ATOM     31  C   UNL     1       4.517   5.341 -11.287  0.00  0.00    +0.401 C 
ATOM     32  O   UNL     1       5.114   4.738 -12.393  0.00  0.00    -0.239 OA
ATOM     33  O   UNL     1       5.309   6.024 -10.568  0.00  0.00    -0.239 OA
ENDBRANCH  22  31
ENDBRANCH  18  23
ENDBRANCH   1  18
TORSDOF 7
ENDMDL
MODEL 8
REMARK VINA RESULT:      -8.6      2.843      9.263
REMARK  Name = 
REMARK  7 active torsions:
REMARK  status: ('A' for Active; 'I' for Inactive)
REMARK    1  A    between atoms: C_2  and  C_4
REMARK    2  A    between atoms: C_8  and  C_9
REMARK    3  A    between atoms: C_12  and  S_13
REMARK    4  A    between atoms: S_13  and  C_14
REMARK    5  A    between atoms: C_17  and  C_18
REMARK    6  A    between atoms: N_20  and  C_21
REMARK    7  A    between atoms: C_25  and  C_26
REMARK                            x       y       z     vdW  Elec       q    Type
REMARK                         _______ _______ _______ _____ _____    ______ ____
ROOT
ATOM      1  C   UNL     1       1.991   5.904  -8.210  0.00  0.00    +0.071 C 
ATOM      2  C   UNL     1       2.486   5.183  -6.876  0.00  0.00    +0.039 C 
ATOM      3  C   UNL     1       1.328   6.149  -6.191  0.00  0.00    +0.152 C 
ATOM      4  N   UNL     1       2.288   7.392  -6.355  0.00  0.00    -0.209 NA
ATOM      5  C   UNL     1       2.714   7.234  -7.747  0.00  0.00    +0.100 C 
ENDROOT
BRANCH   3   6
ATOM      6  C   UNL     1       1.739   5.734  -4.691  0.00  0.00    +0.261 C 
ATOM      7  N   UNL     1       2.736   4.862  -4.383  0.00  0.00    -0.178 NA
ATOM      8  O   UNL     1       1.661   6.790  -3.985  0.00  0.00    -0.271 OA
BRANCH   7   9
ATOM      9  C   UNL     1       3.898   5.194  -3.579  0.00  0.00    +0.074 A 
ATOM     10  C   UNL     1       3.739   5.567  -2.248  0.00  0.00    +0.023 A 
ATOM     11  C   UNL     1       4.366   6.695  -1.729  0.00  0.00    +0.081 A 
ATOM     12  C   UNL     1       5.081   7.556  -2.548  0.00  0.00    +0.007 A 
ATOM     13  C   UNL     1       5.215   7.229  -3.874  0.00  0.00    +0.002 A 
ATOM     14  C   UNL     1       4.826   5.961  -4.280  0.00  0.00    +0.017 A 
BRANCH  11  15
ATOM     15  C   UNL     1       3.998   7.232  -0.408  0.00  0.00    +0.388 C 
ATOM     16  O   UNL     1       3.943   8.585  -0.146  0.00  0.00    -0.241 OA
ATOM     17  O   UNL     1       3.968   6.426   0.563  0.00  0.00    -0.241 OA
ENDBRANCH  11  15
ENDBRANCH   7   9
ENDBRANCH   3   6
BRANCH   1  18
ATOM     18  S   UNL     1       3.290   5.167  -9.398  0.00  0.00    -0.116 S 
BRANCH  18  23
ATOM     19  C   UNL     1       0.489   6.426 -13.746  0.00  0.00    +0.126 C 
ATOM     20  C   UNL     1       1.795   6.942 -12.830  0.00  0.00    +0.096 C 
ATOM     21  N   UNL     1       2.410   5.572 -13.212  0.00  0.00    -0.254 N 
ATOM     22  C   UNL     1       3.344   5.558 -12.139  0.00  0.00    +0.136 C 
ATOM     23  C   UNL     1       2.742   5.753 -10.986  0.00  0.00    +0.024 C 
ATOM     24  C   UNL     1       1.313   6.381 -11.297  0.00  0.00    +0.049 C 
ATOM     25  C   UNL     1       0.682   4.954 -11.745  0.00  0.00    +0.007 C 
ATOM     26  C   UNL     1       1.447   5.248 -14.179  0.00  0.00    +0.233 C 
ATOM     27  O   UNL     1       1.313   4.227 -14.844  0.00  0.00    -0.274 OA
BRANCH  19  29
ATOM     28  C   UNL     1      -0.311   7.185 -15.903  0.00  0.00    +0.036 C 
ATOM     29  C   UNL     1       1.080   7.370 -15.048  0.00  0.00    +0.162 C 
ATOM     30  O   UNL     1       0.601   8.652 -14.412  0.00  0.00    -0.223 OA
ENDBRANCH  19  29
BRANCH  22  31
ATOM     31  C   UNL     1       4.737   5.172 -12.367  0.00  0.00    +0.401 C 
ATOM     32  O   UNL     1       5.021   4.524 -13.568  0.00  0.00    -0.239 OA
ATOM     33  O   UNL     1       5.738   5.723 -11.816  0.00  0.00    -0.239 OA
ENDBRANCH  22  31
ENDBRANCH  18  23
ENDBRANCH   1  18
TORSDOF 7
ENDMDL
MODEL 9
REMARK VINA RESULT:      -8.6      3.543      5.698
REMARK  Name = 
REMARK  7 active torsions:
REMARK  status: ('A' for Active; 'I' for Inactive)
REMARK    1  A    between atoms: C_2  and  C_4
REMARK    2  A    between atoms: C_8  and  C_9
REMARK    3  A    between atoms: C_12  and  S_13
REMARK    4  A    between atoms: S_13  and  C_14
REMARK    5  A    between atoms: C_17  and  C_18
REMARK    6  A    between atoms: N_20  and  C_21
REMARK    7  A    between atoms: C_25  and  C_26
REMARK                            x       y       z     vdW  Elec       q    Type
REMARK                         _______ _______ _______ _____ _____    ______ ____
ROOT
ATOM      1  C   UNL     1       4.268   5.666  -5.374  0.00  0.00    +0.071 C 
ATOM      2  C   UNL     1       2.829   5.260  -5.929  0.00  0.00    +0.039 C 
ATOM      3  C   UNL     1       3.312   6.183  -7.217  0.00  0.00    +0.152 C 
ATOM      4  N   UNL     1       3.058   7.485  -6.360  0.00  0.00    -0.209 NA
ATOM      5  C   UNL     1       3.740   7.136  -5.112  0.00  0.00    +0.100 C 
ENDROOT
BRANCH   3   6
ATOM      6  C   UNL     1       1.874   6.095  -7.936  0.00  0.00    +0.261 C 
ATOM      7  N   UNL     1       1.547   6.758  -9.077  0.00  0.00    -0.178 NA
ATOM      8  O   UNL     1       1.493   4.884  -7.845  0.00  0.00    -0.271 OA
BRANCH   7   9
ATOM      9  C   UNL     1       1.126   6.113 -10.308  0.00  0.00    +0.074 A 
ATOM     10  C   UNL     1       2.074   5.744 -11.258  0.00  0.00    +0.023 A 
ATOM     11  C   UNL     1       1.915   6.057 -12.604  0.00  0.00    +0.081 A 
ATOM     12  C   UNL     1       0.863   6.852 -13.034  0.00  0.00    +0.007 A 
ATOM     13  C   UNL     1      -0.060   7.263 -12.106  0.00  0.00    +0.002 A 
ATOM     14  C   UNL     1      -0.023   6.690 -10.843  0.00  0.00    +0.017 A 
BRANCH  11  15
ATOM     15  C   UNL     1       3.024   5.898 -13.560  0.00  0.00    +0.388 C 
ATOM     16  O   UNL     1       2.921   6.267 -14.884  0.00  0.00    -0.241 OA
ATOM     17  O   UNL     1       4.004   5.186 -13.205  0.00  0.00    -0.241 OA
ENDBRANCH  11  15
ENDBRANCH   7   9
ENDBRANCH   3   6
BRANCH   1  18
ATOM     18  S   UNL     1       4.101   4.894  -3.636  0.00  0.00    -0.116 S 
BRANCH  18  23
ATOM     19  C   UNL     1       3.864   8.715   0.062  0.00  0.00    +0.126 C 
ATOM     20  C   UNL     1       3.477   8.413  -1.541  0.00  0.00    +0.096 C 
ATOM     21  N   UNL     1       2.551   7.319  -0.953  0.00  0.00    -0.254 N 
ATOM     22  C   UNL     1       2.466   6.573  -2.162  0.00  0.00    +0.136 C 
ATOM     23  C   UNL     1       3.663   6.294  -2.629  0.00  0.00    +0.024 C 
ATOM     24  C   UNL     1       4.691   7.283  -1.924  0.00  0.00    +0.049 C 
ATOM     25  C   UNL     1       4.689   6.442  -0.536  0.00  0.00    +0.007 C 
ATOM     26  C   UNL     1       2.669   7.734   0.381  0.00  0.00    +0.233 C 
ATOM     27  O   UNL     1       2.212   7.235   1.404  0.00  0.00    -0.274 OA
BRANCH  19  29
ATOM     28  C   UNL     1       3.288  10.583   1.494  0.00  0.00    +0.036 C 
ATOM     29  C   UNL     1       2.764  10.028   0.039  0.00  0.00    +0.162 C 
ATOM     30  O   UNL     1       3.733  10.902  -0.721  0.00  0.00    -0.223 OA
ENDBRANCH  19  29
BRANCH  22  31
ATOM     31  C   UNL     1       1.179   6.063  -2.636  0.00  0.00    +0.401 C 
ATOM     32  O   UNL     1       0.433   5.305  -1.734  0.00  0.00    -0.239 OA
ATOM     33  O   UNL     1       0.503   6.574  -3.581  0.00  0.00    -0.239 OA
ENDBRANCH  22  31
ENDBRANCH  18  23
ENDBRANCH   1  18
TORSDOF 7
ENDMDL
