MODEL 1
REMARK VINA RESULT:      -6.6      0.000      0.000
REMARK  Name = 
REMARK  1 active torsions:
REMARK  status: ('A' for Active; 'I' for Inactive)
REMARK    1  A    between atoms: C_8  and  C_9
REMARK                            x       y       z     vdW  Elec       q    Type
REMARK                         _______ _______ _______ _____ _____    ______ ____
ROOT
ATOM      1  C   UNL     1       4.479   5.457  -7.285  0.00  0.00    +0.031 C 
ATOM      2  C   UNL     1       4.065   5.855  -8.652  0.00  0.00    -0.016 A 
ATOM      3  C   UNL     1       5.047   6.083  -9.598  0.00  0.00    +0.011 A 
ATOM      4  C   UNL     1       4.805   5.952 -10.961  0.00  0.00    +0.070 A 
ATOM      5  N   UNL     1       3.494   6.015 -11.305  0.00  0.00    -0.153 N 
ATOM      6  O   UNL     1       3.164   6.013 -12.626  0.00  0.00    -0.077 OA
ATOM      7  C   UNL     1       2.514   6.128 -10.393  0.00  0.00    +0.286 A 
ATOM      8  O   UNL     1       1.376   6.546 -10.767  0.00  0.00    -0.265 OA
ATOM      9  C   UNL     1       2.747   5.886  -9.045  0.00  0.00    +0.059 A 
ENDROOT
BRANCH   4  10
ATOM     10  C   UNL     1       5.856   6.477 -11.859  0.00  0.00    +0.041 C 
ATOM     11  C   UNL     1       6.972   7.030 -10.979  0.00  0.00    +0.006 C 
ATOM     12  C   UNL     1       8.079   5.996 -10.804  0.00  0.00    +0.000 C 
ATOM     13  C   UNL     1       8.833   5.825 -12.118  0.00  0.00    +0.000 C 
ATOM     14  C   UNL     1       7.797   5.987 -13.221  0.00  0.00    +0.000 C 
ATOM     15  C   UNL     1       6.510   5.373 -12.683  0.00  0.00    +0.006 C 
ENDBRANCH   4  10
TORSDOF 1
ENDMDL
MODEL 2
REMARK VINA RESULT:      -6.6      7.637      9.738
REMARK  Name = 
REMARK  1 active torsions:
REMARK  status: ('A' for Active; 'I' for Inactive)
REMARK    1  A    between atoms: C_8  and  C_9
REMARK                            x       y       z     vdW  Elec       q    Type
REMARK                         _______ _______ _______ _____ _____    ______ ____
ROOT
ATOM      1  C   UNL     1       3.709   7.273  -4.745  0.00  0.00    +0.031 C 
ATOM      2  C   UNL     1       2.705   6.765  -3.780  0.00  0.00    -0.016 A 
ATOM      3  C   UNL     1       1.446   6.438  -4.250  0.00  0.00    +0.011 A 
ATOM      4  C   UNL     1       0.633   5.514  -3.603  0.00  0.00    +0.070 A 
ATOM      5  N   UNL     1       0.957   5.297  -2.304  0.00  0.00    -0.153 N 
ATOM      6  O   UNL     1       0.149   4.498  -1.553  0.00  0.00    -0.077 OA
ATOM      7  C   UNL     1       2.016   5.879  -1.717  0.00  0.00    +0.286 A 
ATOM      8  O   UNL     1       2.059   5.938  -0.451  0.00  0.00    -0.265 OA
ATOM      9  C   UNL     1       3.012   6.493  -2.467  0.00  0.00    +0.059 A 
ENDROOT
BRANCH   4  10
ATOM     10  C   UNL     1      -0.773   5.458  -4.059  0.00  0.00    +0.041 C 
ATOM     11  C   UNL     1      -1.534   6.555  -3.323  0.00  0.00    +0.006 C 
ATOM     12  C   UNL     1      -1.634   7.809  -4.185  0.00  0.00    +0.000 C 
ATOM     13  C   UNL     1      -2.587   7.557  -5.348  0.00  0.00    +0.000 C 
ATOM     14  C   UNL     1      -2.392   6.100  -5.741  0.00  0.00    +0.000 C 
ATOM     15  C   UNL     1      -0.911   5.803  -5.538  0.00  0.00    +0.006 C 
ENDBRANCH   4  10
TORSDOF 1
ENDMDL
MODEL 3
REMARK VINA RESULT:      -6.6      4.274      5.800
REMARK  Name = 
REMARK  1 active torsions:
REMARK  status: ('A' for Active; 'I' for Inactive)
REMARK    1  A    between atoms: C_8  and  C_9
REMARK                            x       y       z     vdW  Elec       q    Type
REMARK                         _______ _______ _______ _____ _____    ______ ____
ROOT
ATOM      1  C   UNL     1      -1.980   5.744  -6.484  0.00  0.00    +0.031 C 
ATOM      2  C   UNL     1      -0.658   5.247  -6.935  0.00  0.00    -0.016 A 
ATOM      3  C   UNL     1      -0.340   5.346  -8.277  0.00  0.00    +0.011 A 
ATOM      4  C   UNL     1       0.976   5.405  -8.722  0.00  0.00    +0.070 A 
ATOM      5  N   UNL     1       1.888   4.937  -7.834  0.00  0.00    -0.153 N 
ATOM      6  O   UNL     1       3.191   4.846  -8.221  0.00  0.00    -0.077 OA
ATOM      7  C   UNL     1       1.548   4.515  -6.604  0.00  0.00    +0.286 A 
ATOM      8  O   UNL     1       2.351   3.764  -5.971  0.00  0.00    -0.265 OA
ATOM      9  C   UNL     1       0.305   4.807  -6.057  0.00  0.00    +0.059 A 
ENDROOT
BRANCH   4  10
ATOM     10  C   UNL     1       1.175   5.243 -10.178  0.00  0.00    +0.041 C 
ATOM     11  C   UNL     1      -0.183   5.427 -10.847  0.00  0.00    +0.006 C 
ATOM     12  C   UNL     1      -0.345   6.859 -11.346  0.00  0.00    +0.000 C 
ATOM     13  C   UNL     1       0.575   7.093 -12.539  0.00  0.00    +0.000 C 
ATOM     14  C   UNL     1       1.830   6.277 -12.268  0.00  0.00    +0.000 C 
ATOM     15  C   UNL     1       2.058   6.342 -10.762  0.00  0.00    +0.006 C 
ENDBRANCH   4  10
TORSDOF 1
ENDMDL
MODEL 4
REMARK VINA RESULT:      -6.6      7.049      8.742
REMARK  Name = 
REMARK  1 active torsions:
REMARK  status: ('A' for Active; 'I' for Inactive)
REMARK    1  A    between atoms: C_8  and  C_9
REMARK                            x       y       z     vdW  Elec       q    Type
REMARK                         _______ _______ _______ _____ _____    ______ ____
ROOT
ATOM      1  C   UNL     1      -2.616   5.970  -6.515  0.00  0.00    +0.031 C 
ATOM      2  C   UNL     1      -1.983   5.671  -5.208  0.00  0.00    -0.016 A 
ATOM      3  C   UNL     1      -0.602   5.653  -5.133  0.00  0.00    +0.011 A 
ATOM      4  C   UNL     1       0.077   5.896  -3.944  0.00  0.00    +0.070 A 
ATOM      5  N   UNL     1      -0.673   5.721  -2.826  0.00  0.00    -0.153 N 
ATOM      6  O   UNL     1      -0.067   5.822  -1.611  0.00  0.00    -0.077 OA
ATOM      7  C   UNL     1      -1.977   5.405  -2.875  0.00  0.00    +0.286 A 
ATOM      8  O   UNL     1      -2.523   4.902  -1.846  0.00  0.00    -0.265 OA
ATOM      9  C   UNL     1      -2.710   5.531  -4.048  0.00  0.00    +0.059 A 
ENDROOT
BRANCH   4  10
ATOM     10  C   UNL     1       1.523   5.588  -3.949  0.00  0.00    +0.041 C 
ATOM     11  C   UNL     1       1.929   5.333  -5.396  0.00  0.00    +0.006 C 
ATOM     12  C   UNL     1       2.515   6.596  -6.019  0.00  0.00    +0.000 C 
ATOM     13  C   UNL     1       3.880   6.884  -5.406  0.00  0.00    +0.000 C 
ATOM     14  C   UNL     1       3.785   6.452  -3.949  0.00  0.00    +0.000 C 
ATOM     15  C   UNL     1       2.364   6.780  -3.505  0.00  0.00    +0.006 C 
ENDBRANCH   4  10
TORSDOF 1
ENDMDL
MODEL 5
REMARK VINA RESULT:      -6.5      4.274      7.309
REMARK  Name = 
REMARK  1 active torsions:
REMARK  status: ('A' for Active; 'I' for Inactive)
REMARK    1  A    between atoms: C_8  and  C_9
REMARK                            x       y       z     vdW  Elec       q    Type
REMARK                         _______ _______ _______ _____ _____    ______ ____
ROOT
ATOM      1  C   UNL     1       4.408   7.104  -4.919  0.00  0.00    +0.031 C 
ATOM      2  C   UNL     1       3.726   6.202  -5.879  0.00  0.00    -0.016 A 
ATOM      3  C   UNL     1       2.382   5.935  -5.691  0.00  0.00    +0.011 A 
ATOM      4  C   UNL     1       1.550   5.561  -6.740  0.00  0.00    +0.070 A 
ATOM      5  N   UNL     1       2.202   5.070  -7.824  0.00  0.00    -0.153 N 
ATOM      6  O   UNL     1       1.468   4.570  -8.857  0.00  0.00    -0.077 OA
ATOM      7  C   UNL     1       3.542   5.014  -7.896  0.00  0.00    +0.286 A 
ATOM      8  O   UNL     1       4.078   4.231  -8.738  0.00  0.00    -0.265 OA
ATOM      9  C   UNL     1       4.345   5.722  -7.010  0.00  0.00    +0.059 A 
ENDROOT
BRANCH   4  10
ATOM     10  C   UNL     1       0.214   5.055  -6.358  0.00  0.00    +0.041 C 
ATOM     11  C   UNL     1      -0.065   5.533  -4.938  0.00  0.00    +0.006 C 
ATOM     12  C   UNL     1      -0.901   6.810  -4.957  0.00  0.00    +0.000 C 
ATOM     13  C   UNL     1      -2.319   6.487  -5.414  0.00  0.00    +0.000 C 
ATOM     14  C   UNL     1      -2.184   5.378  -6.448  0.00  0.00    +0.000 C 
ATOM     15  C   UNL     1      -0.895   5.665  -7.209  0.00  0.00    +0.006 C 
ENDBRANCH   4  10
TORSDOF 1
ENDMDL
MODEL 6
REMARK VINA RESULT:      -6.4      1.790      4.776
REMARK  Name = 
REMARK  1 active torsions:
REMARK  status: ('A' for Active; 'I' for Inactive)
REMARK    1  A    between atoms: C_8  and  C_9
REMARK                            x       y       z     vdW  Elec       q    Type
REMARK                         _______ _______ _______ _____ _____    ______ ____
ROOT
ATOM      1  C   UNL     1       8.030   7.940 -10.050  0.00  0.00    +0.031 C 
ATOM      2  C   UNL     1       7.340   6.872 -10.813  0.00  0.00    -0.016 A 
ATOM      3  C   UNL     1       6.057   6.517 -10.436  0.00  0.00    +0.011 A 
ATOM      4  C   UNL     1       5.156   5.947 -11.328  0.00  0.00    +0.070 A 
ATOM      5  N   UNL     1       5.731   5.382 -12.420  0.00  0.00    -0.153 N 
ATOM      6  O   UNL     1       4.942   4.697 -13.294  0.00  0.00    -0.077 OA
ATOM      7  C   UNL     1       7.055   5.431 -12.645  0.00  0.00    +0.286 A 
ATOM      8  O   UNL     1       7.569   4.598 -13.451  0.00  0.00    -0.265 OA
ATOM      9  C   UNL     1       7.875   6.309 -11.948  0.00  0.00    +0.059 A 
ENDROOT
BRANCH   4  10
ATOM     10  C   UNL     1       3.926   5.380 -10.734  0.00  0.00    +0.041 C 
ATOM     11  C   UNL     1       3.960   5.686  -9.241  0.00  0.00    +0.006 C 
ATOM     12  C   UNL     1       3.153   6.943  -8.933  0.00  0.00    +0.000 C 
ATOM     13  C   UNL     1       1.667   6.656  -9.113  0.00  0.00    +0.000 C 
ATOM     14  C   UNL     1       1.567   5.677 -10.274  0.00  0.00    +0.000 C 
ATOM     15  C   UNL     1       2.669   6.070 -11.252  0.00  0.00    +0.006 C 
ENDBRANCH   4  10
TORSDOF 1
ENDMDL
MODEL 7
REMARK VINA RESULT:      -6.4      5.483      8.655
REMARK  Name = 
REMARK  1 active torsions:
REMARK  status: ('A' for Active; 'I' for Inactive)
REMARK    1  A    between atoms: C_8  and  C_9
REMARK                            x       y       z     vdW  Elec       q    Type
REMARK                         _______ _______ _______ _____ _____    ______ ____
ROOT
ATOM      1  C   UNL     1       3.054   6.931  -8.107  0.00  0.00    +0.031 C 
ATOM      2  C   UNL     1       2.673   6.843  -6.677  0.00  0.00    -0.016 A 
ATOM      3  C   UNL     1       1.415   6.364  -6.359  0.00  0.00    +0.011 A 
ATOM      4  C   UNL     1       1.139   5.769  -5.133  0.00  0.00    +0.070 A 
ATOM      5  N   UNL     1       2.025   6.075  -4.151  0.00  0.00    -0.153 N 
ATOM      6  O   UNL     1       1.776   5.635  -2.887  0.00  0.00    -0.077 OA
ATOM      7  C   UNL     1       3.111   6.835  -4.370  0.00  0.00    +0.286 A 
ATOM      8  O   UNL     1       3.684   7.383  -3.380  0.00  0.00    -0.265 OA
ATOM      9  C   UNL     1       3.559   7.103  -5.658  0.00  0.00    +0.059 A 
ENDROOT
BRANCH   4  10
ATOM     10  C   UNL     1      -0.291   5.545  -4.828  0.00  0.00    +0.041 C 
ATOM     11  C   UNL     1      -0.756   6.705  -3.954  0.00  0.00    +0.006 C 
ATOM     12  C   UNL     1      -1.429   7.779  -4.802  0.00  0.00    +0.000 C 
ATOM     13  C   UNL     1      -2.773   7.267  -5.306  0.00  0.00    +0.000 C 
ATOM     14  C   UNL     1      -2.586   5.779  -5.562  0.00  0.00    +0.000 C 
ATOM     15  C   UNL     1      -1.161   5.616  -6.078  0.00  0.00    +0.006 C 
ENDBRANCH   4  10
TORSDOF 1
ENDMDL
MODEL 8
REMARK VINA RESULT:      -6.4      4.654      7.894
REMARK  Name = 
REMARK  1 active torsions:
REMARK  status: ('A' for Active; 'I' for Inactive)
REMARK    1  A    between atoms: C_8  and  C_9
REMARK                            x       y       z     vdW  Elec       q    Type
REMARK                         _______ _______ _______ _____ _____    ______ ____
ROOT
ATOM      1  C   UNL     1       0.126   6.419 -10.583  0.00  0.00    +0.031 C 
ATOM      2  C   UNL     1       0.733   5.953  -9.313  0.00  0.00    -0.016 A 
ATOM      3  C   UNL     1      -0.082   5.821  -8.203  0.00  0.00    +0.011 A 
ATOM      4  C   UNL     1       0.222   4.949  -7.164  0.00  0.00    +0.070 A 
ATOM      5  N   UNL     1       1.527   4.583  -7.104  0.00  0.00    -0.153 N 
ATOM      6  O   UNL     1       1.945   3.824  -6.053  0.00  0.00    -0.077 OA
ATOM      7  C   UNL     1       2.431   4.982  -8.014  0.00  0.00    +0.286 A 
ATOM      8  O   UNL     1       3.663   4.926  -7.719  0.00  0.00    -0.265 OA
ATOM      9  C   UNL     1       2.040   5.534  -9.228  0.00  0.00    +0.059 A 
ENDROOT
BRANCH   4  10
ATOM     10  C   UNL     1      -0.586   5.100  -5.934  0.00  0.00    +0.041 C 
ATOM     11  C   UNL     1       0.134   6.100  -5.037  0.00  0.00    +0.006 C 
ATOM     12  C   UNL     1      -0.449   7.498  -5.216  0.00  0.00    +0.000 C 
ATOM     13  C   UNL     1      -1.846   7.552  -4.609  0.00  0.00    +0.000 C 
ATOM     14  C   UNL     1      -2.464   6.184  -4.857  0.00  0.00    +0.000 C 
ATOM     15  C   UNL     1      -1.947   5.727  -6.216  0.00  0.00    +0.006 C 
ENDBRANCH   4  10
TORSDOF 1
ENDMDL
MODEL 9
REMARK VINA RESULT:      -6.4      4.508      5.833
REMARK  Name = 
REMARK  1 active torsions:
REMARK  status: ('A' for Active; 'I' for Inactive)
REMARK    1  A    between atoms: C_8  and  C_9
REMARK                            x       y       z     vdW  Elec       q    Type
REMARK                         _______ _______ _______ _____ _____    ______ ____
ROOT
ATOM      1  C   UNL     1      -1.389   5.633  -6.536  0.00  0.00    +0.031 C 
ATOM      2  C   UNL     1      -0.117   5.484  -7.283  0.00  0.00    -0.016 A 
ATOM      3  C   UNL     1       1.050   5.291  -6.566  0.00  0.00    +0.011 A 
ATOM      4  C   UNL     1       2.156   4.650  -7.114  0.00  0.00    +0.070 A 
ATOM      5  N   UNL     1       2.173   4.624  -8.470  0.00  0.00    -0.153 N 
ATOM      6  O   UNL     1       3.270   4.121  -9.101  0.00  0.00    -0.077 OA
ATOM      7  C   UNL     1       1.169   5.119  -9.214  0.00  0.00    +0.286 A 
ATOM      8  O   UNL     1       1.391   5.401 -10.430  0.00  0.00    -0.265 OA
ATOM      9  C   UNL     1      -0.070   5.410  -8.656  0.00  0.00    +0.059 A 
ENDROOT
BRANCH   4  10
ATOM     10  C   UNL     1       3.411   4.745  -6.336  0.00  0.00    +0.041 C 
ATOM     11  C   UNL     1       4.030   6.105  -6.639  0.00  0.00    +0.006 C 
ATOM     12  C   UNL     1       3.654   7.117  -5.561  0.00  0.00    +0.000 C 
ATOM     13  C   UNL     1       4.377   6.775  -4.263  0.00  0.00    +0.000 C 
ATOM     14  C   UNL     1       4.451   5.256  -4.211  0.00  0.00    +0.000 C 
ATOM     15  C   UNL     1       3.155   4.750  -4.833  0.00  0.00    +0.006 C 
ENDBRANCH   4  10
TORSDOF 1
ENDMDL
