MODEL 1
REMARK VINA RESULT:      -7.7      0.000      0.000
REMARK  Name = 
REMARK  7 active torsions:
REMARK  status: ('A' for Active; 'I' for Inactive)
REMARK    1  A    between atoms: C_7  and  C_8
REMARK    2  A    between atoms: C_8  and  C_9
REMARK    3  A    between atoms: C_8  and  C_18
REMARK    4  A    between atoms: C_9  and  C_10
REMARK    5  A    between atoms: C_10  and  N_11
REMARK    6  A    between atoms: N_11  and  C_12
REMARK    7  A    between atoms: N_11  and  C_15
REMARK                            x       y       z     vdW  Elec       q    Type
REMARK                         _______ _______ _______ _____ _____    ______ ____
ROOT
ATOM      1  C   UNL     1       3.046   5.037  -6.698  0.00  0.00    +0.049 C 
ENDROOT
BRANCH   1   5
ATOM      2  C   UNL     1       6.977   5.892  -9.449  0.00  0.00    +0.031 C 
ATOM      3  C   UNL     1       5.671   5.570  -9.415  0.00  0.00    -0.022 A 
ATOM      4  C   UNL     1       5.032   5.436  -8.213  0.00  0.00    -0.005 A 
ATOM      5  C   UNL     1       3.664   5.617  -8.097  0.00  0.00    +0.020 A 
ATOM      6  C   UNL     1       2.918   5.184  -9.189  0.00  0.00    +0.192 A 
ATOM      7  O   UNL     1       1.802   4.358  -9.064  0.00  0.00    -0.287 OA
ATOM      8  C   UNL     1       3.513   5.320 -10.438  0.00  0.00    +0.041 A 
ATOM      9  C   UNL     1       4.861   5.640 -10.541  0.00  0.00    -0.001 A 
ENDBRANCH   1   5
BRANCH   1  10
ATOM     10  C   UNL     1       4.263   5.672  -5.801  0.00  0.00    -0.018 A 
ATOM     11  C   UNL     1       4.294   4.940  -4.613  0.00  0.00    -0.004 A 
ATOM     12  C   UNL     1       5.067   5.397  -3.552  0.00  0.00    -0.000 A 
ATOM     13  C   UNL     1       5.260   6.769  -3.465  0.00  0.00    -0.000 A 
ATOM     14  C   UNL     1       4.678   7.594  -4.421  0.00  0.00    -0.000 A 
ATOM     15  C   UNL     1       4.080   7.030  -5.542  0.00  0.00    -0.004 A 
ENDBRANCH   1  10
BRANCH   1  16
ATOM     16  C   UNL     1       2.111   6.408  -6.509  0.00  0.00    +0.026 C 
BRANCH  16  17
ATOM     17  C   UNL     1       0.761   5.882  -6.104  0.00  0.00    +0.073 C 
BRANCH  17  18
ATOM     18  N   UNL     1       0.353   6.419  -4.836  0.00  0.00    -0.275 NA
BRANCH  18  19
ATOM     19  C   UNL     1      -1.107   6.482  -4.854  0.00  0.00    +0.058 C 
ATOM     20  C   UNL     1      -1.532   7.945  -4.793  0.00  0.00    +0.017 C 
ATOM     21  C   UNL     1      -1.604   5.964  -6.192  0.00  0.00    +0.017 C 
ENDBRANCH  18  19
BRANCH  18  22
ATOM     22  C   UNL     1       0.804   5.660  -3.702  0.00  0.00    +0.058 C 
ATOM     23  C   UNL     1       1.618   6.546  -2.769  0.00  0.00    +0.017 C 
ATOM     24  C   UNL     1      -0.376   5.144  -2.889  0.00  0.00    +0.017 C 
ENDBRANCH  18  22
ENDBRANCH  17  18
ENDBRANCH  16  17
ENDBRANCH   1  16
TORSDOF 7
ENDMDL
MODEL 2
REMARK VINA RESULT:      -7.4      1.703      5.832
REMARK  Name = 
REMARK  7 active torsions:
REMARK  status: ('A' for Active; 'I' for Inactive)
REMARK    1  A    between atoms: C_7  and  C_8
REMARK    2  A    between atoms: C_8  and  C_9
REMARK    3  A    between atoms: C_8  and  C_18
REMARK    4  A    between atoms: C_9  and  C_10
REMARK    5  A    between atoms: C_10  and  N_11
REMARK    6  A    between atoms: N_11  and  C_12
REMARK    7  A    between atoms: N_11  and  C_15
REMARK                            x       y       z     vdW  Elec       q    Type
REMARK                         _______ _______ _______ _____ _____    ______ ____
ROOT
ATOM      1  C   UNL     1       1.639   5.725  -6.375  0.00  0.00    +0.049 C 
ENDROOT
BRANCH   1   5
ATOM      2  C   UNL     1      -0.683   6.194  -2.115  0.00  0.00    +0.031 C 
ATOM      3  C   UNL     1      -0.788   6.015  -3.445  0.00  0.00    -0.022 A 
ATOM      4  C   UNL     1       0.338   5.984  -4.220  0.00  0.00    -0.005 A 
ATOM      5  C   UNL     1       0.362   5.322  -5.437  0.00  0.00    +0.020 A 
ATOM      6  C   UNL     1      -0.825   5.377  -6.160  0.00  0.00    +0.192 A 
ATOM      7  O   UNL     1      -0.877   5.742  -7.504  0.00  0.00    -0.287 OA
ATOM      8  C   UNL     1      -2.002   5.388  -5.419  0.00  0.00    +0.041 A 
ATOM      9  C   UNL     1      -1.963   5.579  -4.044  0.00  0.00    -0.001 A 
ENDBRANCH   1   5
BRANCH   1  10
ATOM     10  C   UNL     1       2.629   5.928  -5.083  0.00  0.00    -0.018 A 
ATOM     11  C   UNL     1       3.398   7.061  -5.356  0.00  0.00    -0.004 A 
ATOM     12  C   UNL     1       4.494   7.349  -4.551  0.00  0.00    -0.000 A 
ATOM     13  C   UNL     1       5.131   6.270  -3.953  0.00  0.00    -0.000 A 
ATOM     14  C   UNL     1       4.651   4.988  -4.191  0.00  0.00    -0.000 A 
ATOM     15  C   UNL     1       3.443   4.819  -4.858  0.00  0.00    -0.004 A 
ENDBRANCH   1  10
BRANCH   1  16
ATOM     16  C   UNL     1       2.070   4.120  -6.528  0.00  0.00    +0.026 C 
BRANCH  16  17
ATOM     17  C   UNL     1       2.155   3.901  -8.014  0.00  0.00    +0.073 C 
BRANCH  17  18
ATOM     18  N   UNL     1       2.771   5.020  -8.671  0.00  0.00    -0.275 NA
BRANCH  18  19
ATOM     19  C   UNL     1       4.140   4.621  -8.989  0.00  0.00    +0.058 C 
ATOM     20  C   UNL     1       4.470   5.097 -10.400  0.00  0.00    +0.017 C 
ATOM     21  C   UNL     1       5.094   5.363  -8.070  0.00  0.00    +0.017 C 
ENDBRANCH  18  19
BRANCH  18  22
ATOM     22  C   UNL     1       2.090   5.453  -9.860  0.00  0.00    +0.058 C 
ATOM     23  C   UNL     1       0.918   4.529 -10.159  0.00  0.00    +0.017 C 
ATOM     24  C   UNL     1       1.504   6.847  -9.673  0.00  0.00    +0.017 C 
ENDBRANCH  18  22
ENDBRANCH  17  18
ENDBRANCH  16  17
ENDBRANCH   1  16
TORSDOF 7
ENDMDL
MODEL 3
REMARK VINA RESULT:      -7.2      2.205      6.160
REMARK  Name = 
REMARK  7 active torsions:
REMARK  status: ('A' for Active; 'I' for Inactive)
REMARK    1  A    between atoms: C_7  and  C_8
REMARK    2  A    between atoms: C_8  and  C_9
REMARK    3  A    between atoms: C_8  and  C_18
REMARK    4  A    between atoms: C_9  and  C_10
REMARK    5  A    between atoms: C_10  and  N_11
REMARK    6  A    between atoms: N_11  and  C_12
REMARK    7  A    between atoms: N_11  and  C_15
REMARK                            x       y       z     vdW  Elec       q    Type
REMARK                         _______ _______ _______ _____ _____    ______ ____
ROOT
ATOM      1  C   UNL     1       0.226   6.562  -5.831  0.00  0.00    +0.049 C 
ENDROOT
BRANCH   1   5
ATOM      2  C   UNL     1      -0.613   5.615  -1.124  0.00  0.00    +0.031 C 
ATOM      3  C   UNL     1      -1.131   5.751  -2.358  0.00  0.00    -0.022 A 
ATOM      4  C   UNL     1      -0.319   6.084  -3.407  0.00  0.00    -0.005 A 
ATOM      5  C   UNL     1      -0.646   5.750  -4.711  0.00  0.00    +0.020 A 
ATOM      6  C   UNL     1      -2.005   5.796  -5.007  0.00  0.00    +0.192 A 
ATOM      7  O   UNL     1      -2.516   6.465  -6.118  0.00  0.00    -0.287 OA
ATOM      8  C   UNL     1      -2.874   5.443  -3.982  0.00  0.00    +0.041 A 
ATOM      9  C   UNL     1      -2.404   5.297  -2.682  0.00  0.00    -0.001 A 
ENDBRANCH   1   5
BRANCH   1  10
ATOM     10  C   UNL     1       1.643   6.263  -5.064  0.00  0.00    -0.018 A 
ATOM     11  C   UNL     1       2.589   7.106  -5.651  0.00  0.00    -0.004 A 
ATOM     12  C   UNL     1       3.937   6.914  -5.374  0.00  0.00    -0.000 A 
ATOM     13  C   UNL     1       4.334   5.619  -5.068  0.00  0.00    -0.000 A 
ATOM     14  C   UNL     1       3.382   4.606  -5.062  0.00  0.00    -0.000 A 
ATOM     15  C   UNL     1       2.035   4.929  -5.171  0.00  0.00    -0.004 A 
ENDBRANCH   1  10
BRANCH   1  16
ATOM     16  C   UNL     1       0.369   5.184  -6.761  0.00  0.00    +0.026 C 
BRANCH  16  17
ATOM     17  C   UNL     1       0.265   5.681  -8.177  0.00  0.00    +0.073 C 
BRANCH  17  18
ATOM     18  N   UNL     1       1.245   5.055  -9.021  0.00  0.00    -0.275 NA
BRANCH  18  19
ATOM     19  C   UNL     1       0.968   5.494 -10.387  0.00  0.00    +0.058 C 
ATOM     20  C   UNL     1       0.335   4.337 -11.152  0.00  0.00    +0.017 C 
ATOM     21  C   UNL     1      -0.085   6.587 -10.348  0.00  0.00    +0.017 C 
ENDBRANCH  18  19
BRANCH  18  22
ATOM     22  C   UNL     1       2.605   5.356  -8.668  0.00  0.00    +0.058 C 
ATOM     23  C   UNL     1       3.475   4.118  -8.830  0.00  0.00    +0.017 C 
ATOM     24  C   UNL     1       3.185   6.417  -9.594  0.00  0.00    +0.017 C 
ENDBRANCH  18  22
ENDBRANCH  17  18
ENDBRANCH  16  17
ENDBRANCH   1  16
TORSDOF 7
ENDMDL
MODEL 4
REMARK VINA RESULT:      -7.2      2.702      7.356
REMARK  Name = 
REMARK  7 active torsions:
REMARK  status: ('A' for Active; 'I' for Inactive)
REMARK    1  A    between atoms: C_7  and  C_8
REMARK    2  A    between atoms: C_8  and  C_9
REMARK    3  A    between atoms: C_8  and  C_18
REMARK    4  A    between atoms: C_9  and  C_10
REMARK    5  A    between atoms: C_10  and  N_11
REMARK    6  A    between atoms: N_11  and  C_12
REMARK    7  A    between atoms: N_11  and  C_15
REMARK                            x       y       z     vdW  Elec       q    Type
REMARK                         _______ _______ _______ _____ _____    ______ ____
ROOT
ATOM      1  C   UNL     1       2.743   5.277  -8.469  0.00  0.00    +0.049 C 
ENDROOT
BRANCH   1   5
ATOM      2  C   UNL     1      -0.492   6.851  -5.180  0.00  0.00    +0.031 C 
ATOM      3  C   UNL     1       0.796   6.571  -5.454  0.00  0.00    -0.022 A 
ATOM      4  C   UNL     1       1.142   6.081  -6.683  0.00  0.00    -0.005 A 
ATOM      5  C   UNL     1       2.416   6.253  -7.198  0.00  0.00    +0.020 A 
ATOM      6  C   UNL     1       3.442   6.209  -6.259  0.00  0.00    +0.192 A 
ATOM      7  O   UNL     1       4.577   5.417  -6.415  0.00  0.00    -0.287 OA
ATOM      8  C   UNL     1       3.149   6.717  -4.998  0.00  0.00    +0.041 A 
ATOM      9  C   UNL     1       1.838   7.016  -4.650  0.00  0.00    -0.001 A 
ENDBRANCH   1   5
BRANCH   1  10
ATOM     10  C   UNL     1       1.281   5.552  -9.161  0.00  0.00    -0.018 A 
ATOM     11  C   UNL     1       1.076   4.507 -10.064  0.00  0.00    -0.004 A 
ATOM     12  C   UNL     1       0.029   4.591 -10.974  0.00  0.00    -0.000 A 
ATOM     13  C   UNL     1      -0.356   5.866 -11.369  0.00  0.00    -0.000 A 
ATOM     14  C   UNL     1       0.317   6.964 -10.847  0.00  0.00    -0.000 A 
ATOM     15  C   UNL     1       1.222   6.785  -9.808  0.00  0.00    -0.004 A 
ENDBRANCH   1  10
BRANCH   1  16
ATOM     16  C   UNL     1       3.441   6.546  -9.300  0.00  0.00    +0.026 C 
BRANCH  16  17
ATOM     17  C   UNL     1       4.696   5.958  -9.885  0.00  0.00    +0.073 C 
BRANCH  17  18
ATOM     18  N   UNL     1       4.895   6.398 -11.238  0.00  0.00    -0.275 NA
BRANCH  18  19
ATOM     19  C   UNL     1       6.314   6.721 -11.373  0.00  0.00    +0.058 C 
ATOM     20  C   UNL     1       6.469   8.237 -11.386  0.00  0.00    +0.017 C 
ATOM     21  C   UNL     1       7.047   6.242 -10.132  0.00  0.00    +0.017 C 
ENDBRANCH  18  19
BRANCH  18  22
ATOM     22  C   UNL     1       4.507   5.436 -12.233  0.00  0.00    +0.058 C 
ATOM     23  C   UNL     1       3.185   5.843 -12.868  0.00  0.00    +0.017 C 
ATOM     24  C   UNL     1       5.529   5.378 -13.361  0.00  0.00    +0.017 C 
ENDBRANCH  18  22
ENDBRANCH  17  18
ENDBRANCH  16  17
ENDBRANCH   1  16
TORSDOF 7
ENDMDL
MODEL 5
REMARK VINA RESULT:      -7.1      2.500      6.213
REMARK  Name = 
REMARK  7 active torsions:
REMARK  status: ('A' for Active; 'I' for Inactive)
REMARK    1  A    between atoms: C_7  and  C_8
REMARK    2  A    between atoms: C_8  and  C_9
REMARK    3  A    between atoms: C_8  and  C_18
REMARK    4  A    between atoms: C_9  and  C_10
REMARK    5  A    between atoms: C_10  and  N_11
REMARK    6  A    between atoms: N_11  and  C_12
REMARK    7  A    between atoms: N_11  and  C_15
REMARK                            x       y       z     vdW  Elec       q    Type
REMARK                         _______ _______ _______ _____ _____    ______ ____
ROOT
ATOM      1  C   UNL     1       1.338   5.231  -4.057  0.00  0.00    +0.049 C 
ENDROOT
BRANCH   1   5
ATOM      2  C   UNL     1      -2.862   5.920  -6.432  0.00  0.00    +0.031 C 
ATOM      3  C   UNL     1      -2.257   5.674  -5.256  0.00  0.00    -0.022 A 
ATOM      4  C   UNL     1      -0.896   5.550  -5.200  0.00  0.00    -0.005 A 
ATOM      5  C   UNL     1      -0.193   5.805  -4.034  0.00  0.00    +0.020 A 
ATOM      6  C   UNL     1      -0.845   5.441  -2.861  0.00  0.00    +0.192 A 
ATOM      7  O   UNL     1      -0.241   4.678  -1.864  0.00  0.00    -0.287 OA
ATOM      8  C   UNL     1      -2.229   5.571  -2.856  0.00  0.00    +0.041 A 
ATOM      9  C   UNL     1      -2.915   5.815  -4.040  0.00  0.00    -0.001 A 
ENDBRANCH   1   5
BRANCH   1  10
ATOM     10  C   UNL     1       1.539   5.593  -5.643  0.00  0.00    -0.018 A 
ATOM     11  C   UNL     1       2.365   4.598  -6.169  0.00  0.00    -0.004 A 
ATOM     12  C   UNL     1       2.906   4.763  -7.438  0.00  0.00    -0.000 A 
ATOM     13  C   UNL     1       3.127   6.067  -7.859  0.00  0.00    -0.000 A 
ATOM     14  C   UNL     1       2.806   7.115  -7.003  0.00  0.00    -0.000 A 
ATOM     15  C   UNL     1       2.101   6.855  -5.834  0.00  0.00    -0.004 A 
ENDBRANCH   1  10
BRANCH   1  16
ATOM     16  C   UNL     1       1.933   6.716  -3.581  0.00  0.00    +0.026 C 
BRANCH  16  17
ATOM     17  C   UNL     1       2.947   6.385  -2.520  0.00  0.00    +0.073 C 
BRANCH  17  18
ATOM     18  N   UNL     1       4.033   7.325  -2.526  0.00  0.00    -0.275 NA
BRANCH  18  19
ATOM     19  C   UNL     1       4.378   7.582  -1.130  0.00  0.00    +0.058 C 
ATOM     20  C   UNL     1       3.544   8.756  -0.630  0.00  0.00    +0.017 C 
ATOM     21  C   UNL     1       3.955   6.389  -0.292  0.00  0.00    +0.017 C 
ENDBRANCH  18  19
BRANCH  18  22
ATOM     22  C   UNL     1       5.192   6.881  -3.252  0.00  0.00    +0.058 C 
ATOM     23  C   UNL     1       4.980   5.462  -3.760  0.00  0.00    +0.017 C 
ATOM     24  C   UNL     1       5.430   7.750  -4.480  0.00  0.00    +0.017 C 
ENDBRANCH  18  22
ENDBRANCH  17  18
ENDBRANCH  16  17
ENDBRANCH   1  16
TORSDOF 7
ENDMDL
MODEL 6
REMARK VINA RESULT:      -7.1      2.481      6.024
REMARK  Name = 
REMARK  7 active torsions:
REMARK  status: ('A' for Active; 'I' for Inactive)
REMARK    1  A    between atoms: C_7  and  C_8
REMARK    2  A    between atoms: C_8  and  C_9
REMARK    3  A    between atoms: C_8  and  C_18
REMARK    4  A    between atoms: C_9  and  C_10
REMARK    5  A    between atoms: C_10  and  N_11
REMARK    6  A    between atoms: N_11  and  C_12
REMARK    7  A    between atoms: N_11  and  C_15
REMARK                            x       y       z     vdW  Elec       q    Type
REMARK                         _______ _______ _______ _____ _____    ______ ____
ROOT
ATOM      1  C   UNL     1       1.524   5.502  -4.159  0.00  0.00    +0.049 C 
ENDROOT
BRANCH   1   5
ATOM      2  C   UNL     1      -2.788   5.914  -6.394  0.00  0.00    +0.031 C 
ATOM      3  C   UNL     1      -2.130   5.658  -5.248  0.00  0.00    -0.022 A 
ATOM      4  C   UNL     1      -0.762   5.666  -5.231  0.00  0.00    -0.005 A 
ATOM      5  C   UNL     1      -0.054   5.920  -4.067  0.00  0.00    +0.020 A 
ATOM      6  C   UNL     1      -0.635   5.423  -2.905  0.00  0.00    +0.192 A 
ATOM      7  O   UNL     1       0.068   4.665  -1.971  0.00  0.00    -0.287 OA
ATOM      8  C   UNL     1      -2.025   5.415  -2.861  0.00  0.00    +0.041 A 
ATOM      9  C   UNL     1      -2.764   5.661  -4.012  0.00  0.00    -0.001 A 
ENDBRANCH   1   5
BRANCH   1  10
ATOM     10  C   UNL     1       1.473   5.347  -5.791  0.00  0.00    -0.018 A 
ATOM     11  C   UNL     1       2.008   4.090  -6.080  0.00  0.00    -0.004 A 
ATOM     12  C   UNL     1       2.315   3.768  -7.396  0.00  0.00    -0.000 A 
ATOM     13  C   UNL     1       2.663   4.820  -8.233  0.00  0.00    -0.000 A 
ATOM     14  C   UNL     1       2.688   6.111  -7.716  0.00  0.00    -0.000 A 
ATOM     15  C   UNL     1       2.188   6.351  -6.442  0.00  0.00    -0.004 A 
ENDBRANCH   1  10
BRANCH   1  16
ATOM     16  C   UNL     1       1.973   7.106  -4.265  0.00  0.00    +0.026 C 
BRANCH  16  17
ATOM     17  C   UNL     1       2.985   7.280  -3.165  0.00  0.00    +0.073 C 
BRANCH  17  18
ATOM     18  N   UNL     1       3.641   6.039  -2.862  0.00  0.00    -0.275 NA
BRANCH  18  19
ATOM     19  C   UNL     1       4.963   6.096  -3.482  0.00  0.00    +0.058 C 
ATOM     20  C   UNL     1       5.061   4.987  -4.523  0.00  0.00    +0.017 C 
ATOM     21  C   UNL     1       5.087   7.398  -4.253  0.00  0.00    +0.017 C 
ENDBRANCH  18  19
BRANCH  18  22
ATOM     22  C   UNL     1       3.762   5.765  -1.456  0.00  0.00    +0.058 C 
ATOM     23  C   UNL     1       2.716   6.550  -0.677  0.00  0.00    +0.017 C 
ATOM     24  C   UNL     1       3.505   4.293  -1.164  0.00  0.00    +0.017 C 
ENDBRANCH  18  22
ENDBRANCH  17  18
ENDBRANCH  16  17
ENDBRANCH   1  16
TORSDOF 7
ENDMDL
MODEL 7
REMARK VINA RESULT:      -7.0      2.044      4.643
REMARK  Name = 
REMARK  7 active torsions:
REMARK  status: ('A' for Active; 'I' for Inactive)
REMARK    1  A    between atoms: C_7  and  C_8
REMARK    2  A    between atoms: C_8  and  C_9
REMARK    3  A    between atoms: C_8  and  C_18
REMARK    4  A    between atoms: C_9  and  C_10
REMARK    5  A    between atoms: C_10  and  N_11
REMARK    6  A    between atoms: N_11  and  C_12
REMARK    7  A    between atoms: N_11  and  C_15
REMARK                            x       y       z     vdW  Elec       q    Type
REMARK                         _______ _______ _______ _____ _____    ______ ____
ROOT
ATOM      1  C   UNL     1       3.068   5.647  -9.141  0.00  0.00    +0.049 C 
ENDROOT
BRANCH   1   5
ATOM      2  C   UNL     1       2.090   6.135 -13.892  0.00  0.00    +0.031 C 
ATOM      3  C   UNL     1       1.606   6.104 -12.637  0.00  0.00    -0.022 A 
ATOM      4  C   UNL     1       2.452   5.886 -11.584  0.00  0.00    -0.005 A 
ATOM      5  C   UNL     1       2.149   6.333 -10.308  0.00  0.00    +0.020 A 
ATOM      6  C   UNL     1       0.800   6.286  -9.972  0.00  0.00    +0.192 A 
ATOM      7  O   UNL     1       0.333   5.713  -8.791  0.00  0.00    -0.287 OA
ATOM      8  C   UNL     1      -0.103   6.524 -11.002  0.00  0.00    +0.041 A 
ATOM      9  C   UNL     1       0.331   6.559 -12.322  0.00  0.00    -0.001 A 
ENDBRANCH   1   5
BRANCH   1  10
ATOM     10  C   UNL     1       4.443   5.795 -10.022  0.00  0.00    -0.018 A 
ATOM     11  C   UNL     1       5.490   5.432  -9.173  0.00  0.00    -0.004 A 
ATOM     12  C   UNL     1       6.800   5.683  -9.563  0.00  0.00    -0.000 A 
ATOM     13  C   UNL     1       7.005   6.768 -10.405  0.00  0.00    -0.000 A 
ATOM     14  C   UNL     1       5.911   7.530 -10.801  0.00  0.00    -0.000 A 
ATOM     15  C   UNL     1       4.626   7.089 -10.508  0.00  0.00    -0.004 A 
ENDBRANCH   1  10
BRANCH   1  16
ATOM     16  C   UNL     1       3.302   7.130  -8.413  0.00  0.00    +0.026 C 
BRANCH  16  17
ATOM     17  C   UNL     1       2.823   6.929  -7.002  0.00  0.00    +0.073 C 
BRANCH  17  18
ATOM     18  N   UNL     1       3.323   5.700  -6.453  0.00  0.00    -0.275 NA
BRANCH  18  19
ATOM     19  C   UNL     1       4.497   6.041  -5.653  0.00  0.00    +0.058 C 
ATOM     20  C   UNL     1       4.218   7.342  -4.909  0.00  0.00    +0.017 C 
ATOM     21  C   UNL     1       4.683   4.984  -4.579  0.00  0.00    +0.017 C 
ENDBRANCH  18  19
BRANCH  18  22
ATOM     22  C   UNL     1       2.369   4.980  -5.655  0.00  0.00    +0.058 C 
ATOM     23  C   UNL     1       1.122   5.826  -5.438  0.00  0.00    +0.017 C 
ATOM     24  C   UNL     1       1.913   3.711  -6.364  0.00  0.00    +0.017 C 
ENDBRANCH  18  22
ENDBRANCH  17  18
ENDBRANCH  16  17
ENDBRANCH   1  16
TORSDOF 7
ENDMDL
MODEL 8
REMARK VINA RESULT:      -7.0      0.992      2.057
REMARK  Name = 
REMARK  7 active torsions:
REMARK  status: ('A' for Active; 'I' for Inactive)
REMARK    1  A    between atoms: C_7  and  C_8
REMARK    2  A    between atoms: C_8  and  C_9
REMARK    3  A    between atoms: C_8  and  C_18
REMARK    4  A    between atoms: C_9  and  C_10
REMARK    5  A    between atoms: C_10  and  N_11
REMARK    6  A    between atoms: N_11  and  C_12
REMARK    7  A    between atoms: N_11  and  C_15
REMARK                            x       y       z     vdW  Elec       q    Type
REMARK                         _______ _______ _______ _____ _____    ______ ____
ROOT
ATOM      1  C   UNL     1       2.985   5.554  -7.113  0.00  0.00    +0.049 C 
ENDROOT
BRANCH   1   5
ATOM      2  C   UNL     1       7.403   5.797  -9.156  0.00  0.00    +0.031 C 
ATOM      3  C   UNL     1       6.088   5.575  -9.333  0.00  0.00    -0.022 A 
ATOM      4  C   UNL     1       5.236   5.629  -8.264  0.00  0.00    -0.005 A 
ATOM      5  C   UNL     1       3.891   5.918  -8.424  0.00  0.00    +0.020 A 
ATOM      6  C   UNL     1       3.315   5.413  -9.585  0.00  0.00    +0.192 A 
ATOM      7  O   UNL     1       2.124   4.689  -9.586  0.00  0.00    -0.287 OA
ATOM      8  C   UNL     1       4.131   5.358 -10.709  0.00  0.00    +0.041 A 
ATOM      9  C   UNL     1       5.500   5.568 -10.592  0.00  0.00    -0.001 A 
ENDBRANCH   1   5
BRANCH   1  10
ATOM     10  C   UNL     1       4.218   5.854  -6.075  0.00  0.00    -0.018 A 
ATOM     11  C   UNL     1       4.137   4.877  -5.080  0.00  0.00    -0.004 A 
ATOM     12  C   UNL     1       4.906   5.011  -3.930  0.00  0.00    -0.000 A 
ATOM     13  C   UNL     1       5.218   6.305  -3.534  0.00  0.00    -0.000 A 
ATOM     14  C   UNL     1       4.749   7.373  -4.291  0.00  0.00    -0.000 A 
ATOM     15  C   UNL     1       4.148   7.131  -5.520  0.00  0.00    -0.004 A 
ENDBRANCH   1  10
BRANCH   1  16
ATOM     16  C   UNL     1       2.440   7.128  -7.015  0.00  0.00    +0.026 C 
BRANCH  16  17
ATOM     17  C   UNL     1       0.942   6.999  -6.975  0.00  0.00    +0.073 C 
BRANCH  17  18
ATOM     18  N   UNL     1       0.542   5.771  -6.347  0.00  0.00    -0.275 NA
BRANCH  18  19
ATOM     19  C   UNL     1      -0.044   6.126  -5.057  0.00  0.00    +0.058 C 
ATOM     20  C   UNL     1       0.982   5.852  -3.963  0.00  0.00    +0.017 C 
ATOM     21  C   UNL     1      -0.289   7.624  -5.025  0.00  0.00    +0.017 C 
ENDBRANCH  18  19
BRANCH  18  22
ATOM     22  C   UNL     1      -0.387   4.990  -7.117  0.00  0.00    +0.058 C 
ATOM     23  C   UNL     1      -1.782   5.095  -6.519  0.00  0.00    +0.017 C 
ATOM     24  C   UNL     1      -0.487   5.516  -8.543  0.00  0.00    +0.017 C 
ENDBRANCH  18  22
ENDBRANCH  17  18
ENDBRANCH  16  17
ENDBRANCH   1  16
TORSDOF 7
ENDMDL
MODEL 9
REMARK VINA RESULT:      -6.9      2.068      5.044
REMARK  Name = 
REMARK  7 active torsions:
REMARK  status: ('A' for Active; 'I' for Inactive)
REMARK    1  A    between atoms: C_7  and  C_8
REMARK    2  A    between atoms: C_8  and  C_9
REMARK    3  A    between atoms: C_8  and  C_18
REMARK    4  A    between atoms: C_9  and  C_10
REMARK    5  A    between atoms: C_10  and  N_11
REMARK    6  A    between atoms: N_11  and  C_12
REMARK    7  A    between atoms: N_11  and  C_15
REMARK                            x       y       z     vdW  Elec       q    Type
REMARK                         _______ _______ _______ _____ _____    ______ ____
ROOT
ATOM      1  C   UNL     1       4.167   5.151  -9.822  0.00  0.00    +0.049 C 
ENDROOT
BRANCH   1   5
ATOM      2  C   UNL     1       0.974   6.805 -13.112  0.00  0.00    +0.031 C 
ATOM      3  C   UNL     1       1.183   6.031 -12.032  0.00  0.00    -0.022 A 
ATOM      4  C   UNL     1       2.438   5.930 -11.497  0.00  0.00    -0.005 A 
ATOM      5  C   UNL     1       2.633   5.602 -10.165  0.00  0.00    +0.020 A 
ATOM      6  C   UNL     1       1.717   4.695  -9.642  0.00  0.00    +0.192 A 
ATOM      7  O   UNL     1       2.099   3.558  -8.932  0.00  0.00    -0.287 OA
ATOM      8  C   UNL     1       0.420   4.770 -10.135  0.00  0.00    +0.041 A 
ATOM      9  C   UNL     1       0.139   5.544 -11.255  0.00  0.00    -0.001 A 
ENDBRANCH   1   5
BRANCH   1  10
ATOM     10  C   UNL     1       4.793   6.059 -11.036  0.00  0.00    -0.018 A 
ATOM     11  C   UNL     1       5.832   5.307 -11.589  0.00  0.00    -0.004 A 
ATOM     12  C   UNL     1       6.706   5.911 -12.484  0.00  0.00    -0.000 A 
ATOM     13  C   UNL     1       6.913   7.276 -12.333  0.00  0.00    -0.000 A 
ATOM     14  C   UNL     1       6.250   7.948 -11.312  0.00  0.00    -0.000 A 
ATOM     15  C   UNL     1       5.260   7.294 -10.589  0.00  0.00    -0.004 A 
ENDBRANCH   1  10
BRANCH   1  16
ATOM     16  C   UNL     1       4.321   6.401  -8.727  0.00  0.00    +0.026 C 
BRANCH  16  17
ATOM     17  C   UNL     1       4.210   5.731  -7.384  0.00  0.00    +0.073 C 
BRANCH  17  18
ATOM     18  N   UNL     1       3.622   6.610  -6.412  0.00  0.00    -0.275 NA
BRANCH  18  19
ATOM     19  C   UNL     1       2.173   6.471  -6.538  0.00  0.00    +0.058 C 
ATOM     20  C   UNL     1       1.549   6.608  -5.153  0.00  0.00    +0.017 C 
ATOM     21  C   UNL     1       1.636   7.637  -7.349  0.00  0.00    +0.017 C 
ENDBRANCH  18  19
BRANCH  18  22
ATOM     22  C   UNL     1       4.032   6.350  -5.059  0.00  0.00    +0.058 C 
ATOM     23  C   UNL     1       4.710   4.990  -4.970  0.00  0.00    +0.017 C 
ATOM     24  C   UNL     1       5.056   7.377  -4.595  0.00  0.00    +0.017 C 
ENDBRANCH  18  22
ENDBRANCH  17  18
ENDBRANCH  16  17
ENDBRANCH   1  16
TORSDOF 7
ENDMDL
