MODEL 1
REMARK VINA RESULT:      -6.3      0.000      0.000
REMARK  Name = 
REMARK  3 active torsions:
REMARK  status: ('A' for Active; 'I' for Inactive)
REMARK    1  A    between atoms: N_4  and  C_5
REMARK    2  A    between atoms: C_8  and  N_9
REMARK    3  A    between atoms: C_15  and  C_16
REMARK                            x       y       z     vdW  Elec       q    Type
REMARK                         _______ _______ _______ _____ _____    ______ ____
ROOT
ATOM      1  C   UNL     1       2.327   5.758  -3.910  0.00  0.00    +0.085 A 
ATOM      2  C   UNL     1       1.341   5.669  -2.935  0.00  0.00    +0.053 A 
ATOM      3  I   UNL     1       1.890   4.740  -1.115  0.00  0.00    -0.041 I 
ATOM      4  C   UNL     1       0.051   6.126  -3.148  0.00  0.00    +0.093 A 
ATOM      5  C   UNL     1      -0.194   6.738  -4.369  0.00  0.00    +0.053 A 
ATOM      6  I   UNL     1      -1.946   7.858  -4.576  0.00  0.00    -0.041 I 
ATOM      7  C   UNL     1       0.697   6.584  -5.422  0.00  0.00    +0.085 A 
ATOM      8  C   UNL     1       1.992   6.208  -5.182  0.00  0.00    +0.061 A 
ATOM      9  I   UNL     1       3.219   5.632  -6.772  0.00  0.00    -0.040 I 
ENDROOT
BRANCH   1  12
ATOM     10  C   UNL     1       5.677   7.447  -3.904  0.00  0.00    +0.097 C 
ATOM     11  C   UNL     1       4.262   7.209  -3.503  0.00  0.00    +0.246 C 
ATOM     12  N   UNL     1       3.709   5.904  -3.557  0.00  0.00    -0.178 NA
ATOM     13  O   UNL     1       3.581   8.068  -2.868  0.00  0.00    -0.273 OA
ENDBRANCH   1  12
BRANCH   7  14
ATOM     14  N   UNL     1       0.145   6.715  -6.739  0.00  0.00    -0.178 NA
ATOM     15  C   UNL     1      -0.406   5.596  -7.435  0.00  0.00    +0.246 C 
ATOM     16  O   UNL     1      -1.051   4.777  -6.714  0.00  0.00    -0.273 OA
ATOM     17  C   UNL     1      -0.037   5.282  -8.851  0.00  0.00    +0.097 C 
ENDBRANCH   7  14
BRANCH   4  18
ATOM     18  C   UNL     1      -1.003   5.830  -2.187  0.00  0.00    +0.389 C 
ATOM     19  O   UNL     1      -1.921   4.800  -2.377  0.00  0.00    -0.241 OA
ATOM     20  O   UNL     1      -1.234   6.591  -1.208  0.00  0.00    -0.241 OA
ENDBRANCH   4  18
TORSDOF 3
ENDMDL
MODEL 2
REMARK VINA RESULT:      -6.3      1.958      4.603
REMARK  Name = 
REMARK  3 active torsions:
REMARK  status: ('A' for Active; 'I' for Inactive)
REMARK    1  A    between atoms: N_4  and  C_5
REMARK    2  A    between atoms: C_8  and  N_9
REMARK    3  A    between atoms: C_15  and  C_16
REMARK                            x       y       z     vdW  Elec       q    Type
REMARK                         _______ _______ _______ _____ _____    ______ ____
ROOT
ATOM      1  C   UNL     1       0.845   5.828  -5.765  0.00  0.00    +0.085 A 
ATOM      2  C   UNL     1      -0.367   5.751  -5.090  0.00  0.00    +0.053 A 
ATOM      3  I   UNL     1      -2.110   5.637  -6.283  0.00  0.00    -0.041 I 
ATOM      4  C   UNL     1      -0.445   5.786  -3.708  0.00  0.00    +0.093 A 
ATOM      5  C   UNL     1       0.761   5.840  -3.022  0.00  0.00    +0.053 A 
ATOM      6  I   UNL     1       0.751   5.419  -0.976  0.00  0.00    -0.041 I 
ATOM      7  C   UNL     1       1.930   6.186  -3.686  0.00  0.00    +0.085 A 
ATOM      8  C   UNL     1       2.012   6.068  -5.048  0.00  0.00    +0.061 A 
ATOM      9  I   UNL     1       3.623   6.919  -6.070  0.00  0.00    -0.040 I 
ENDROOT
BRANCH   1  12
ATOM     10  C   UNL     1       2.749   3.891  -8.352  0.00  0.00    +0.097 C 
ATOM     11  C   UNL     1       1.938   4.102  -7.120  0.00  0.00    +0.246 C 
ATOM     12  N   UNL     1       1.030   5.188  -7.034  0.00  0.00    -0.178 NA
ATOM     13  O   UNL     1       1.820   3.214  -6.224  0.00  0.00    -0.273 OA
ENDBRANCH   1  12
BRANCH   7  14
ATOM     14  N   UNL     1       2.959   6.777  -2.883  0.00  0.00    -0.178 NA
ATOM     15  C   UNL     1       3.976   5.985  -2.265  0.00  0.00    +0.246 C 
ATOM     16  O   UNL     1       4.395   5.010  -2.960  0.00  0.00    -0.273 OA
ATOM     17  C   UNL     1       4.333   6.137  -0.820  0.00  0.00    +0.097 C 
ENDBRANCH   7  14
BRANCH   4  18
ATOM     18  C   UNL     1      -1.736   5.911  -3.045  0.00  0.00    +0.389 C 
ATOM     19  O   UNL     1      -2.517   4.806  -2.715  0.00  0.00    -0.241 OA
ATOM     20  O   UNL     1      -2.283   7.035  -2.875  0.00  0.00    -0.241 OA
ENDBRANCH   4  18
TORSDOF 3
ENDMDL
MODEL 3
REMARK VINA RESULT:      -6.0      2.720      3.912
REMARK  Name = 
REMARK  3 active torsions:
REMARK  status: ('A' for Active; 'I' for Inactive)
REMARK    1  A    between atoms: N_4  and  C_5
REMARK    2  A    between atoms: C_8  and  N_9
REMARK    3  A    between atoms: C_15  and  C_16
REMARK                            x       y       z     vdW  Elec       q    Type
REMARK                         _______ _______ _______ _____ _____    ______ ____
ROOT
ATOM      1  C   UNL     1       1.661   5.648  -4.813  0.00  0.00    +0.085 A 
ATOM      2  C   UNL     1       2.293   5.492  -3.585  0.00  0.00    +0.053 A 
ATOM      3  I   UNL     1       4.369   5.086  -3.633  0.00  0.00    -0.041 I 
ATOM      4  C   UNL     1       1.602   5.558  -2.387  0.00  0.00    +0.093 A 
ATOM      5  C   UNL     1       0.248   5.851  -2.470  0.00  0.00    +0.053 A 
ATOM      6  I   UNL     1      -0.744   6.431  -0.724  0.00  0.00    -0.041 I 
ATOM      7  C   UNL     1      -0.421   5.738  -3.681  0.00  0.00    +0.085 A 
ATOM      8  C   UNL     1       0.275   5.755  -4.859  0.00  0.00    +0.061 A 
ATOM      9  I   UNL     1      -0.681   5.226  -6.640  0.00  0.00    -0.040 I 
ENDROOT
BRANCH   1  12
ATOM     10  C   UNL     1       4.398   5.830  -7.371  0.00  0.00    +0.097 C 
ATOM     11  C   UNL     1       3.138   5.340  -6.746  0.00  0.00    +0.246 C 
ATOM     12  N   UNL     1       2.353   6.203  -5.938  0.00  0.00    -0.178 NA
ATOM     13  O   UNL     1       2.580   4.258  -7.097  0.00  0.00    -0.273 OA
ENDBRANCH   1  12
BRANCH   7  14
ATOM     14  N   UNL     1      -1.829   5.479  -3.601  0.00  0.00    -0.178 NA
ATOM     15  C   UNL     1      -2.788   6.538  -3.615  0.00  0.00    +0.246 C 
ATOM     16  O   UNL     1      -2.510   7.505  -4.387  0.00  0.00    -0.273 OA
ATOM     17  C   UNL     1      -3.896   6.620  -2.613  0.00  0.00    +0.097 C 
ENDBRANCH   7  14
BRANCH   4  18
ATOM     18  C   UNL     1       2.254   5.187  -1.138  0.00  0.00    +0.389 C 
ATOM     19  O   UNL     1       3.044   6.076  -0.414  0.00  0.00    -0.241 OA
ATOM     20  O   UNL     1       2.263   3.993  -0.729  0.00  0.00    -0.241 OA
ENDBRANCH   4  18
TORSDOF 3
ENDMDL
MODEL 4
REMARK VINA RESULT:      -6.0      1.951      2.024
REMARK  Name = 
REMARK  3 active torsions:
REMARK  status: ('A' for Active; 'I' for Inactive)
REMARK    1  A    between atoms: N_4  and  C_5
REMARK    2  A    between atoms: C_8  and  N_9
REMARK    3  A    between atoms: C_15  and  C_16
REMARK                            x       y       z     vdW  Elec       q    Type
REMARK                         _______ _______ _______ _____ _____    ______ ____
ROOT
ATOM      1  C   UNL     1       1.676   6.118  -2.960  0.00  0.00    +0.085 A 
ATOM      2  C   UNL     1       0.394   6.170  -2.425  0.00  0.00    +0.053 A 
ATOM      3  I   UNL     1       0.252   6.422  -0.330  0.00  0.00    -0.041 I 
ATOM      4  C   UNL     1      -0.738   6.027  -3.210  0.00  0.00    +0.093 A 
ATOM      5  C   UNL     1      -0.530   5.889  -4.575  0.00  0.00    +0.053 A 
ATOM      6  I   UNL     1      -2.165   6.145  -5.851  0.00  0.00    -0.041 I 
ATOM      7  C   UNL     1       0.729   5.569  -5.064  0.00  0.00    +0.085 A 
ATOM      8  C   UNL     1       1.844   5.793  -4.302  0.00  0.00    +0.061 A 
ATOM      9  I   UNL     1       3.681   4.986  -4.884  0.00  0.00    -0.040 I 
ENDROOT
BRANCH   1  12
ATOM     10  C   UNL     1       3.964   7.156  -0.175  0.00  0.00    +0.097 C 
ATOM     11  C   UNL     1       3.439   6.286  -1.264  0.00  0.00    +0.246 C 
ATOM     12  N   UNL     1       2.756   6.852  -2.371  0.00  0.00    -0.178 NA
ATOM     13  O   UNL     1       3.786   5.074  -1.394  0.00  0.00    -0.273 OA
ENDBRANCH   1  12
BRANCH   7  14
ATOM     14  N   UNL     1       0.761   4.890  -6.326  0.00  0.00    -0.178 NA
ATOM     15  C   UNL     1       0.915   5.601  -7.556  0.00  0.00    +0.246 C 
ATOM     16  O   UNL     1       1.708   6.589  -7.511  0.00  0.00    -0.273 OA
ATOM     17  C   UNL     1       0.020   5.359  -8.731  0.00  0.00    +0.097 C 
ENDBRANCH   7  14
BRANCH   4  18
ATOM     18  C   UNL     1      -2.049   5.881  -2.592  0.00  0.00    +0.389 C 
ATOM     19  O   UNL     1      -2.667   4.643  -2.434  0.00  0.00    -0.241 OA
ATOM     20  O   UNL     1      -2.759   6.884  -2.309  0.00  0.00    -0.241 OA
ENDBRANCH   4  18
TORSDOF 3
ENDMDL
MODEL 5
REMARK VINA RESULT:      -5.8      2.657      4.302
REMARK  Name = 
REMARK  3 active torsions:
REMARK  status: ('A' for Active; 'I' for Inactive)
REMARK    1  A    between atoms: N_4  and  C_5
REMARK    2  A    between atoms: C_8  and  N_9
REMARK    3  A    between atoms: C_15  and  C_16
REMARK                            x       y       z     vdW  Elec       q    Type
REMARK                         _______ _______ _______ _____ _____    ______ ____
ROOT
ATOM      1  C   UNL     1       2.111   6.074  -3.276  0.00  0.00    +0.085 A 
ATOM      2  C   UNL     1       2.707   6.500  -4.457  0.00  0.00    +0.053 A 
ATOM      3  I   UNL     1       4.649   7.323  -4.296  0.00  0.00    -0.041 I 
ATOM      4  C   UNL     1       2.056   6.430  -5.677  0.00  0.00    +0.093 A 
ATOM      5  C   UNL     1       0.793   5.853  -5.672  0.00  0.00    +0.053 A 
ATOM      6  I   UNL     1      -0.038   5.285  -7.503  0.00  0.00    -0.041 I 
ATOM      7  C   UNL     1       0.105   5.683  -4.479  0.00  0.00    +0.085 A 
ATOM      8  C   UNL     1       0.779   5.675  -3.287  0.00  0.00    +0.061 A 
ATOM      9  I   UNL     1      -0.282   5.782  -1.491  0.00  0.00    -0.040 I 
ENDROOT
BRANCH   1  12
ATOM     10  C   UNL     1       4.737   6.209  -0.600  0.00  0.00    +0.097 C 
ATOM     11  C   UNL     1       3.409   6.452  -1.230  0.00  0.00    +0.246 C 
ATOM     12  N   UNL     1       2.895   5.550  -2.197  0.00  0.00    -0.178 NA
ATOM     13  O   UNL     1       2.581   7.292  -0.768  0.00  0.00    -0.273 OA
ENDBRANCH   1  12
BRANCH   7  14
ATOM     14  N   UNL     1      -1.325   5.648  -4.576  0.00  0.00    -0.178 NA
ATOM     15  C   UNL     1      -2.122   6.801  -4.300  0.00  0.00    +0.246 C 
ATOM     16  O   UNL     1      -1.631   7.903  -4.691  0.00  0.00    -0.273 OA
ATOM     17  C   UNL     1      -3.315   6.743  -3.397  0.00  0.00    +0.097 C 
ENDBRANCH   7  14
BRANCH   4  18
ATOM     18  C   UNL     1       2.625   7.073  -6.854  0.00  0.00    +0.389 C 
ATOM     19  O   UNL     1       2.108   8.251  -7.388  0.00  0.00    -0.241 OA
ATOM     20  O   UNL     1       3.521   6.511  -7.542  0.00  0.00    -0.241 OA
ENDBRANCH   4  18
TORSDOF 3
ENDMDL
MODEL 6
REMARK VINA RESULT:      -5.6      2.556      4.669
REMARK  Name = 
REMARK  3 active torsions:
REMARK  status: ('A' for Active; 'I' for Inactive)
REMARK    1  A    between atoms: N_4  and  C_5
REMARK    2  A    between atoms: C_8  and  N_9
REMARK    3  A    between atoms: C_15  and  C_16
REMARK                            x       y       z     vdW  Elec       q    Type
REMARK                         _______ _______ _______ _____ _____    ______ ____
ROOT
ATOM      1  C   UNL     1      -0.209   5.759  -3.798  0.00  0.00    +0.085 A 
ATOM      2  C   UNL     1       0.585   6.061  -2.698  0.00  0.00    +0.053 A 
ATOM      3  I   UNL     1      -0.413   6.789  -0.980  0.00  0.00    -0.041 I 
ATOM      4  C   UNL     1       1.963   5.934  -2.727  0.00  0.00    +0.093 A 
ATOM      5  C   UNL     1       2.512   5.427  -3.897  0.00  0.00    +0.053 A 
ATOM      6  I   UNL     1       4.494   4.767  -3.849  0.00  0.00    -0.041 I 
ATOM      7  C   UNL     1       1.761   5.386  -5.063  0.00  0.00    +0.085 A 
ATOM      8  C   UNL     1       0.394   5.432  -5.007  0.00  0.00    +0.061 A 
ATOM      9  I   UNL     1      -0.709   5.733  -6.756  0.00  0.00    -0.040 I 
ENDROOT
BRANCH   1  12
ATOM     10  C   UNL     1      -3.785   5.959  -2.680  0.00  0.00    +0.097 C 
ATOM     11  C   UNL     1      -2.605   6.221  -3.552  0.00  0.00    +0.246 C 
ATOM     12  N   UNL     1      -1.549   5.277  -3.636  0.00  0.00    -0.178 NA
ATOM     13  O   UNL     1      -2.598   7.133  -4.431  0.00  0.00    -0.273 OA
ENDBRANCH   1  12
BRANCH   7  14
ATOM     14  N   UNL     1       2.501   5.421  -6.290  0.00  0.00    -0.178 NA
ATOM     15  C   UNL     1       2.931   6.654  -6.871  0.00  0.00    +0.246 C 
ATOM     16  O   UNL     1       3.313   7.535  -6.043  0.00  0.00    -0.273 OA
ATOM     17  C   UNL     1       2.707   6.971  -8.317  0.00  0.00    +0.097 C 
ENDBRANCH   7  14
BRANCH   4  18
ATOM     18  C   UNL     1       2.775   6.453  -1.634  0.00  0.00    +0.389 C 
ATOM     19  O   UNL     1       3.006   5.730  -0.466  0.00  0.00    -0.241 OA
ATOM     20  O   UNL     1       3.181   7.647  -1.625  0.00  0.00    -0.241 OA
ENDBRANCH   4  18
TORSDOF 3
ENDMDL
MODEL 7
REMARK VINA RESULT:      -5.4      2.796      4.046
REMARK  Name = 
REMARK  3 active torsions:
REMARK  status: ('A' for Active; 'I' for Inactive)
REMARK    1  A    between atoms: N_4  and  C_5
REMARK    2  A    between atoms: C_8  and  N_9
REMARK    3  A    between atoms: C_15  and  C_16
REMARK                            x       y       z     vdW  Elec       q    Type
REMARK                         _______ _______ _______ _____ _____    ______ ____
ROOT
ATOM      1  C   UNL     1       1.042   6.652  -0.222  0.00  0.00    +0.085 A 
ATOM      2  C   UNL     1      -0.326   6.569  -0.452  0.00  0.00    +0.053 A 
ATOM      3  I   UNL     1      -1.577   6.608   1.253  0.00  0.00    -0.041 I 
ATOM      4  C   UNL     1      -0.852   6.428  -1.725  0.00  0.00    +0.093 A 
ATOM      5  C   UNL     1       0.057   6.436  -2.774  0.00  0.00    +0.053 A 
ATOM      6  I   UNL     1      -0.676   6.705  -4.712  0.00  0.00    -0.041 I 
ATOM      7  C   UNL     1       1.411   6.247  -2.530  0.00  0.00    +0.085 A 
ATOM      8  C   UNL     1       1.925   6.470  -1.281  0.00  0.00    +0.061 A 
ATOM      9  I   UNL     1       3.867   5.846  -0.830  0.00  0.00    -0.040 I 
ENDROOT
BRANCH   1  12
ATOM     10  C   UNL     1       2.749   9.562   1.419  0.00  0.00    +0.097 C 
ATOM     11  C   UNL     1       1.631   8.810   0.783  0.00  0.00    +0.246 C 
ATOM     12  N   UNL     1       1.565   7.396   0.886  0.00  0.00    -0.178 NA
ATOM     13  O   UNL     1       0.581   9.380   0.362  0.00  0.00    -0.273 OA
ENDBRANCH   1  12
BRANCH   7  14
ATOM     14  N   UNL     1       2.175   5.697  -3.611  0.00  0.00    -0.178 NA
ATOM     15  C   UNL     1       2.898   6.531  -4.518  0.00  0.00    +0.246 C 
ATOM     16  O   UNL     1       3.451   7.545  -3.994  0.00  0.00    -0.273 OA
ATOM     17  C   UNL     1       2.798   6.363  -6.002  0.00  0.00    +0.097 C 
ENDBRANCH   7  14
BRANCH   4  18
ATOM     18  C   UNL     1      -2.267   6.137  -1.910  0.00  0.00    +0.389 C 
ATOM     19  O   UNL     1      -2.746   4.843  -2.103  0.00  0.00    -0.241 OA
ATOM     20  O   UNL     1      -3.115   7.059  -2.059  0.00  0.00    -0.241 OA
ENDBRANCH   4  18
TORSDOF 3
ENDMDL
MODEL 8
REMARK VINA RESULT:      -5.3      2.832      6.081
REMARK  Name = 
REMARK  3 active torsions:
REMARK  status: ('A' for Active; 'I' for Inactive)
REMARK    1  A    between atoms: N_4  and  C_5
REMARK    2  A    between atoms: C_8  and  N_9
REMARK    3  A    between atoms: C_15  and  C_16
REMARK                            x       y       z     vdW  Elec       q    Type
REMARK                         _______ _______ _______ _____ _____    ______ ____
ROOT
ATOM      1  C   UNL     1       0.163   5.663  -3.557  0.00  0.00    +0.085 A 
ATOM      2  C   UNL     1       1.446   5.491  -4.062  0.00  0.00    +0.053 A 
ATOM      3  I   UNL     1       1.600   4.567  -5.959  0.00  0.00    -0.041 I 
ATOM      4  C   UNL     1       2.574   5.865  -3.352  0.00  0.00    +0.093 A 
ATOM      5  C   UNL     1       2.357   6.482  -2.128  0.00  0.00    +0.053 A 
ATOM      6  I   UNL     1       3.956   7.487  -1.234  0.00  0.00    -0.041 I 
ATOM      7  C   UNL     1       1.114   6.407  -1.515  0.00  0.00    +0.085 A 
ATOM      8  C   UNL     1      -0.003   6.114  -2.252  0.00  0.00    +0.061 A 
ATOM      9  I   UNL     1      -1.795   5.649  -1.284  0.00  0.00    -0.040 I 
ENDROOT
BRANCH   1  12
ATOM     10  C   UNL     1      -2.639   7.672  -5.037  0.00  0.00    +0.097 C 
ATOM     11  C   UNL     1      -1.232   7.223  -4.835  0.00  0.00    +0.246 C 
ATOM     12  N   UNL     1      -0.953   5.894  -4.427  0.00  0.00    -0.178 NA
ATOM     13  O   UNL     1      -0.239   7.890  -5.252  0.00  0.00    -0.273 OA
ENDBRANCH   1  12
BRANCH   7  14
ATOM     14  N   UNL     1       1.107   6.526  -0.087  0.00  0.00    -0.178 NA
ATOM     15  C   UNL     1       0.837   7.770   0.560  0.00  0.00    +0.246 C 
ATOM     16  O   UNL     1      -0.052   8.485   0.005  0.00  0.00    -0.273 OA
ATOM     17  C   UNL     1       1.709   8.302   1.654  0.00  0.00    +0.097 C 
ENDBRANCH   7  14
BRANCH   4  18
ATOM     18  C   UNL     1       3.900   5.482  -3.819  0.00  0.00    +0.389 C 
ATOM     19  O   UNL     1       4.610   6.235  -4.751  0.00  0.00    -0.241 OA
ATOM     20  O   UNL     1       4.407   4.367  -3.520  0.00  0.00    -0.241 OA
ENDBRANCH   4  18
TORSDOF 3
ENDMDL
MODEL 9
REMARK VINA RESULT:      -5.3      1.689      4.379
REMARK  Name = 
REMARK  3 active torsions:
REMARK  status: ('A' for Active; 'I' for Inactive)
REMARK    1  A    between atoms: N_4  and  C_5
REMARK    2  A    between atoms: C_8  and  N_9
REMARK    3  A    between atoms: C_15  and  C_16
REMARK                            x       y       z     vdW  Elec       q    Type
REMARK                         _______ _______ _______ _____ _____    ______ ____
ROOT
ATOM      1  C   UNL     1       0.874   6.819  -3.233  0.00  0.00    +0.085 A 
ATOM      2  C   UNL     1       2.236   6.545  -3.243  0.00  0.00    +0.053 A 
ATOM      3  I   UNL     1       3.296   6.945  -1.456  0.00  0.00    -0.041 I 
ATOM      4  C   UNL     1       2.884   6.070  -4.371  0.00  0.00    +0.093 A 
ATOM      5  C   UNL     1       2.089   5.821  -5.482  0.00  0.00    +0.053 A 
ATOM      6  I   UNL     1       2.894   4.676  -7.032  0.00  0.00    -0.041 I 
ATOM      7  C   UNL     1       0.805   6.343  -5.556  0.00  0.00    +0.085 A 
ATOM      8  C   UNL     1       0.151   6.733  -4.418  0.00  0.00    +0.061 A 
ATOM      9  I   UNL     1      -1.615   7.840  -4.561  0.00  0.00    -0.040 I 
ENDROOT
BRANCH   1  12
ATOM     10  C   UNL     1      -1.904   5.455  -1.114  0.00  0.00    +0.097 C 
ATOM     11  C   UNL     1      -0.582   5.463  -1.799  0.00  0.00    +0.246 C 
ATOM     12  N   UNL     1       0.098   6.686  -2.035  0.00  0.00    -0.178 NA
ATOM     13  O   UNL     1       0.105   4.412  -1.965  0.00  0.00    -0.273 OA
ENDBRANCH   1  12
BRANCH   7  14
ATOM     14  N   UNL     1       0.287   6.557  -6.875  0.00  0.00    -0.178 NA
ATOM     15  C   UNL     1      -0.455   5.547  -7.561  0.00  0.00    +0.246 C 
ATOM     16  O   UNL     1      -1.237   4.864  -6.833  0.00  0.00    -0.273 OA
ATOM     17  C   UNL     1      -0.147   5.156  -8.973  0.00  0.00    +0.097 C 
ENDBRANCH   7  14
BRANCH   4  18
ATOM     18  C   UNL     1       4.338   5.991  -4.407  0.00  0.00    +0.389 C 
ATOM     19  O   UNL     1       5.039   4.885  -3.931  0.00  0.00    -0.241 OA
ATOM     20  O   UNL     1       5.044   6.985  -4.730  0.00  0.00    -0.241 OA
ENDBRANCH   4  18
TORSDOF 3
ENDMDL
