MODEL 1
REMARK VINA RESULT:      -9.3      0.000      0.000
REMARK  Name = 
REMARK  2 active torsions:
REMARK  status: ('A' for Active; 'I' for Inactive)
REMARK    1  A    between atoms: C_9  and  O_10
REMARK    2  A    between atoms: O_10  and  S_11
REMARK                            x       y       z     vdW  Elec       q    Type
REMARK                         _______ _______ _______ _____ _____    ______ ____
ROOT
ATOM      1  C   UNL     1       6.620   7.663 -11.680  0.00  0.00    +0.007 C 
ATOM      2  C   UNL     1       6.312   6.338 -12.139  0.00  0.00    +0.052 C 
ATOM      3  C   UNL     1       7.415   5.784 -12.929  0.00  0.00    +0.150 C 
ATOM      4  O   UNL     1       7.290   4.781 -13.631  0.00  0.00    -0.296 OA
ATOM      5  C   UNL     1       8.598   5.896 -12.008  0.00  0.00    +0.064 C 
ATOM      6  C   UNL     1       8.023   6.113 -10.610  0.00  0.00    +0.008 C 
ATOM      7  C   UNL     1       6.607   5.324 -10.878  0.00  0.00    +0.007 C 
ATOM      8  C   UNL     1       5.728   6.323  -9.809  0.00  0.00    +0.005 C 
ATOM      9  C   UNL     1       4.279   5.538 -10.278  0.00  0.00    +0.022 C 
ATOM     10  C   UNL     1       3.404   6.389  -9.210  0.00  0.00    -0.026 A 
ATOM     11  C   UNL     1       3.589   5.832  -7.948  0.00  0.00    -0.023 A 
ATOM     12  C   UNL     1       5.004   5.723  -7.474  0.00  0.00    +0.026 C 
ATOM     13  C   UNL     1       2.518   5.603  -7.089  0.00  0.00    +0.035 A 
ATOM     14  C   UNL     1       1.217   5.848  -7.491  0.00  0.00    +0.171 A 
ATOM     15  C   UNL     1       1.061   6.542  -8.683  0.00  0.00    +0.039 A 
ATOM     16  C   UNL     1       2.099   6.618  -9.605  0.00  0.00    -0.001 A 
ATOM     17  C   UNL     1       4.023   6.642 -11.479  0.00  0.00    +0.005 C 
ATOM     18  C   UNL     1       5.950   5.318  -8.569  0.00  0.00    +0.005 C 
ATOM     19  C   UNL     1       4.933   6.063 -12.565  0.00  0.00    +0.007 C 
ENDROOT
BRANCH  14  20
ATOM     20  O   UNL     1       0.129   5.121  -7.007  0.00  0.00    -0.359 OA
BRANCH  20  21
ATOM     21  S   UNL     1      -0.591   5.695  -5.576  0.00  0.00    +0.042 S 
ATOM     22  O   UNL     1      -2.236   5.409  -5.528  0.00  0.00    -0.259 OA
ATOM     23  O   UNL     1       0.109   4.997  -4.440  0.00  0.00    -0.336 OA
ATOM     24  O   UNL     1      -0.395   7.180  -5.413  0.00  0.00    -0.336 OA
ENDBRANCH  20  21
ENDBRANCH  14  20
TORSDOF 2
ENDMDL
MODEL 2
REMARK VINA RESULT:      -8.8      3.953      8.911
REMARK  Name = 
REMARK  2 active torsions:
REMARK  status: ('A' for Active; 'I' for Inactive)
REMARK    1  A    between atoms: C_9  and  O_10
REMARK    2  A    between atoms: O_10  and  S_11
REMARK                            x       y       z     vdW  Elec       q    Type
REMARK                         _______ _______ _______ _____ _____    ______ ____
ROOT
ATOM      1  C   UNL     1      -1.631   7.748  -3.790  0.00  0.00    +0.007 C 
ATOM      2  C   UNL     1      -1.258   6.449  -3.305  0.00  0.00    +0.052 C 
ATOM      3  C   UNL     1      -2.249   5.938  -2.354  0.00  0.00    +0.150 C 
ATOM      4  O   UNL     1      -2.028   4.973  -1.621  0.00  0.00    -0.296 OA
ATOM      5  C   UNL     1      -3.539   6.001  -3.123  0.00  0.00    +0.064 C 
ATOM      6  C   UNL     1      -3.147   6.142  -4.591  0.00  0.00    +0.008 C 
ATOM      7  C   UNL     1      -1.703   5.369  -4.463  0.00  0.00    +0.007 C 
ATOM      8  C   UNL     1      -0.973   6.310  -5.686  0.00  0.00    +0.005 C 
ATOM      9  C   UNL     1       0.529   5.552  -5.363  0.00  0.00    +0.022 C 
ATOM     10  C   UNL     1       1.256   6.345  -6.577  0.00  0.00    -0.026 A 
ATOM     11  C   UNL     1       0.918   5.721  -7.774  0.00  0.00    -0.023 A 
ATOM     12  C   UNL     1      -0.545   5.587  -8.059  0.00  0.00    +0.026 C 
ATOM     13  C   UNL     1       1.873   5.447  -8.749  0.00  0.00    +0.035 A 
ATOM     14  C   UNL     1       3.212   5.714  -8.527  0.00  0.00    +0.171 A 
ATOM     15  C   UNL     1       3.513   6.470  -7.403  0.00  0.00    +0.039 A 
ATOM     16  C   UNL     1       2.600   6.594  -6.362  0.00  0.00    -0.001 A 
ATOM     17  C   UNL     1       0.927   6.718  -4.264  0.00  0.00    +0.005 C 
ATOM     18  C   UNL     1      -1.342   5.240  -6.833  0.00  0.00    +0.005 C 
ATOM     19  C   UNL     1       0.166   6.198  -3.043  0.00  0.00    +0.007 C 
ENDROOT
BRANCH  14  20
ATOM     20  O   UNL     1       4.235   4.962  -9.106  0.00  0.00    -0.359 OA
BRANCH  20  21
ATOM     21  S   UNL     1       5.219   5.764 -10.239  0.00  0.00    +0.042 S 
ATOM     22  O   UNL     1       4.744   7.345 -10.494  0.00  0.00    -0.259 OA
ATOM     23  O   UNL     1       6.624   5.706  -9.697  0.00  0.00    -0.336 OA
ATOM     24  O   UNL     1       5.200   5.075 -11.578  0.00  0.00    -0.336 OA
ENDBRANCH  20  21
ENDBRANCH  14  20
TORSDOF 2
ENDMDL
MODEL 3
REMARK VINA RESULT:      -8.7      2.615      4.662
REMARK  Name = 
REMARK  2 active torsions:
REMARK  status: ('A' for Active; 'I' for Inactive)
REMARK    1  A    between atoms: C_9  and  O_10
REMARK    2  A    between atoms: O_10  and  S_11
REMARK                            x       y       z     vdW  Elec       q    Type
REMARK                         _______ _______ _______ _____ _____    ______ ____
ROOT
ATOM      1  C   UNL     1       3.793   4.316  -9.221  0.00  0.00    +0.007 C 
ATOM      2  C   UNL     1       3.917   5.746  -9.172  0.00  0.00    +0.052 C 
ATOM      3  C   UNL     1       4.535   6.264 -10.396  0.00  0.00    +0.150 C 
ATOM      4  O   UNL     1       4.971   7.411 -10.485  0.00  0.00    -0.296 OA
ATOM      5  C   UNL     1       3.656   5.722 -11.490  0.00  0.00    +0.064 C 
ATOM      6  C   UNL     1       2.360   5.286 -10.810  0.00  0.00    +0.008 C 
ATOM      7  C   UNL     1       2.442   6.359  -9.569  0.00  0.00    +0.007 C 
ATOM      8  C   UNL     1       1.660   5.310  -8.473  0.00  0.00    +0.005 C 
ATOM      9  C   UNL     1       1.939   6.433  -7.210  0.00  0.00    +0.022 C 
ATOM     10  C   UNL     1       1.121   5.524  -6.143  0.00  0.00    -0.026 A 
ATOM     11  C   UNL     1      -0.241   5.721  -6.352  0.00  0.00    -0.023 A 
ATOM     12  C   UNL     1      -0.742   5.456  -7.737  0.00  0.00    +0.026 C 
ATOM     13  C   UNL     1      -1.118   5.928  -5.291  0.00  0.00    +0.035 A 
ATOM     14  C   UNL     1      -0.653   6.026  -3.992  0.00  0.00    +0.171 A 
ATOM     15  C   UNL     1       0.674   5.678  -3.783  0.00  0.00    +0.039 A 
ATOM     16  C   UNL     1       1.575   5.637  -4.842  0.00  0.00    -0.001 A 
ATOM     17  C   UNL     1       3.377   5.713  -6.833  0.00  0.00    +0.005 C 
ATOM     18  C   UNL     1       0.210   5.933  -8.797  0.00  0.00    +0.005 C 
ATOM     19  C   UNL     1       4.277   6.360  -7.887  0.00  0.00    +0.007 C 
ENDROOT
BRANCH  14  20
ATOM     20  O   UNL     1      -1.289   6.802  -3.021  0.00  0.00    -0.359 OA
BRANCH  20  21
ATOM     21  S   UNL     1      -2.436   6.007  -2.047  0.00  0.00    +0.042 S 
ATOM     22  O   UNL     1      -1.979   5.946  -0.442  0.00  0.00    -0.259 OA
ATOM     23  O   UNL     1      -3.727   6.765  -2.210  0.00  0.00    -0.336 OA
ATOM     24  O   UNL     1      -2.660   4.588  -2.498  0.00  0.00    -0.336 OA
ENDBRANCH  20  21
ENDBRANCH  14  20
TORSDOF 2
ENDMDL
MODEL 4
REMARK VINA RESULT:      -8.3      4.996      7.051
REMARK  Name = 
REMARK  2 active torsions:
REMARK  status: ('A' for Active; 'I' for Inactive)
REMARK    1  A    between atoms: C_9  and  O_10
REMARK    2  A    between atoms: O_10  and  S_11
REMARK                            x       y       z     vdW  Elec       q    Type
REMARK                         _______ _______ _______ _____ _____    ______ ____
ROOT
ATOM      1  C   UNL     1       1.325   6.477  -7.215  0.00  0.00    +0.007 C 
ATOM      2  C   UNL     1       1.972   5.204  -7.070  0.00  0.00    +0.052 C 
ATOM      3  C   UNL     1       2.217   4.585  -8.376  0.00  0.00    +0.150 C 
ATOM      4  O   UNL     1       2.526   3.400  -8.502  0.00  0.00    -0.296 OA
ATOM      5  C   UNL     1       2.998   5.634  -9.120  0.00  0.00    +0.064 C 
ATOM      6  C   UNL     1       3.512   6.605  -8.061  0.00  0.00    +0.008 C 
ATOM      7  C   UNL     1       3.571   5.514  -6.834  0.00  0.00    +0.007 C 
ATOM      8  C   UNL     1       3.215   6.681  -5.641  0.00  0.00    +0.005 C 
ATOM      9  C   UNL     1       3.142   5.441  -4.460  0.00  0.00    +0.022 C 
ATOM     10  C   UNL     1       2.899   6.512  -3.266  0.00  0.00    -0.026 A 
ATOM     11  C   UNL     1       4.121   7.091  -2.940  0.00  0.00    -0.023 A 
ATOM     12  C   UNL     1       4.866   7.742  -4.064  0.00  0.00    +0.026 C 
ATOM     13  C   UNL     1       4.519   7.256  -1.617  0.00  0.00    +0.035 A 
ATOM     14  C   UNL     1       3.746   6.776  -0.576  0.00  0.00    +0.171 A 
ATOM     15  C   UNL     1       2.469   6.343  -0.904  0.00  0.00    +0.039 A 
ATOM     16  C   UNL     1       2.140   6.025  -2.218  0.00  0.00    -0.001 A 
ATOM     17  C   UNL     1       1.521   5.242  -4.712  0.00  0.00    +0.005 C 
ATOM     18  C   UNL     1       4.774   6.962  -5.345  0.00  0.00    +0.005 C 
ATOM     19  C   UNL     1       1.557   4.346  -5.952  0.00  0.00    +0.007 C 
ENDROOT
BRANCH  14  20
ATOM     20  O   UNL     1       4.293   6.346   0.634  0.00  0.00    -0.359 OA
BRANCH  20  21
ATOM     21  S   UNL     1       4.617   7.551   1.791  0.00  0.00    +0.042 S 
ATOM     22  O   UNL     1       3.687   8.920   1.568  0.00  0.00    -0.259 OA
ATOM     23  O   UNL     1       4.346   6.930   3.137  0.00  0.00    -0.336 OA
ATOM     24  O   UNL     1       6.059   7.984   1.752  0.00  0.00    -0.336 OA
ENDBRANCH  20  21
ENDBRANCH  14  20
TORSDOF 2
ENDMDL
MODEL 5
REMARK VINA RESULT:      -8.1      3.491      5.214
REMARK  Name = 
REMARK  2 active torsions:
REMARK  status: ('A' for Active; 'I' for Inactive)
REMARK    1  A    between atoms: C_9  and  O_10
REMARK    2  A    between atoms: O_10  and  S_11
REMARK                            x       y       z     vdW  Elec       q    Type
REMARK                         _______ _______ _______ _____ _____    ______ ____
ROOT
ATOM      1  C   UNL     1       3.354   4.379  -9.492  0.00  0.00    +0.007 C 
ATOM      2  C   UNL     1       4.139   5.576  -9.603  0.00  0.00    +0.052 C 
ATOM      3  C   UNL     1       4.197   6.042 -10.991  0.00  0.00    +0.150 C 
ATOM      4  O   UNL     1       5.004   6.890 -11.373  0.00  0.00    -0.296 OA
ATOM      5  C   UNL     1       2.750   6.173 -11.378  0.00  0.00    +0.064 C 
ATOM      6  C   UNL     1       1.964   6.183 -10.070  0.00  0.00    +0.008 C 
ATOM      7  C   UNL     1       3.164   6.821  -9.147  0.00  0.00    +0.007 C 
ATOM      8  C   UNL     1       2.673   5.984  -7.744  0.00  0.00    +0.005 C 
ATOM      9  C   UNL     1       4.049   6.579  -6.915  0.00  0.00    +0.022 C 
ATOM     10  C   UNL     1       3.583   5.887  -5.524  0.00  0.00    -0.026 A 
ATOM     11  C   UNL     1       2.591   6.677  -4.952  0.00  0.00    -0.023 A 
ATOM     12  C   UNL     1       1.395   6.957  -5.806  0.00  0.00    +0.026 C 
ATOM     13  C   UNL     1       2.603   6.993  -3.596  0.00  0.00    +0.035 A 
ATOM     14  C   UNL     1       3.650   6.600  -2.783  0.00  0.00    +0.171 A 
ATOM     15  C   UNL     1       4.546   5.691  -3.327  0.00  0.00    +0.039 A 
ATOM     16  C   UNL     1       4.631   5.510  -4.703  0.00  0.00    -0.001 A 
ATOM     17  C   UNL     1       4.938   5.259  -7.360  0.00  0.00    +0.005 C 
ATOM     18  C   UNL     1       1.758   7.211  -7.242  0.00  0.00    +0.005 C 
ATOM     19  C   UNL     1       5.346   5.683  -8.772  0.00  0.00    +0.007 C 
ENDROOT
BRANCH  14  20
ATOM     20  O   UNL     1       4.057   7.336  -1.669  0.00  0.00    -0.359 OA
BRANCH  20  21
ATOM     21  S   UNL     1       3.299   6.959  -0.192  0.00  0.00    +0.042 S 
ATOM     22  O   UNL     1       4.394   6.674   1.035  0.00  0.00    -0.259 OA
ATOM     23  O   UNL     1       2.412   8.131   0.140  0.00  0.00    -0.336 OA
ATOM     24  O   UNL     1       2.435   5.731  -0.309  0.00  0.00    -0.336 OA
ENDBRANCH  20  21
ENDBRANCH  14  20
TORSDOF 2
ENDMDL
MODEL 6
REMARK VINA RESULT:      -8.1      4.097      7.576
REMARK  Name = 
REMARK  2 active torsions:
REMARK  status: ('A' for Active; 'I' for Inactive)
REMARK    1  A    between atoms: C_9  and  O_10
REMARK    2  A    between atoms: O_10  and  S_11
REMARK                            x       y       z     vdW  Elec       q    Type
REMARK                         _______ _______ _______ _____ _____    ______ ____
ROOT
ATOM      1  C   UNL     1       4.424   7.303  -2.686  0.00  0.00    +0.007 C 
ATOM      2  C   UNL     1       4.215   5.888  -2.560  0.00  0.00    +0.052 C 
ATOM      3  C   UNL     1       4.253   5.473  -1.155  0.00  0.00    +0.150 C 
ATOM      4  O   UNL     1       4.350   4.294  -0.815  0.00  0.00    -0.296 OA
ATOM      5  C   UNL     1       3.217   6.346  -0.503  0.00  0.00    +0.064 C 
ATOM      6  C   UNL     1       2.361   6.902  -1.638  0.00  0.00    +0.008 C 
ATOM      7  C   UNL     1       2.592   5.642  -2.667  0.00  0.00    +0.007 C 
ATOM      8  C   UNL     1       2.488   6.624  -4.059  0.00  0.00    +0.005 C 
ATOM      9  C   UNL     1       2.894   5.275  -5.033  0.00  0.00    +0.022 C 
ATOM     10  C   UNL     1       2.715   6.132  -6.398  0.00  0.00    -0.026 A 
ATOM     11  C   UNL     1       1.355   6.236  -6.676  0.00  0.00    -0.023 A 
ATOM     12  C   UNL     1       0.502   6.819  -5.593  0.00  0.00    +0.026 C 
ATOM     13  C   UNL     1       0.855   6.027  -7.958  0.00  0.00    +0.035 A 
ATOM     14  C   UNL     1       1.686   5.627  -8.989  0.00  0.00    +0.171 A 
ATOM     15  C   UNL     1       3.049   5.677  -8.738  0.00  0.00    +0.039 A 
ATOM     16  C   UNL     1       3.533   5.720  -7.435  0.00  0.00    -0.001 A 
ATOM     17  C   UNL     1       4.503   5.634  -4.931  0.00  0.00    +0.005 C 
ATOM     18  C   UNL     1       0.908   6.352  -4.224  0.00  0.00    +0.005 C 
ATOM     19  C   UNL     1       4.824   5.012  -3.571  0.00  0.00    +0.007 C 
ENDROOT
BRANCH  14  20
ATOM     20  O   UNL     1       1.242   4.837 -10.050  0.00  0.00    -0.359 OA
BRANCH  20  21
ATOM     21  S   UNL     1       0.876   5.650 -11.501  0.00  0.00    +0.042 S 
ATOM     22  O   UNL     1       2.174   6.516 -12.095  0.00  0.00    -0.259 OA
ATOM     23  O   UNL     1       0.442   4.591 -12.481  0.00  0.00    -0.336 OA
ATOM     24  O   UNL     1      -0.260   6.622 -11.320  0.00  0.00    -0.336 OA
ENDBRANCH  20  21
ENDBRANCH  14  20
TORSDOF 2
ENDMDL
MODEL 7
REMARK VINA RESULT:      -8.0      4.280      7.083
REMARK  Name = 
REMARK  2 active torsions:
REMARK  status: ('A' for Active; 'I' for Inactive)
REMARK    1  A    between atoms: C_9  and  O_10
REMARK    2  A    between atoms: O_10  and  S_11
REMARK                            x       y       z     vdW  Elec       q    Type
REMARK                         _______ _______ _______ _____ _____    ______ ____
ROOT
ATOM      1  C   UNL     1       3.029   7.252  -4.901  0.00  0.00    +0.007 C 
ATOM      2  C   UNL     1       3.489   5.894  -4.982  0.00  0.00    +0.052 C 
ATOM      3  C   UNL     1       3.828   5.372  -3.656  0.00  0.00    +0.150 C 
ATOM      4  O   UNL     1       4.473   4.336  -3.496  0.00  0.00    -0.296 OA
ATOM      5  C   UNL     1       2.570   5.589  -2.860  0.00  0.00    +0.064 C 
ATOM      6  C   UNL     1       1.463   5.828  -3.883  0.00  0.00    +0.008 C 
ATOM      7  C   UNL     1       2.146   4.950  -5.092  0.00  0.00    +0.007 C 
ATOM      8  C   UNL     1       1.494   5.940  -6.320  0.00  0.00    +0.005 C 
ATOM      9  C   UNL     1       2.377   5.056  -7.492  0.00  0.00    +0.022 C 
ATOM     10  C   UNL     1       1.716   5.898  -8.710  0.00  0.00    -0.026 A 
ATOM     11  C   UNL     1       0.436   5.403  -8.942  0.00  0.00    -0.023 A 
ATOM     12  C   UNL     1      -0.491   5.394  -7.768  0.00  0.00    +0.026 C 
ATOM     13  C   UNL     1      -0.024   5.149 -10.231  0.00  0.00    +0.035 A 
ATOM     14  C   UNL     1       0.806   5.303 -11.326  0.00  0.00    +0.171 A 
ATOM     15  C   UNL     1       2.018   5.938 -11.098  0.00  0.00    +0.039 A 
ATOM     16  C   UNL     1       2.540   6.036  -9.813  0.00  0.00    -0.001 A 
ATOM     17  C   UNL     1       3.656   6.094  -7.369  0.00  0.00    +0.005 C 
ATOM     18  C   UNL     1       0.197   4.999  -6.492  0.00  0.00    +0.005 C 
ATOM     19  C   UNL     1       4.337   5.525  -6.123  0.00  0.00    +0.007 C 
ENDROOT
BRANCH  14  20
ATOM     20  O   UNL     1       0.675   4.535 -12.484  0.00  0.00    -0.359 OA
BRANCH  20  21
ATOM     21  S   UNL     1       1.036   5.312 -13.955  0.00  0.00    +0.042 S 
ATOM     22  O   UNL     1       2.654   5.207 -14.355  0.00  0.00    -0.259 OA
ATOM     23  O   UNL     1       0.180   4.652 -15.004  0.00  0.00    -0.336 OA
ATOM     24  O   UNL     1       0.685   6.776 -13.910  0.00  0.00    -0.336 OA
ENDBRANCH  20  21
ENDBRANCH  14  20
TORSDOF 2
ENDMDL
MODEL 8
REMARK VINA RESULT:      -8.0      2.867      3.932
REMARK  Name = 
REMARK  2 active torsions:
REMARK  status: ('A' for Active; 'I' for Inactive)
REMARK    1  A    between atoms: C_9  and  O_10
REMARK    2  A    between atoms: O_10  and  S_11
REMARK                            x       y       z     vdW  Elec       q    Type
REMARK                         _______ _______ _______ _____ _____    ______ ____
ROOT
ATOM      1  C   UNL     1       0.871   6.910 -12.783  0.00  0.00    +0.007 C 
ATOM      2  C   UNL     1       1.102   5.493 -12.757  0.00  0.00    +0.052 C 
ATOM      3  C   UNL     1       1.656   5.025 -14.030  0.00  0.00    +0.150 C 
ATOM      4  O   UNL     1       1.701   3.834 -14.336  0.00  0.00    -0.296 OA
ATOM      5  C   UNL     1       2.877   5.883 -14.219  0.00  0.00    +0.064 C 
ATOM      6  C   UNL     1       3.181   6.488 -12.851  0.00  0.00    +0.008 C 
ATOM      7  C   UNL     1       2.528   5.265 -11.968  0.00  0.00    +0.007 C 
ATOM      8  C   UNL     1       2.045   6.300 -10.699  0.00  0.00    +0.005 C 
ATOM      9  C   UNL     1       1.256   4.984  -9.936  0.00  0.00    +0.022 C 
ATOM     10  C   UNL     1       0.852   5.894  -8.656  0.00  0.00    -0.026 A 
ATOM     11  C   UNL     1       1.970   6.019  -7.836  0.00  0.00    -0.023 A 
ATOM     12  C   UNL     1       3.204   6.568  -8.481  0.00  0.00    +0.026 C 
ATOM     13  C   UNL     1       1.883   5.863  -6.456  0.00  0.00    +0.035 A 
ATOM     14  C   UNL     1       0.692   5.495  -5.855  0.00  0.00    +0.171 A 
ATOM     15  C   UNL     1      -0.439   5.524  -6.658  0.00  0.00    +0.039 A 
ATOM     16  C   UNL     1      -0.329   5.514  -8.044  0.00  0.00    -0.001 A 
ATOM     17  C   UNL     1      -0.157   5.326 -10.719  0.00  0.00    +0.005 C 
ATOM     18  C   UNL     1       3.407   6.047  -9.876  0.00  0.00    +0.005 C 
ATOM     19  C   UNL     1       0.118   4.650 -12.064  0.00  0.00    +0.007 C 
ENDROOT
BRANCH  14  20
ATOM     20  O   UNL     1       0.642   4.749  -4.677  0.00  0.00    -0.359 OA
BRANCH  20  21
ATOM     21  S   UNL     1       0.431   5.624  -3.232  0.00  0.00    +0.042 S 
ATOM     22  O   UNL     1       0.138   4.634  -1.920  0.00  0.00    -0.259 OA
ATOM     23  O   UNL     1       1.694   6.422  -3.033  0.00  0.00    -0.336 OA
ATOM     24  O   UNL     1      -0.725   6.585  -3.329  0.00  0.00    -0.336 OA
ENDBRANCH  20  21
ENDBRANCH  14  20
TORSDOF 2
ENDMDL
MODEL 9
REMARK VINA RESULT:      -7.9      3.972      5.398
REMARK  Name = 
REMARK  2 active torsions:
REMARK  status: ('A' for Active; 'I' for Inactive)
REMARK    1  A    between atoms: C_9  and  O_10
REMARK    2  A    between atoms: O_10  and  S_11
REMARK                            x       y       z     vdW  Elec       q    Type
REMARK                         _______ _______ _______ _____ _____    ______ ____
ROOT
ATOM      1  C   UNL     1       0.953   7.099 -10.011  0.00  0.00    +0.007 C 
ATOM      2  C   UNL     1       0.564   5.734  -9.795  0.00  0.00    +0.052 C 
ATOM      3  C   UNL     1       0.179   5.090 -11.054  0.00  0.00    +0.150 C 
ATOM      4  O   UNL     1      -0.422   4.017 -11.094  0.00  0.00    -0.296 OA
ATOM      5  C   UNL     1       1.381   5.295 -11.936  0.00  0.00    +0.064 C 
ATOM      6  C   UNL     1       2.529   5.666 -11.000  0.00  0.00    +0.008 C 
ATOM      7  C   UNL     1       1.955   4.861  -9.688  0.00  0.00    +0.007 C 
ATOM      8  C   UNL     1       2.624   5.976  -8.582  0.00  0.00    +0.005 C 
ATOM      9  C   UNL     1       1.848   5.153  -7.295  0.00  0.00    +0.022 C 
ATOM     10  C   UNL     1       2.532   6.121  -6.187  0.00  0.00    -0.026 A 
ATOM     11  C   UNL     1       3.845   5.703  -5.991  0.00  0.00    -0.023 A 
ATOM     12  C   UNL     1       4.708   5.638  -7.212  0.00  0.00    +0.026 C 
ATOM     13  C   UNL     1       4.386   5.576  -4.714  0.00  0.00    +0.035 A 
ATOM     14  C   UNL     1       3.609   5.783  -3.589  0.00  0.00    +0.171 A 
ATOM     15  C   UNL     1       2.357   6.344  -3.797  0.00  0.00    +0.039 A 
ATOM     16  C   UNL     1       1.763   6.313  -5.054  0.00  0.00    -0.001 A 
ATOM     17  C   UNL     1       0.516   6.121  -7.426  0.00  0.00    +0.005 C 
ATOM     18  C   UNL     1       3.972   5.111  -8.411  0.00  0.00    +0.005 C 
ATOM     19  C   UNL     1      -0.203   5.422  -8.582  0.00  0.00    +0.007 C 
ENDROOT
BRANCH  14  20
ATOM     20  O   UNL     1       3.839   5.119  -2.383  0.00  0.00    -0.359 OA
BRANCH  20  21
ATOM     21  S   UNL     1       3.777   6.068  -0.971  0.00  0.00    +0.042 S 
ATOM     22  O   UNL     1       2.236   6.173  -0.337  0.00  0.00    -0.259 OA
ATOM     23  O   UNL     1       4.720   5.424   0.012  0.00  0.00    -0.336 OA
ATOM     24  O   UNL     1       4.248   7.475  -1.227  0.00  0.00    -0.336 OA
ENDBRANCH  20  21
ENDBRANCH  14  20
TORSDOF 2
ENDMDL
