MODEL 1
REMARK VINA RESULT:      -8.7      0.000      0.000
REMARK  Name = 
REMARK  11 active torsions:
REMARK  status: ('A' for Active; 'I' for Inactive)
REMARK    1  A    between atoms: O_2  and  C_3
REMARK    2  A    between atoms: C_3  and  C_5
REMARK    3  A    between atoms: C_5  and  C_6
REMARK    4  A    between atoms: C_6  and  C_8
REMARK    5  A    between atoms: C_6  and  C_15
REMARK    6  A    between atoms: C_8  and  C_9
REMARK    7  A    between atoms: C_9  and  C_10
REMARK    8  A    between atoms: C_10  and  C_11
REMARK    9  A    between atoms: C_15  and  O_17
REMARK   10  A    between atoms: O_17  and  C_18
REMARK   11  A    between atoms: C_19  and  O_20
REMARK                            x       y       z     vdW  Elec       q    Type
REMARK                         _______ _______ _______ _____ _____    ______ ____
ROOT
ATOM      1  C   UNL     1       1.484   5.545  -6.272  0.00  0.00    +0.230 C 
ATOM      2  C   UNL     1       0.630   5.075  -4.866  0.00  0.00    +0.087 C 
ATOM      3  C   UNL     1      -0.324   6.393  -4.937  0.00  0.00    +0.074 C 
ATOM      4  N   UNL     1      -0.803   6.586  -3.577  0.00  0.00    -0.271 NA
ATOM      5  C   UNL     1      -1.290   5.342  -2.992  0.00  0.00    +0.077 C 
ATOM      6  C   UNL     1      -0.288   4.826  -1.964  0.00  0.00    +0.043 C 
ATOM      7  C   UNL     1       1.034   5.349  -2.447  0.00  0.00    -0.021 A 
ATOM      8  C   UNL     1       1.655   5.965  -1.362  0.00  0.00    +0.036 A 
ATOM      9  C   UNL     1       2.557   6.993  -1.620  0.00  0.00    +0.176 A 
ATOM     10  O   UNL     1       3.143   7.999  -0.847  0.00  0.00    -0.435 OA
ATOM     11  C   UNL     1       3.730   8.915  -1.769  0.00  0.00    +0.429 C 
ATOM     12  O   UNL     1       3.935   8.127  -2.941  0.00  0.00    -0.435 OA
ATOM     13  C   UNL     1       3.218   6.929  -2.843  0.00  0.00    +0.176 A 
ATOM     14  C   UNL     1       2.739   5.989  -3.754  0.00  0.00    +0.036 A 
ATOM     15  C   UNL     1      -1.875   7.516  -3.747  0.00  0.00    +0.072 C 
ATOM     16  C   UNL     1      -2.552   7.036  -5.016  0.00  0.00    +0.019 C 
ATOM     17  C   UNL     1      -1.533   6.124  -5.699  0.00  0.00    +0.021 C 
ATOM     18  C   UNL     1       0.565   7.443  -5.345  0.00  0.00    +0.024 C 
ATOM     19  C   UNL     1       1.492   5.703  -3.719  0.00  0.00    -0.018 A 
ATOM     20  C   UNL     1       1.744   7.041  -5.752  0.00  0.00    +0.153 C 
ENDROOT
BRANCH  20  21
ATOM     21  O   UNL     1       2.524   7.793  -6.614  0.00  0.00    -0.472 OA
ATOM     22  C   UNL     1       2.113   8.121  -7.921  0.00  0.00    +0.252 C 
ENDBRANCH  20  21
BRANCH   1  23
ATOM     23  O   UNL     1       2.788   4.876  -5.810  0.00  0.00    -0.442 OA
BRANCH  23  24
ATOM     24  C   UNL     1       3.901   5.089  -6.597  0.00  0.00    +0.346 C 
ATOM     25  O   UNL     1       4.807   5.634  -5.887  0.00  0.00    -0.247 OA
BRANCH  24  26
ATOM     26  C   UNL     1       4.093   4.944  -8.014  0.00  0.00    +0.225 C 
ATOM     27  O   UNL     1       3.917   6.205  -8.619  0.00  0.00    -0.214 OA
BRANCH  26  28
ATOM     28  C   UNL     1       5.474   4.501  -8.483  0.00  0.00    +0.042 C 
BRANCH  28  29
ATOM     29  C   UNL     1       6.005   5.754  -9.173  0.00  0.00    +0.006 C 
BRANCH  29  30
ATOM     30  C   UNL     1       7.366   5.640  -9.731  0.00  0.00    +0.031 C 
BRANCH  30  31
ATOM     31  C   UNL     1       7.352   6.041 -11.185  0.00  0.00    +0.127 C 
ATOM     32  O   UNL     1       6.381   5.276 -11.823  0.00  0.00    -0.226 OA
ATOM     33  C   UNL     1       6.993   7.523 -11.179  0.00  0.00    +0.033 C 
ATOM     34  C   UNL     1       8.676   5.823 -11.865  0.00  0.00    +0.033 C 
ENDBRANCH  30  31
ENDBRANCH  29  30
ENDBRANCH  28  29
ENDBRANCH  26  28
BRANCH  26  35
ATOM     35  C   UNL     1       3.152   4.023  -8.747  0.00  0.00    +0.151 C 
BRANCH  35  36
ATOM     36  C   UNL     1       2.400   4.832  -9.723  0.00  0.00    +0.320 C 
ATOM     37  O   UNL     1       2.925   5.218 -10.811  0.00  0.00    -0.250 OA
BRANCH  36  39
ATOM     38  C   UNL     1       0.188   4.769 -10.614  0.00  0.00    +0.256 C 
ATOM     39  O   UNL     1       1.034   5.084  -9.595  0.00  0.00    -0.444 OA
ENDBRANCH  36  39
ENDBRANCH  35  36
ENDBRANCH  26  35
ENDBRANCH  24  26
ENDBRANCH  23  24
ENDBRANCH   1  23
TORSDOF 11
ENDMDL
MODEL 2
REMARK VINA RESULT:      -8.4      1.212      3.084
REMARK  Name = 
REMARK  11 active torsions:
REMARK  status: ('A' for Active; 'I' for Inactive)
REMARK    1  A    between atoms: O_2  and  C_3
REMARK    2  A    between atoms: C_3  and  C_5
REMARK    3  A    between atoms: C_5  and  C_6
REMARK    4  A    between atoms: C_6  and  C_8
REMARK    5  A    between atoms: C_6  and  C_15
REMARK    6  A    between atoms: C_8  and  C_9
REMARK    7  A    between atoms: C_9  and  C_10
REMARK    8  A    between atoms: C_10  and  C_11
REMARK    9  A    between atoms: C_15  and  O_17
REMARK   10  A    between atoms: O_17  and  C_18
REMARK   11  A    between atoms: C_19  and  O_20
REMARK                            x       y       z     vdW  Elec       q    Type
REMARK                         _______ _______ _______ _____ _____    ______ ____
ROOT
ATOM      1  C   UNL     1       1.100   5.650  -6.524  0.00  0.00    +0.230 C 
ATOM      2  C   UNL     1       0.301   5.169  -5.090  0.00  0.00    +0.087 C 
ATOM      3  C   UNL     1      -0.540   6.563  -5.025  0.00  0.00    +0.074 C 
ATOM      4  N   UNL     1      -0.913   6.715  -3.627  0.00  0.00    -0.271 NA
ATOM      5  C   UNL     1      -1.465   5.482  -3.076  0.00  0.00    +0.077 C 
ATOM      6  C   UNL     1      -0.446   4.827  -2.149  0.00  0.00    +0.043 C 
ATOM      7  C   UNL     1       0.882   5.269  -2.693  0.00  0.00    -0.021 A 
ATOM      8  C   UNL     1       1.620   5.768  -1.622  0.00  0.00    +0.036 A 
ATOM      9  C   UNL     1       2.588   6.732  -1.887  0.00  0.00    +0.176 A 
ATOM     10  O   UNL     1       3.306   7.641  -1.104  0.00  0.00    -0.435 OA
ATOM     11  C   UNL     1       3.908   8.558  -2.015  0.00  0.00    +0.429 C 
ATOM     12  O   UNL     1       3.970   7.826  -3.238  0.00  0.00    -0.435 OA
ATOM     13  C   UNL     1       3.162   6.686  -3.154  0.00  0.00    +0.176 A 
ATOM     14  C   UNL     1       2.547   5.843  -4.078  0.00  0.00    +0.036 A 
ATOM     15  C   UNL     1      -1.910   7.736  -3.674  0.00  0.00    +0.072 C 
ATOM     16  C   UNL     1      -2.705   7.388  -4.916  0.00  0.00    +0.019 C 
ATOM     17  C   UNL     1      -1.814   6.437  -5.715  0.00  0.00    +0.021 C 
ATOM     18  C   UNL     1       0.407   7.558  -5.438  0.00  0.00    +0.024 C 
ATOM     19  C   UNL     1       1.285   5.657  -3.973  0.00  0.00    -0.018 A 
ATOM     20  C   UNL     1       1.519   7.087  -5.945  0.00  0.00    +0.153 C 
ENDROOT
BRANCH  20  21
ATOM     21  O   UNL     1       2.303   7.823  -6.818  0.00  0.00    -0.472 OA
ATOM     22  C   UNL     1       1.915   8.095  -8.144  0.00  0.00    +0.252 C 
ENDBRANCH  20  21
BRANCH   1  23
ATOM     23  O   UNL     1       2.369   4.852  -6.189  0.00  0.00    -0.442 OA
BRANCH  23  24
ATOM     24  C   UNL     1       3.358   4.835  -7.151  0.00  0.00    +0.346 C 
ATOM     25  O   UNL     1       4.468   5.137  -6.603  0.00  0.00    -0.247 OA
BRANCH  24  26
ATOM     26  C   UNL     1       3.279   4.700  -8.580  0.00  0.00    +0.225 C 
ATOM     27  O   UNL     1       4.073   3.602  -8.968  0.00  0.00    -0.214 OA
BRANCH  26  28
ATOM     28  C   UNL     1       1.908   4.389  -9.170  0.00  0.00    +0.042 C 
BRANCH  28  29
ATOM     29  C   UNL     1       1.835   5.347 -10.355  0.00  0.00    +0.006 C 
BRANCH  29  30
ATOM     30  C   UNL     1       0.831   5.008 -11.382  0.00  0.00    +0.031 C 
BRANCH  30  31
ATOM     31  C   UNL     1       1.181   5.696 -12.678  0.00  0.00    +0.127 C 
ATOM     32  O   UNL     1       2.555   5.910 -12.683  0.00  0.00    -0.226 OA
ATOM     33  C   UNL     1       0.755   4.717 -13.767  0.00  0.00    +0.033 C 
ATOM     34  C   UNL     1       0.476   7.013 -12.850  0.00  0.00    +0.033 C 
ENDBRANCH  30  31
ENDBRANCH  29  30
ENDBRANCH  28  29
ENDBRANCH  26  28
BRANCH  26  35
ATOM     35  C   UNL     1       3.774   5.855  -9.410  0.00  0.00    +0.151 C 
BRANCH  35  36
ATOM     36  C   UNL     1       5.126   5.517  -9.890  0.00  0.00    +0.320 C 
ATOM     37  O   UNL     1       5.351   5.246 -11.109  0.00  0.00    -0.250 OA
BRANCH  36  39
ATOM     38  C   UNL     1       7.484   5.795  -9.655  0.00  0.00    +0.256 C 
ATOM     39  O   UNL     1       6.259   5.632  -9.084  0.00  0.00    -0.444 OA
ENDBRANCH  36  39
ENDBRANCH  35  36
ENDBRANCH  26  35
ENDBRANCH  24  26
ENDBRANCH  23  24
ENDBRANCH   1  23
TORSDOF 11
ENDMDL
MODEL 3
REMARK VINA RESULT:      -8.3      3.052      7.272
REMARK  Name = 
REMARK  11 active torsions:
REMARK  status: ('A' for Active; 'I' for Inactive)
REMARK    1  A    between atoms: O_2  and  C_3
REMARK    2  A    between atoms: C_3  and  C_5
REMARK    3  A    between atoms: C_5  and  C_6
REMARK    4  A    between atoms: C_6  and  C_8
REMARK    5  A    between atoms: C_6  and  C_15
REMARK    6  A    between atoms: C_8  and  C_9
REMARK    7  A    between atoms: C_9  and  C_10
REMARK    8  A    between atoms: C_10  and  C_11
REMARK    9  A    between atoms: C_15  and  O_17
REMARK   10  A    between atoms: O_17  and  C_18
REMARK   11  A    between atoms: C_19  and  O_20
REMARK                            x       y       z     vdW  Elec       q    Type
REMARK                         _______ _______ _______ _____ _____    ______ ____
ROOT
ATOM      1  C   UNL     1       3.667   5.515  -5.149  0.00  0.00    +0.230 C 
ATOM      2  C   UNL     1       2.650   4.864  -6.362  0.00  0.00    +0.087 C 
ATOM      3  C   UNL     1       2.864   6.166  -7.318  0.00  0.00    +0.074 C 
ATOM      4  N   UNL     1       1.703   6.185  -8.195  0.00  0.00    -0.271 NA
ATOM      5  C   UNL     1       1.435   4.871  -8.769  0.00  0.00    +0.077 C 
ATOM      6  C   UNL     1       0.214   4.250  -8.098  0.00  0.00    +0.043 C 
ATOM      7  C   UNL     1       0.209   4.850  -6.721  0.00  0.00    -0.021 A 
ATOM      8  C   UNL     1      -1.075   5.341  -6.490  0.00  0.00    +0.036 A 
ATOM      9  C   UNL     1      -1.220   6.407  -5.607  0.00  0.00    +0.176 A 
ATOM     10  O   UNL     1      -2.242   7.322  -5.335  0.00  0.00    -0.435 OA
ATOM     11  C   UNL     1      -1.649   8.352  -4.547  0.00  0.00    +0.429 C 
ATOM     12  O   UNL     1      -0.517   7.715  -3.956  0.00  0.00    -0.435 OA
ATOM     13  C   UNL     1      -0.259   6.502  -4.606  0.00  0.00    +0.176 A 
ATOM     14  C   UNL     1       0.853   5.672  -4.738  0.00  0.00    +0.036 A 
ATOM     15  C   UNL     1       2.089   7.110  -9.212  0.00  0.00    +0.072 C 
ATOM     16  C   UNL     1       3.548   6.776  -9.448  0.00  0.00    +0.019 C 
ATOM     17  C   UNL     1       3.983   5.970  -8.225  0.00  0.00    +0.021 C 
ATOM     18  C   UNL     1       2.862   7.271  -6.403  0.00  0.00    +0.024 C 
ATOM     19  C   UNL     1       1.233   5.363  -5.920  0.00  0.00    -0.018 A 
ATOM     20  C   UNL     1       2.931   6.940  -5.137  0.00  0.00    +0.153 C 
ENDROOT
BRANCH  20  21
ATOM     21  O   UNL     1       3.425   7.805  -4.175  0.00  0.00    -0.472 OA
ATOM     22  C   UNL     1       4.804   8.017  -3.978  0.00  0.00    +0.252 C 
ENDBRANCH  20  21
BRANCH   1  23
ATOM     23  O   UNL     1       2.905   4.817  -4.013  0.00  0.00    -0.442 OA
BRANCH  23  24
ATOM     24  C   UNL     1       3.476   4.882  -2.758  0.00  0.00    +0.346 C 
ATOM     25  O   UNL     1       4.597   4.278  -2.787  0.00  0.00    -0.247 OA
BRANCH  24  26
ATOM     26  C   UNL     1       2.948   5.351  -1.507  0.00  0.00    +0.225 C 
ATOM     27  O   UNL     1       2.358   4.261  -0.836  0.00  0.00    -0.214 OA
BRANCH  26  28
ATOM     28  C   UNL     1       3.947   5.906  -0.498  0.00  0.00    +0.042 C 
BRANCH  28  29
ATOM     29  C   UNL     1       3.818   7.413  -0.701  0.00  0.00    +0.006 C 
BRANCH  29  30
ATOM     30  C   UNL     1       3.968   8.230   0.517  0.00  0.00    +0.031 C 
BRANCH  30  31
ATOM     31  C   UNL     1       3.453   9.624   0.258  0.00  0.00    +0.127 C 
ATOM     32  O   UNL     1       3.582   9.874  -1.104  0.00  0.00    -0.226 OA
ATOM     33  C   UNL     1       1.991   9.587   0.692  0.00  0.00    +0.033 C 
ATOM     34  C   UNL     1       4.203  10.677   1.025  0.00  0.00    +0.033 C 
ENDBRANCH  30  31
ENDBRANCH  29  30
ENDBRANCH  28  29
ENDBRANCH  26  28
BRANCH  26  35
ATOM     35  C   UNL     1       1.872   6.405  -1.564  0.00  0.00    +0.151 C 
BRANCH  35  36
ATOM     36  C   UNL     1       0.732   5.927  -0.761  0.00  0.00    +0.320 C 
ATOM     37  O   UNL     1       0.578   6.275   0.449  0.00  0.00    -0.250 OA
BRANCH  36  39
ATOM     38  C   UNL     1      -1.598   5.681  -1.211  0.00  0.00    +0.256 C 
ATOM     39  O   UNL     1      -0.326   5.206  -1.315  0.00  0.00    -0.444 OA
ENDBRANCH  36  39
ENDBRANCH  35  36
ENDBRANCH  26  35
ENDBRANCH  24  26
ENDBRANCH  23  24
ENDBRANCH   1  23
TORSDOF 11
ENDMDL
MODEL 4
REMARK VINA RESULT:      -8.0      3.214      7.578
REMARK  Name = 
REMARK  11 active torsions:
REMARK  status: ('A' for Active; 'I' for Inactive)
REMARK    1  A    between atoms: O_2  and  C_3
REMARK    2  A    between atoms: C_3  and  C_5
REMARK    3  A    between atoms: C_5  and  C_6
REMARK    4  A    between atoms: C_6  and  C_8
REMARK    5  A    between atoms: C_6  and  C_15
REMARK    6  A    between atoms: C_8  and  C_9
REMARK    7  A    between atoms: C_9  and  C_10
REMARK    8  A    between atoms: C_10  and  C_11
REMARK    9  A    between atoms: C_15  and  O_17
REMARK   10  A    between atoms: O_17  and  C_18
REMARK   11  A    between atoms: C_19  and  O_20
REMARK                            x       y       z     vdW  Elec       q    Type
REMARK                         _______ _______ _______ _____ _____    ______ ____
ROOT
ATOM      1  C   UNL     1       4.334   7.480  -1.056  0.00  0.00    +0.230 C 
ATOM      2  C   UNL     1       4.157   8.962  -0.220  0.00  0.00    +0.087 C 
ATOM      3  C   UNL     1       4.649   8.295   1.182  0.00  0.00    +0.074 C 
ATOM      4  N   UNL     1       4.093   9.147   2.221  0.00  0.00    -0.271 NA
ATOM      5  C   UNL     1       4.323  10.561   1.945  0.00  0.00    +0.077 C 
ATOM      6  C   UNL     1       3.022  11.219   1.495  0.00  0.00    +0.043 C 
ATOM      7  C   UNL     1       2.250  10.103   0.853  0.00  0.00    -0.021 A 
ATOM      8  C   UNL     1       0.972  10.113   1.408  0.00  0.00    +0.036 A 
ATOM      9  C   UNL     1       0.267   8.914   1.452  0.00  0.00    +0.176 A 
ATOM     10  O   UNL     1      -0.862   8.466   2.143  0.00  0.00    -0.435 OA
ATOM     11  C   UNL     1      -0.885   7.049   1.986  0.00  0.00    +0.429 C 
ATOM     12  O   UNL     1      -0.129   6.830   0.794  0.00  0.00    -0.435 OA
ATOM     13  C   UNL     1       0.575   7.992   0.456  0.00  0.00    +0.176 A 
ATOM     14  C   UNL     1       1.700   8.273  -0.317  0.00  0.00    +0.036 A 
ATOM     15  C   UNL     1       4.813   8.738   3.386  0.00  0.00    +0.072 C 
ATOM     16  C   UNL     1       6.224   8.538   2.868  0.00  0.00    +0.019 C 
ATOM     17  C   UNL     1       6.087   8.432   1.350  0.00  0.00    +0.021 C 
ATOM     18  C   UNL     1       4.046   6.993   1.176  0.00  0.00    +0.024 C 
ATOM     19  C   UNL     1       2.658   8.920   0.232  0.00  0.00    -0.018 A 
ATOM     20  C   UNL     1       3.513   6.636   0.034  0.00  0.00    +0.153 C 
ENDROOT
BRANCH  20  21
ATOM     21  O   UNL     1       3.341   5.308  -0.316  0.00  0.00    -0.472 OA
ATOM     22  C   UNL     1       4.321   4.570  -1.008  0.00  0.00    +0.252 C 
ENDBRANCH  20  21
BRANCH   1  23
ATOM     23  O   UNL     1       3.203   7.801  -2.045  0.00  0.00    -0.442 OA
BRANCH  23  24
ATOM     24  C   UNL     1       3.326   7.270  -3.313  0.00  0.00    +0.346 C 
ATOM     25  O   UNL     1       4.309   7.830  -3.898  0.00  0.00    -0.247 OA
BRANCH  24  26
ATOM     26  C   UNL     1       2.470   6.378  -4.046  0.00  0.00    +0.225 C 
ATOM     27  O   UNL     1       3.277   5.541  -4.843  0.00  0.00    -0.214 OA
BRANCH  26  28
ATOM     28  C   UNL     1       1.624   5.406  -3.232  0.00  0.00    +0.042 C 
BRANCH  28  29
ATOM     29  C   UNL     1       0.237   6.040  -3.301  0.00  0.00    +0.006 C 
BRANCH  29  30
ATOM     30  C   UNL     1      -0.753   5.501  -2.349  0.00  0.00    +0.031 C 
BRANCH  30  31
ATOM     31  C   UNL     1      -2.145   5.827  -2.829  0.00  0.00    +0.127 C 
ATOM     32  O   UNL     1      -2.890   4.653  -2.790  0.00  0.00    -0.226 OA
ATOM     33  C   UNL     1      -2.667   6.863  -1.839  0.00  0.00    +0.033 C 
ATOM     34  C   UNL     1      -2.167   6.378  -4.228  0.00  0.00    +0.033 C 
ENDBRANCH  30  31
ENDBRANCH  29  30
ENDBRANCH  28  29
ENDBRANCH  26  28
BRANCH  26  35
ATOM     35  C   UNL     1       1.485   6.999  -5.003  0.00  0.00    +0.151 C 
BRANCH  35  36
ATOM     36  C   UNL     1       2.020   6.836  -6.367  0.00  0.00    +0.320 C 
ATOM     37  O   UNL     1       2.896   7.625  -6.836  0.00  0.00    -0.250 OA
BRANCH  36  39
ATOM     38  C   UNL     1       2.439   5.500  -8.298  0.00  0.00    +0.256 C 
ATOM     39  O   UNL     1       1.726   5.727  -7.160  0.00  0.00    -0.444 OA
ENDBRANCH  36  39
ENDBRANCH  35  36
ENDBRANCH  26  35
ENDBRANCH  24  26
ENDBRANCH  23  24
ENDBRANCH   1  23
TORSDOF 11
ENDMDL
MODEL 5
REMARK VINA RESULT:      -7.7      3.009      7.772
REMARK  Name = 
REMARK  11 active torsions:
REMARK  status: ('A' for Active; 'I' for Inactive)
REMARK    1  A    between atoms: O_2  and  C_3
REMARK    2  A    between atoms: C_3  and  C_5
REMARK    3  A    between atoms: C_5  and  C_6
REMARK    4  A    between atoms: C_6  and  C_8
REMARK    5  A    between atoms: C_6  and  C_15
REMARK    6  A    between atoms: C_8  and  C_9
REMARK    7  A    between atoms: C_9  and  C_10
REMARK    8  A    between atoms: C_10  and  C_11
REMARK    9  A    between atoms: C_15  and  O_17
REMARK   10  A    between atoms: O_17  and  C_18
REMARK   11  A    between atoms: C_19  and  O_20
REMARK                            x       y       z     vdW  Elec       q    Type
REMARK                         _______ _______ _______ _____ _____    ______ ____
ROOT
ATOM      1  C   UNL     1       3.574   5.501  -5.589  0.00  0.00    +0.230 C 
ATOM      2  C   UNL     1       2.485   4.878  -6.752  0.00  0.00    +0.087 C 
ATOM      3  C   UNL     1       2.653   6.194  -7.697  0.00  0.00    +0.074 C 
ATOM      4  N   UNL     1       1.444   6.236  -8.505  0.00  0.00    -0.271 NA
ATOM      5  C   UNL     1       1.134   4.934  -9.085  0.00  0.00    +0.077 C 
ATOM      6  C   UNL     1      -0.052   4.311  -8.354  0.00  0.00    +0.043 C 
ATOM      7  C   UNL     1       0.027   4.887  -6.970  0.00  0.00    -0.021 A 
ATOM      8  C   UNL     1      -1.238   5.383  -6.658  0.00  0.00    +0.036 A 
ATOM      9  C   UNL     1      -1.324   6.435  -5.751  0.00  0.00    +0.176 A 
ATOM     10  O   UNL     1      -2.321   7.352  -5.406  0.00  0.00    -0.435 OA
ATOM     11  C   UNL     1      -1.676   8.365  -4.636  0.00  0.00    +0.429 C 
ATOM     12  O   UNL     1      -0.517   7.710  -4.122  0.00  0.00    -0.435 OA
ATOM     13  C   UNL     1      -0.306   6.506  -4.805  0.00  0.00    +0.176 A 
ATOM     14  C   UNL     1       0.790   5.671  -5.014  0.00  0.00    +0.036 A 
ATOM     15  C   UNL     1       1.779   7.176  -9.528  0.00  0.00    +0.072 C 
ATOM     16  C   UNL     1       3.220   6.835  -9.853  0.00  0.00    +0.019 C 
ATOM     17  C   UNL     1       3.718   6.006  -8.670  0.00  0.00    +0.021 C 
ATOM     18  C   UNL     1       2.713   7.284  -6.765  0.00  0.00    +0.024 C 
ATOM     19  C   UNL     1       1.099   5.379  -6.221  0.00  0.00    -0.018 A 
ATOM     20  C   UNL     1       2.851   6.932  -5.511  0.00  0.00    +0.153 C 
ENDROOT
BRANCH  20  21
ATOM     21  O   UNL     1       3.407   7.776  -4.564  0.00  0.00    -0.472 OA
ATOM     22  C   UNL     1       4.796   7.879  -4.358  0.00  0.00    +0.252 C 
ENDBRANCH  20  21
BRANCH   1  23
ATOM     23  O   UNL     1       2.873   4.789  -4.422  0.00  0.00    -0.442 OA
BRANCH  23  24
ATOM     24  C   UNL     1       3.441   4.947  -3.174  0.00  0.00    +0.346 C 
ATOM     25  O   UNL     1       4.658   4.571  -3.228  0.00  0.00    -0.247 OA
BRANCH  24  26
ATOM     26  C   UNL     1       2.853   5.288  -1.908  0.00  0.00    +0.225 C 
ATOM     27  O   UNL     1       2.523   6.658  -1.925  0.00  0.00    -0.214 OA
BRANCH  26  28
ATOM     28  C   UNL     1       1.543   4.598  -1.546  0.00  0.00    +0.042 C 
BRANCH  28  29
ATOM     29  C   UNL     1       0.622   5.777  -1.247  0.00  0.00    +0.006 C 
BRANCH  29  30
ATOM     30  C   UNL     1      -0.822   5.479  -1.294  0.00  0.00    +0.031 C 
BRANCH  30  31
ATOM     31  C   UNL     1      -1.598   6.648  -0.739  0.00  0.00    +0.127 C 
ATOM     32  O   UNL     1      -0.795   7.778  -0.851  0.00  0.00    -0.226 OA
ATOM     33  C   UNL     1      -2.841   6.744  -1.616  0.00  0.00    +0.033 C 
ATOM     34  C   UNL     1      -1.985   6.460   0.703  0.00  0.00    +0.033 C 
ENDBRANCH  30  31
ENDBRANCH  29  30
ENDBRANCH  28  29
ENDBRANCH  26  28
BRANCH  26  35
ATOM     35  C   UNL     1       3.707   5.106  -0.680  0.00  0.00    +0.151 C 
BRANCH  35  36
ATOM     36  C   UNL     1       3.911   6.433  -0.073  0.00  0.00    +0.320 C 
ATOM     37  O   UNL     1       3.057   6.942   0.715  0.00  0.00    -0.250 OA
BRANCH  36  39
ATOM     38  C   UNL     1       5.642   7.756   0.898  0.00  0.00    +0.256 C 
ATOM     39  O   UNL     1       5.110   7.137  -0.191  0.00  0.00    -0.444 OA
ENDBRANCH  36  39
ENDBRANCH  35  36
ENDBRANCH  26  35
ENDBRANCH  24  26
ENDBRANCH  23  24
ENDBRANCH   1  23
TORSDOF 11
ENDMDL
MODEL 6
REMARK VINA RESULT:      -7.6      3.119      6.335
REMARK  Name = 
REMARK  11 active torsions:
REMARK  status: ('A' for Active; 'I' for Inactive)
REMARK    1  A    between atoms: O_2  and  C_3
REMARK    2  A    between atoms: C_3  and  C_5
REMARK    3  A    between atoms: C_5  and  C_6
REMARK    4  A    between atoms: C_6  and  C_8
REMARK    5  A    between atoms: C_6  and  C_15
REMARK    6  A    between atoms: C_8  and  C_9
REMARK    7  A    between atoms: C_9  and  C_10
REMARK    8  A    between atoms: C_10  and  C_11
REMARK    9  A    between atoms: C_15  and  O_17
REMARK   10  A    between atoms: O_17  and  C_18
REMARK   11  A    between atoms: C_19  and  O_20
REMARK                            x       y       z     vdW  Elec       q    Type
REMARK                         _______ _______ _______ _____ _____    ______ ____
ROOT
ATOM      1  C   UNL     1       4.426   7.467  -1.007  0.00  0.00    +0.230 C 
ATOM      2  C   UNL     1       4.249   8.941  -0.156  0.00  0.00    +0.087 C 
ATOM      3  C   UNL     1       4.690   8.247   1.250  0.00  0.00    +0.074 C 
ATOM      4  N   UNL     1       4.118   9.095   2.285  0.00  0.00    -0.271 NA
ATOM      5  C   UNL     1       4.379  10.508   2.034  0.00  0.00    +0.077 C 
ATOM      6  C   UNL     1       3.102  11.194   1.557  0.00  0.00    +0.043 C 
ATOM      7  C   UNL     1       2.331  10.099   0.877  0.00  0.00    -0.021 A 
ATOM      8  C   UNL     1       1.038  10.123   1.397  0.00  0.00    +0.036 A 
ATOM      9  C   UNL     1       0.313   8.935   1.404  0.00  0.00    +0.176 A 
ATOM     10  O   UNL     1      -0.843   8.497   2.056  0.00  0.00    -0.435 OA
ATOM     11  C   UNL     1      -0.884   7.082   1.879  0.00  0.00    +0.429 C 
ATOM     12  O   UNL     1      -0.098   6.867   0.707  0.00  0.00    -0.435 OA
ATOM     13  C   UNL     1       0.634   8.021   0.405  0.00  0.00    +0.176 A 
ATOM     14  C   UNL     1       1.785   8.293  -0.332  0.00  0.00    +0.036 A 
ATOM     15  C   UNL     1       4.798   8.658   3.463  0.00  0.00    +0.072 C 
ATOM     16  C   UNL     1       6.219   8.441   2.983  0.00  0.00    +0.019 C 
ATOM     17  C   UNL     1       6.125   8.358   1.460  0.00  0.00    +0.021 C 
ATOM     18  C   UNL     1       4.066   6.956   1.209  0.00  0.00    +0.024 C 
ATOM     19  C   UNL     1       2.737   8.917   0.252  0.00  0.00    -0.018 A 
ATOM     20  C   UNL     1       3.560   6.622   0.047  0.00  0.00    +0.153 C 
ENDROOT
BRANCH  20  21
ATOM     21  O   UNL     1       3.377   5.302  -0.326  0.00  0.00    -0.472 OA
ATOM     22  C   UNL     1       4.329   4.583  -1.075  0.00  0.00    +0.252 C 
ENDBRANCH  20  21
BRANCH   1  23
ATOM     23  O   UNL     1       3.329   7.820  -2.023  0.00  0.00    -0.442 OA
BRANCH  23  24
ATOM     24  C   UNL     1       3.517   7.368  -3.313  0.00  0.00    +0.346 C 
ATOM     25  O   UNL     1       4.445   8.052  -3.856  0.00  0.00    -0.247 OA
BRANCH  24  26
ATOM     26  C   UNL     1       2.764   6.432  -4.102  0.00  0.00    +0.225 C 
ATOM     27  O   UNL     1       2.189   7.124  -5.187  0.00  0.00    -0.214 OA
BRANCH  26  28
ATOM     28  C   UNL     1       3.542   5.298  -4.760  0.00  0.00    +0.042 C 
BRANCH  28  29
ATOM     29  C   UNL     1       3.481   5.672  -6.239  0.00  0.00    +0.006 C 
BRANCH  29  30
ATOM     30  C   UNL     1       4.729   5.461  -6.996  0.00  0.00    +0.031 C 
BRANCH  30  31
ATOM     31  C   UNL     1       4.433   5.489  -8.475  0.00  0.00    +0.127 C 
ATOM     32  O   UNL     1       3.647   6.608  -8.726  0.00  0.00    -0.226 OA
ATOM     33  C   UNL     1       5.799   5.593  -9.145  0.00  0.00    +0.033 C 
ATOM     34  C   UNL     1       3.707   4.260  -8.949  0.00  0.00    +0.033 C 
ENDBRANCH  30  31
ENDBRANCH  29  30
ENDBRANCH  28  29
ENDBRANCH  26  28
BRANCH  26  35
ATOM     35  C   UNL     1       1.611   5.733  -3.428  0.00  0.00    +0.151 C 
BRANCH  35  36
ATOM     36  C   UNL     1       0.415   5.930  -4.266  0.00  0.00    +0.320 C 
ATOM     37  O   UNL     1       0.077   5.086  -5.152  0.00  0.00    -0.250 OA
BRANCH  36  39
ATOM     38  C   UNL     1      -1.611   7.062  -4.820  0.00  0.00    +0.256 C 
ATOM     39  O   UNL     1      -0.503   6.954  -4.035  0.00  0.00    -0.444 OA
ENDBRANCH  36  39
ENDBRANCH  35  36
ENDBRANCH  26  35
ENDBRANCH  24  26
ENDBRANCH  23  24
ENDBRANCH   1  23
TORSDOF 11
ENDMDL
MODEL 7
REMARK VINA RESULT:      -6.5      6.077     11.053
REMARK  Name = 
REMARK  11 active torsions:
REMARK  status: ('A' for Active; 'I' for Inactive)
REMARK    1  A    between atoms: O_2  and  C_3
REMARK    2  A    between atoms: C_3  and  C_5
REMARK    3  A    between atoms: C_5  and  C_6
REMARK    4  A    between atoms: C_6  and  C_8
REMARK    5  A    between atoms: C_6  and  C_15
REMARK    6  A    between atoms: C_8  and  C_9
REMARK    7  A    between atoms: C_9  and  C_10
REMARK    8  A    between atoms: C_10  and  C_11
REMARK    9  A    between atoms: C_15  and  O_17
REMARK   10  A    between atoms: O_17  and  C_18
REMARK   11  A    between atoms: C_19  and  O_20
REMARK                            x       y       z     vdW  Elec       q    Type
REMARK                         _______ _______ _______ _____ _____    ______ ____
ROOT
ATOM      1  C   UNL     1       5.843  12.615   1.976  0.00  0.00    +0.230 C 
ATOM      2  C   UNL     1       7.210  12.740   0.955  0.00  0.00    +0.087 C 
ATOM      3  C   UNL     1       7.766  14.039   1.765  0.00  0.00    +0.074 C 
ATOM      4  N   UNL     1       8.629  14.732   0.820  0.00  0.00    -0.271 NA
ATOM      5  C   UNL     1       9.548  13.817   0.153  0.00  0.00    +0.077 C 
ATOM      6  C   UNL     1       9.100  13.591  -1.288  0.00  0.00    +0.043 C 
ATOM      7  C   UNL     1       7.612  13.788  -1.243  0.00  0.00    -0.021 A 
ATOM      8  C   UNL     1       7.283  14.677  -2.265  0.00  0.00    +0.036 A 
ATOM      9  C   UNL     1       6.145  15.463  -2.109  0.00  0.00    +0.176 A 
ATOM     10  O   UNL     1       5.654  16.612  -2.735  0.00  0.00    -0.435 OA
ATOM     11  C   UNL     1       4.601  17.095  -1.904  0.00  0.00    +0.429 C 
ATOM     12  O   UNL     1       4.183  15.936  -1.182  0.00  0.00    -0.435 OA
ATOM     13  C   UNL     1       5.135  14.919  -1.321  0.00  0.00    +0.176 A 
ATOM     14  C   UNL     1       5.466  13.775  -0.598  0.00  0.00    +0.036 A 
ATOM     15  C   UNL     1       9.345  15.644   1.655  0.00  0.00    +0.072 C 
ATOM     16  C   UNL     1       9.632  14.825   2.898  0.00  0.00    +0.019 C 
ATOM     17  C   UNL     1       8.668  13.641   2.835  0.00  0.00    +0.021 C 
ATOM     18  C   UNL     1       6.583  14.794   2.063  0.00  0.00    +0.024 C 
ATOM     19  C   UNL     1       6.679  13.638  -0.214  0.00  0.00    -0.018 A 
ATOM     20  C   UNL     1       5.456  14.166   1.838  0.00  0.00    +0.153 C 
ENDROOT
BRANCH  20  21
ATOM     21  O   UNL     1       4.282  14.499   2.494  0.00  0.00    -0.472 OA
ATOM     22  C   UNL     1       3.857  13.850   3.670  0.00  0.00    +0.252 C 
ENDBRANCH  20  21
BRANCH   1  23
ATOM     23  O   UNL     1       4.959  12.024   0.868  0.00  0.00    -0.442 OA
BRANCH  23  24
ATOM     24  C   UNL     1       4.347  10.819   1.145  0.00  0.00    +0.346 C 
ATOM     25  O   UNL     1       4.719  10.428   2.300  0.00  0.00    -0.247 OA
BRANCH  24  26
ATOM     26  C   UNL     1       3.557   9.951   0.316  0.00  0.00    +0.225 C 
ATOM     27  O   UNL     1       3.546  10.474  -0.993  0.00  0.00    -0.214 OA
BRANCH  26  28
ATOM     28  C   UNL     1       4.056   8.522   0.136  0.00  0.00    +0.042 C 
BRANCH  28  29
ATOM     29  C   UNL     1       3.925   8.315  -1.370  0.00  0.00    +0.006 C 
BRANCH  29  30
ATOM     30  C   UNL     1       3.723   6.918  -1.800  0.00  0.00    +0.031 C 
BRANCH  30  31
ATOM     31  C   UNL     1       3.992   6.801  -3.280  0.00  0.00    +0.127 C 
ATOM     32  O   UNL     1       4.552   5.549  -3.509  0.00  0.00    -0.226 OA
ATOM     33  C   UNL     1       2.623   6.941  -3.938  0.00  0.00    +0.033 C 
ATOM     34  C   UNL     1       4.930   7.861  -3.789  0.00  0.00    +0.033 C 
ENDBRANCH  30  31
ENDBRANCH  29  30
ENDBRANCH  28  29
ENDBRANCH  26  28
BRANCH  26  35
ATOM     35  C   UNL     1       2.105   9.782   0.682  0.00  0.00    +0.151 C 
BRANCH  35  36
ATOM     36  C   UNL     1       2.006   8.643   1.612  0.00  0.00    +0.320 C 
ATOM     37  O   UNL     1       2.146   8.792   2.864  0.00  0.00    -0.250 OA
BRANCH  36  39
ATOM     38  C   UNL     1       0.554   7.246   0.334  0.00  0.00    +0.256 C 
ATOM     39  O   UNL     1       1.595   7.374   1.203  0.00  0.00    -0.444 OA
ENDBRANCH  36  39
ENDBRANCH  35  36
ENDBRANCH  26  35
ENDBRANCH  24  26
ENDBRANCH  23  24
ENDBRANCH   1  23
TORSDOF 11
ENDMDL
MODEL 8
REMARK VINA RESULT:      -6.3      2.982      6.345
REMARK  Name = 
REMARK  11 active torsions:
REMARK  status: ('A' for Active; 'I' for Inactive)
REMARK    1  A    between atoms: O_2  and  C_3
REMARK    2  A    between atoms: C_3  and  C_5
REMARK    3  A    between atoms: C_5  and  C_6
REMARK    4  A    between atoms: C_6  and  C_8
REMARK    5  A    between atoms: C_6  and  C_15
REMARK    6  A    between atoms: C_8  and  C_9
REMARK    7  A    between atoms: C_9  and  C_10
REMARK    8  A    between atoms: C_10  and  C_11
REMARK    9  A    between atoms: C_15  and  O_17
REMARK   10  A    between atoms: O_17  and  C_18
REMARK   11  A    between atoms: C_19  and  O_20
REMARK                            x       y       z     vdW  Elec       q    Type
REMARK                         _______ _______ _______ _____ _____    ______ ____
ROOT
ATOM      1  C   UNL     1       3.205   6.819  -1.665  0.00  0.00    +0.230 C 
ATOM      2  C   UNL     1       3.370   8.364  -0.947  0.00  0.00    +0.087 C 
ATOM      3  C   UNL     1       4.147   7.743   0.343  0.00  0.00    +0.074 C 
ATOM      4  N   UNL     1       3.947   8.714   1.407  0.00  0.00    -0.271 NA
ATOM      5  C   UNL     1       4.214  10.076   0.957  0.00  0.00    +0.077 C 
ATOM      6  C   UNL     1       2.900  10.833   0.787  0.00  0.00    +0.043 C 
ATOM      7  C   UNL     1       1.900   9.762   0.459  0.00  0.00    -0.021 A 
ATOM      8  C   UNL     1       0.812   9.939   1.311  0.00  0.00    +0.036 A 
ATOM      9  C   UNL     1       0.045   8.824   1.635  0.00  0.00    +0.176 A 
ATOM     10  O   UNL     1      -0.903   8.540   2.622  0.00  0.00    -0.435 OA
ATOM     11  C   UNL     1      -1.082   7.125   2.603  0.00  0.00    +0.429 C 
ATOM     12  O   UNL     1      -0.676   6.753   1.286  0.00  0.00    -0.435 OA
ATOM     13  C   UNL     1       0.012   7.812   0.681  0.00  0.00    +0.176 A 
ATOM     14  C   UNL     1       0.922   7.924  -0.369  0.00  0.00    +0.036 A 
ATOM     15  C   UNL     1       4.904   8.312   2.388  0.00  0.00    +0.072 C 
ATOM     16  C   UNL     1       6.114   7.934   1.557  0.00  0.00    +0.019 C 
ATOM     17  C   UNL     1       5.586   7.743   0.136  0.00  0.00    +0.021 C 
ATOM     18  C   UNL     1       3.457   6.512   0.604  0.00  0.00    +0.024 C 
ATOM     19  C   UNL     1       2.037   8.505  -0.135  0.00  0.00    -0.018 A 
ATOM     20  C   UNL     1       2.622   6.137  -0.334  0.00  0.00    +0.153 C 
ENDROOT
BRANCH  20  21
ATOM     21  O   UNL     1       2.258   4.813  -0.510  0.00  0.00    -0.472 OA
ATOM     22  C   UNL     1       3.139   3.844  -1.028  0.00  0.00    +0.252 C 
ENDBRANCH  20  21
BRANCH   1  23
ATOM     23  O   UNL     1       1.889   7.188  -2.367  0.00  0.00    -0.442 OA
BRANCH  23  24
ATOM     24  C   UNL     1       1.521   6.400  -3.437  0.00  0.00    +0.346 C 
ATOM     25  O   UNL     1       0.703   5.512  -3.029  0.00  0.00    -0.247 OA
BRANCH  24  26
ATOM     26  C   UNL     1       2.018   6.349  -4.784  0.00  0.00    +0.225 C 
ATOM     27  O   UNL     1       2.454   5.035  -5.049  0.00  0.00    -0.214 OA
BRANCH  26  28
ATOM     28  C   UNL     1       1.021   6.637  -5.901  0.00  0.00    +0.042 C 
BRANCH  28  29
ATOM     29  C   UNL     1       1.054   5.345  -6.713  0.00  0.00    +0.006 C 
BRANCH  29  30
ATOM     30  C   UNL     1       0.558   5.456  -8.098  0.00  0.00    +0.031 C 
BRANCH  30  31
ATOM     31  C   UNL     1       1.643   5.033  -9.058  0.00  0.00    +0.127 C 
ATOM     32  O   UNL     1       1.024   4.531 -10.198  0.00  0.00    -0.226 OA
ATOM     33  C   UNL     1       2.424   6.309  -9.351  0.00  0.00    +0.033 C 
ATOM     34  C   UNL     1       2.551   3.979  -8.486  0.00  0.00    +0.033 C 
ENDBRANCH  30  31
ENDBRANCH  29  30
ENDBRANCH  28  29
ENDBRANCH  26  28
BRANCH  26  35
ATOM     35  C   UNL     1       3.196   7.227  -5.118  0.00  0.00    +0.151 C 
BRANCH  35  36
ATOM     36  C   UNL     1       4.366   6.353  -5.320  0.00  0.00    +0.320 C 
ATOM     37  O   UNL     1       4.633   5.851  -6.453  0.00  0.00    -0.250 OA
BRANCH  36  39
ATOM     38  C   UNL     1       5.922   7.229  -3.737  0.00  0.00    +0.256 C 
ATOM     39  O   UNL     1       5.334   6.156  -4.335  0.00  0.00    -0.444 OA
ENDBRANCH  36  39
ENDBRANCH  35  36
ENDBRANCH  26  35
ENDBRANCH  24  26
ENDBRANCH  23  24
ENDBRANCH   1  23
TORSDOF 11
ENDMDL
MODEL 9
REMARK VINA RESULT:      -6.2      1.999      3.753
REMARK  Name = 
REMARK  11 active torsions:
REMARK  status: ('A' for Active; 'I' for Inactive)
REMARK    1  A    between atoms: O_2  and  C_3
REMARK    2  A    between atoms: C_3  and  C_5
REMARK    3  A    between atoms: C_5  and  C_6
REMARK    4  A    between atoms: C_6  and  C_8
REMARK    5  A    between atoms: C_6  and  C_15
REMARK    6  A    between atoms: C_8  and  C_9
REMARK    7  A    between atoms: C_9  and  C_10
REMARK    8  A    between atoms: C_10  and  C_11
REMARK    9  A    between atoms: C_15  and  O_17
REMARK   10  A    between atoms: O_17  and  C_18
REMARK   11  A    between atoms: C_19  and  O_20
REMARK                            x       y       z     vdW  Elec       q    Type
REMARK                         _______ _______ _______ _____ _____    ______ ____
ROOT
ATOM      1  C   UNL     1       3.362   5.955  -5.325  0.00  0.00    +0.230 C 
ATOM      2  C   UNL     1       3.320   6.643  -3.758  0.00  0.00    +0.087 C 
ATOM      3  C   UNL     1       3.472   5.183  -3.053  0.00  0.00    +0.074 C 
ATOM      4  N   UNL     1       2.921   5.349  -1.717  0.00  0.00    -0.271 NA
ATOM      5  C   UNL     1       3.431   6.551  -1.066  0.00  0.00    +0.077 C 
ATOM      6  C   UNL     1       2.346   7.624  -1.035  0.00  0.00    +0.043 C 
ATOM      7  C   UNL     1       1.499   7.322  -2.238  0.00  0.00    -0.021 A 
ATOM      8  C   UNL     1       0.173   7.292  -1.810  0.00  0.00    +0.036 A 
ATOM      9  C   UNL     1      -0.727   6.503  -2.520  0.00  0.00    +0.176 A 
ATOM     10  O   UNL     1      -2.008   6.005  -2.264  0.00  0.00    -0.435 OA
ATOM     11  C   UNL     1      -2.251   5.011  -3.257  0.00  0.00    +0.429 C 
ATOM     12  O   UNL     1      -1.374   5.377  -4.322  0.00  0.00    -0.435 OA
ATOM     13  C   UNL     1      -0.437   6.313  -3.868  0.00  0.00    +0.176 A 
ATOM     14  C   UNL     1       0.824   6.731  -4.291  0.00  0.00    +0.036 A 
ATOM     15  C   UNL     1       3.376   4.178  -1.038  0.00  0.00    +0.072 C 
ATOM     16  C   UNL     1       4.792   4.008  -1.550  0.00  0.00    +0.019 C 
ATOM     17  C   UNL     1       4.870   4.859  -2.816  0.00  0.00    +0.021 C 
ATOM     18  C   UNL     1       2.661   4.320  -3.863  0.00  0.00    +0.024 C 
ATOM     19  C   UNL     1       1.785   6.685  -3.448  0.00  0.00    -0.018 A 
ATOM     20  C   UNL     1       2.252   4.845  -4.992  0.00  0.00    +0.153 C 
ENDROOT
BRANCH  20  21
ATOM     21  O   UNL     1       1.908   4.069  -6.085  0.00  0.00    -0.472 OA
ATOM     22  C   UNL     1       0.632   4.114  -6.680  0.00  0.00    +0.252 C 
ENDBRANCH  20  21
BRANCH   1  23
ATOM     23  O   UNL     1       2.466   7.050  -5.925  0.00  0.00    -0.442 OA
BRANCH  23  24
ATOM     24  C   UNL     1       2.649   7.329  -7.264  0.00  0.00    +0.346 C 
ATOM     25  O   UNL     1       2.037   8.411  -7.543  0.00  0.00    -0.247 OA
BRANCH  24  26
ATOM     26  C   UNL     1       3.239   6.549  -8.316  0.00  0.00    +0.225 C 
ATOM     27  O   UNL     1       3.718   7.428  -9.308  0.00  0.00    -0.214 OA
BRANCH  26  28
ATOM     28  C   UNL     1       4.457   5.706  -7.953  0.00  0.00    +0.042 C 
BRANCH  28  29
ATOM     29  C   UNL     1       5.070   5.409  -9.318  0.00  0.00    +0.006 C 
BRANCH  29  30
ATOM     30  C   UNL     1       6.511   5.700  -9.441  0.00  0.00    +0.031 C 
BRANCH  30  31
ATOM     31  C   UNL     1       6.835   6.055 -10.872  0.00  0.00    +0.127 C 
ATOM     32  O   UNL     1       5.755   5.663 -11.657  0.00  0.00    -0.226 OA
ATOM     33  C   UNL     1       7.014   7.569 -10.868  0.00  0.00    +0.033 C 
ATOM     34  C   UNL     1       8.081   5.379 -11.374  0.00  0.00    +0.033 C 
ENDBRANCH  30  31
ENDBRANCH  29  30
ENDBRANCH  28  29
ENDBRANCH  26  28
BRANCH  26  35
ATOM     35  C   UNL     1       2.341   5.585  -9.047  0.00  0.00    +0.151 C 
BRANCH  35  36
ATOM     36  C   UNL     1       1.804   6.280 -10.231  0.00  0.00    +0.320 C 
ATOM     37  O   UNL     1       2.243   6.044 -11.397  0.00  0.00    -0.250 OA
BRANCH  36  39
ATOM     38  C   UNL     1      -0.179   7.161 -11.223  0.00  0.00    +0.256 C 
ATOM     39  O   UNL     1       0.684   7.109 -10.170  0.00  0.00    -0.444 OA
ENDBRANCH  36  39
ENDBRANCH  35  36
ENDBRANCH  26  35
ENDBRANCH  24  26
ENDBRANCH  23  24
ENDBRANCH   1  23
TORSDOF 11
ENDMDL
