MODEL 1
REMARK VINA RESULT:      -8.3      0.000      0.000
REMARK  Name = 
REMARK  3 active torsions:
REMARK  status: ('A' for Active; 'I' for Inactive)
REMARK    1  A    between atoms: C_2  and  O_4
REMARK    2  A    between atoms: O_4  and  C_5
REMARK    3  A    between atoms: C_5  and  C_6
REMARK                            x       y       z     vdW  Elec       q    Type
REMARK                         _______ _______ _______ _____ _____    ______ ____
ROOT
ATOM      1  C   UNL     1       1.740   5.634  -7.841  0.00  0.00    +0.186 C 
ATOM      2  C   UNL     1       1.342   5.638  -6.443  0.00  0.00    +0.040 C 
ATOM      3  C   UNL     1      -0.058   6.419  -6.618  0.00  0.00    +0.008 C 
ATOM      4  C   UNL     1      -0.688   5.785  -5.186  0.00  0.00    +0.022 C 
ATOM      5  C   UNL     1       0.164   6.893  -4.242  0.00  0.00    +0.008 C 
ATOM      6  C   UNL     1       1.452   5.916  -4.108  0.00  0.00    +0.001 C 
ATOM      7  C   UNL     1      -0.501   6.394  -2.858  0.00  0.00    +0.020 C 
ATOM      8  C   UNL     1      -1.740   7.231  -2.881  0.00  0.00    -0.020 C 
ATOM      9  C   UNL     1      -2.202   7.745  -1.775  0.00  0.00    +0.033 C 
ATOM     10  C   UNL     1      -1.444   7.701  -0.531  0.00  0.00    +0.173 C 
ATOM     11  C   UNL     1      -0.378   6.660  -0.459  0.00  0.00    +0.069 C 
ATOM     12  O   UNL     1      -1.580   8.518   0.403  0.00  0.00    -0.291 OA
ATOM     13  C   UNL     1      -2.529   7.051  -4.106  0.00  0.00    -0.009 C 
ATOM     14  C   UNL     1      -0.754   4.949  -2.865  0.00  0.00    +0.004 C 
ATOM     15  C   UNL     1       0.424   6.744  -1.741  0.00  0.00    +0.012 C 
ATOM     16  C   UNL     1      -1.958   6.722  -5.259  0.00  0.00    -0.027 C 
ATOM     17  C   UNL     1      -0.638   5.208  -7.520  0.00  0.00    +0.004 C 
ATOM     18  C   UNL     1       1.000   4.183  -6.128  0.00  0.00    +0.004 C 
ATOM     19  C   UNL     1       2.156   6.287  -5.418  0.00  0.00    +0.004 C 
ATOM     20  C   UNL     1       0.559   4.841  -8.390  0.00  0.00    +0.047 C 
ENDROOT
BRANCH   1  21
ATOM     21  C   UNL     1       3.032   4.964  -8.003  0.00  0.00    +0.187 C 
ATOM     22  O   UNL     1       2.987   3.856  -8.536  0.00  0.00    -0.292 OA
ATOM     23  C   UNL     1       4.358   5.537  -7.720  0.00  0.00    +0.076 C 
ENDBRANCH   1  21
BRANCH   1  24
ATOM     24  O   UNL     1       1.741   6.828  -8.564  0.00  0.00    -0.449 OA
BRANCH  24  26
ATOM     25  C   UNL     1       0.351   6.844 -10.662  0.00  0.00    +0.121 C 
ATOM     26  C   UNL     1       1.580   6.674  -9.948  0.00  0.00    +0.318 C 
ATOM     27  O   UNL     1       2.630   6.406 -10.607  0.00  0.00    -0.250 OA
ENDBRANCH  24  26
ENDBRANCH   1  24
TORSDOF 3
ENDMDL
MODEL 2
REMARK VINA RESULT:      -8.3      2.443      7.370
REMARK  Name = 
REMARK  3 active torsions:
REMARK  status: ('A' for Active; 'I' for Inactive)
REMARK    1  A    between atoms: C_2  and  O_4
REMARK    2  A    between atoms: O_4  and  C_5
REMARK    3  A    between atoms: C_5  and  C_6
REMARK                            x       y       z     vdW  Elec       q    Type
REMARK                         _______ _______ _______ _____ _____    ______ ____
ROOT
ATOM      1  C   UNL     1       2.261   6.193  -4.291  0.00  0.00    +0.186 C 
ATOM      2  C   UNL     1       1.852   5.892  -5.653  0.00  0.00    +0.040 C 
ATOM      3  C   UNL     1       3.200   6.376  -6.396  0.00  0.00    +0.008 C 
ATOM      4  C   UNL     1       2.906   5.405  -7.744  0.00  0.00    +0.022 C 
ATOM      5  C   UNL     1       1.795   6.506  -8.378  0.00  0.00    +0.008 C 
ATOM      6  C   UNL     1       0.545   5.816  -7.609  0.00  0.00    +0.001 C 
ATOM      7  C   UNL     1       1.570   5.664  -9.738  0.00  0.00    +0.020 C 
ATOM      8  C   UNL     1       2.706   6.212 -10.541  0.00  0.00    -0.020 C 
ATOM      9  C   UNL     1       2.557   6.436 -11.817  0.00  0.00    +0.033 C 
ATOM     10  C   UNL     1       1.252   6.358 -12.464  0.00  0.00    +0.173 C 
ATOM     11  C   UNL     1       0.216   5.569 -11.738  0.00  0.00    +0.069 C 
ATOM     12  O   UNL     1       0.951   6.970 -13.509  0.00  0.00    -0.291 OA
ATOM     13  C   UNL     1       4.004   6.065  -9.870  0.00  0.00    -0.009 C 
ATOM     14  C   UNL     1       1.644   4.218  -9.503  0.00  0.00    +0.004 C 
ATOM     15  C   UNL     1       0.232   6.022 -10.293  0.00  0.00    +0.012 C 
ATOM     16  C   UNL     1       4.104   6.051  -8.546  0.00  0.00    -0.027 C 
ATOM     17  C   UNL     1       4.049   5.228  -5.636  0.00  0.00    +0.004 C 
ATOM     18  C   UNL     1       1.830   4.367  -5.728  0.00  0.00    +0.004 C 
ATOM     19  C   UNL     1       0.686   6.529  -6.260  0.00  0.00    +0.004 C 
ATOM     20  C   UNL     1       3.468   5.265  -4.227  0.00  0.00    +0.047 C 
ENDROOT
BRANCH   1  21
ATOM     21  C   UNL     1       1.195   5.847  -3.348  0.00  0.00    +0.187 C 
ATOM     22  O   UNL     1       1.486   4.988  -2.518  0.00  0.00    -0.292 OA
ATOM     23  C   UNL     1      -0.111   6.513  -3.220  0.00  0.00    +0.076 C 
ENDBRANCH   1  21
BRANCH   1  24
ATOM     24  O   UNL     1       2.761   7.459  -3.982  0.00  0.00    -0.449 OA
BRANCH  24  26
ATOM     25  C   UNL     1       5.082   7.466  -3.006  0.00  0.00    +0.121 C 
ATOM     26  C   UNL     1       3.654   7.488  -2.902  0.00  0.00    +0.318 C 
ATOM     27  O   UNL     1       3.133   7.587  -1.749  0.00  0.00    -0.250 OA
ENDBRANCH  24  26
ENDBRANCH   1  24
TORSDOF 3
ENDMDL
MODEL 3
REMARK VINA RESULT:      -8.2      1.633      3.442
REMARK  Name = 
REMARK  3 active torsions:
REMARK  status: ('A' for Active; 'I' for Inactive)
REMARK    1  A    between atoms: C_2  and  O_4
REMARK    2  A    between atoms: O_4  and  C_5
REMARK    3  A    between atoms: C_5  and  C_6
REMARK                            x       y       z     vdW  Elec       q    Type
REMARK                         _______ _______ _______ _____ _____    ______ ____
ROOT
ATOM      1  C   UNL     1       2.194   5.638  -9.332  0.00  0.00    +0.186 C 
ATOM      2  C   UNL     1       1.192   5.877  -8.308  0.00  0.00    +0.040 C 
ATOM      3  C   UNL     1       2.171   5.818  -7.028  0.00  0.00    +0.008 C 
ATOM      4  C   UNL     1       1.120   6.732  -6.074  0.00  0.00    +0.022 C 
ATOM      5  C   UNL     1       0.133   5.398  -5.767  0.00  0.00    +0.008 C 
ATOM      6  C   UNL     1      -0.798   5.681  -7.065  0.00  0.00    +0.001 C 
ATOM      7  C   UNL     1      -0.833   6.207  -4.756  0.00  0.00    +0.020 C 
ATOM      8  C   UNL     1      -0.049   6.030  -3.495  0.00  0.00    -0.020 C 
ATOM      9  C   UNL     1      -0.667   5.833  -2.363  0.00  0.00    +0.033 C 
ATOM     10  C   UNL     1      -2.101   5.579  -2.304  0.00  0.00    +0.173 C 
ATOM     11  C   UNL     1      -2.886   6.018  -3.495  0.00  0.00    +0.069 C 
ATOM     12  O   UNL     1      -2.665   4.956  -1.382  0.00  0.00    -0.291 OA
ATOM     13  C   UNL     1       1.338   6.499  -3.614  0.00  0.00    -0.009 C 
ATOM     14  C   UNL     1      -1.003   7.605  -5.166  0.00  0.00    +0.004 C 
ATOM     15  C   UNL     1      -2.157   5.520  -4.725  0.00  0.00    +0.012 C 
ATOM     16  C   UNL     1       1.981   6.479  -4.775  0.00  0.00    -0.027 C 
ATOM     17  C   UNL     1       2.970   7.120  -7.560  0.00  0.00    +0.004 C 
ATOM     18  C   UNL     1       0.788   7.339  -8.488  0.00  0.00    +0.004 C 
ATOM     19  C   UNL     1       0.061   4.972  -8.118  0.00  0.00    +0.004 C 
ATOM     20  C   UNL     1       3.065   6.860  -9.059  0.00  0.00    +0.047 C 
ENDROOT
BRANCH   1  21
ATOM     21  C   UNL     1       1.578   5.633 -10.661  0.00  0.00    +0.187 C 
ATOM     22  O   UNL     1       1.969   6.514 -11.425  0.00  0.00    -0.292 OA
ATOM     23  C   UNL     1       0.660   4.615 -11.197  0.00  0.00    +0.076 C 
ENDBRANCH   1  21
BRANCH   1  24
ATOM     24  O   UNL     1       3.056   4.546  -9.216  0.00  0.00    -0.449 OA
BRANCH  24  26
ATOM     25  C   UNL     1       5.465   4.930  -8.592  0.00  0.00    +0.121 C 
ATOM     26  C   UNL     1       4.393   4.819  -9.536  0.00  0.00    +0.318 C 
ATOM     27  O   UNL     1       4.662   4.930 -10.771  0.00  0.00    -0.250 OA
ENDBRANCH  24  26
ENDBRANCH   1  24
TORSDOF 3
ENDMDL
MODEL 4
REMARK VINA RESULT:      -8.2      2.742      3.999
REMARK  Name = 
REMARK  3 active torsions:
REMARK  status: ('A' for Active; 'I' for Inactive)
REMARK    1  A    between atoms: C_2  and  O_4
REMARK    2  A    between atoms: O_4  and  C_5
REMARK    3  A    between atoms: C_5  and  C_6
REMARK                            x       y       z     vdW  Elec       q    Type
REMARK                         _______ _______ _______ _____ _____    ______ ____
ROOT
ATOM      1  C   UNL     1       1.312   6.190 -10.420  0.00  0.00    +0.186 C 
ATOM      2  C   UNL     1       2.025   5.987  -9.170  0.00  0.00    +0.040 C 
ATOM      3  C   UNL     1       0.909   6.603  -8.181  0.00  0.00    +0.008 C 
ATOM      4  C   UNL     1       1.487   5.739  -6.852  0.00  0.00    +0.022 C 
ATOM      5  C   UNL     1       2.750   6.831  -6.607  0.00  0.00    +0.008 C 
ATOM      6  C   UNL     1       3.759   6.012  -7.578  0.00  0.00    +0.001 C 
ATOM      7  C   UNL     1       3.268   6.100  -5.263  0.00  0.00    +0.020 C 
ATOM      8  C   UNL     1       2.375   6.774  -4.272  0.00  0.00    -0.020 C 
ATOM      9  C   UNL     1       2.831   7.100  -3.095  0.00  0.00    +0.033 C 
ATOM     10  C   UNL     1       4.249   7.009  -2.768  0.00  0.00    +0.173 C 
ATOM     11  C   UNL     1       5.058   6.107  -3.638  0.00  0.00    +0.069 C 
ATOM     12  O   UNL     1       4.811   7.693  -1.888  0.00  0.00    -0.291 OA
ATOM     13  C   UNL     1       0.950   6.637  -4.602  0.00  0.00    -0.009 C 
ATOM     14  C   UNL     1       3.097   4.645  -5.333  0.00  0.00    +0.004 C 
ATOM     15  C   UNL     1       4.711   6.434  -5.076  0.00  0.00    +0.012 C 
ATOM     16  C   UNL     1       0.536   6.514  -5.857  0.00  0.00    -0.027 C 
ATOM     17  C   UNL     1      -0.131   5.439  -8.605  0.00  0.00    +0.004 C 
ATOM     18  C   UNL     1       2.019   4.475  -8.955  0.00  0.00    +0.004 C 
ATOM     19  C   UNL     1       3.321   6.612  -8.919  0.00  0.00    +0.004 C 
ATOM     20  C   UNL     1       0.097   5.323 -10.108  0.00  0.00    +0.047 C 
ENDROOT
BRANCH   1  21
ATOM     21  C   UNL     1       2.111   5.708 -11.549  0.00  0.00    +0.187 C 
ATOM     22  O   UNL     1       1.577   4.840 -12.238  0.00  0.00    -0.292 OA
ATOM     23  C   UNL     1       3.402   6.249 -12.003  0.00  0.00    +0.076 C 
ENDBRANCH   1  21
BRANCH   1  24
ATOM     24  O   UNL     1       0.791   7.448 -10.724  0.00  0.00    -0.449 OA
BRANCH  24  26
ATOM     25  C   UNL     1       0.177   7.615 -13.159  0.00  0.00    +0.121 C 
ATOM     26  C   UNL     1      -0.140   7.459 -11.772  0.00  0.00    +0.318 C 
ATOM     27  O   UNL     1      -1.352   7.269 -11.446  0.00  0.00    -0.250 OA
ENDBRANCH  24  26
ENDBRANCH   1  24
TORSDOF 3
ENDMDL
MODEL 5
REMARK VINA RESULT:      -8.1      3.368      8.393
REMARK  Name = 
REMARK  3 active torsions:
REMARK  status: ('A' for Active; 'I' for Inactive)
REMARK    1  A    between atoms: C_2  and  O_4
REMARK    2  A    between atoms: O_4  and  C_5
REMARK    3  A    between atoms: C_5  and  C_6
REMARK                            x       y       z     vdW  Elec       q    Type
REMARK                         _______ _______ _______ _____ _____    ______ ____
ROOT
ATOM      1  C   UNL     1       2.341   5.747  -6.454  0.00  0.00    +0.186 C 
ATOM      2  C   UNL     1       3.345   5.970  -7.481  0.00  0.00    +0.040 C 
ATOM      3  C   UNL     1       2.398   5.734  -8.765  0.00  0.00    +0.008 C 
ATOM      4  C   UNL     1       3.402   6.637  -9.778  0.00  0.00    +0.022 C 
ATOM      5  C   UNL     1       4.484   5.355  -9.957  0.00  0.00    +0.008 C 
ATOM      6  C   UNL     1       5.367   5.810  -8.675  0.00  0.00    +0.001 C 
ATOM      7  C   UNL     1       5.412   6.142 -11.019  0.00  0.00    +0.020 C 
ATOM      8  C   UNL     1       4.668   5.806 -12.271  0.00  0.00    -0.020 C 
ATOM      9  C   UNL     1       5.320   5.558 -13.373  0.00  0.00    +0.033 C 
ATOM     10  C   UNL     1       6.770   5.401 -13.390  0.00  0.00    +0.173 C 
ATOM     11  C   UNL     1       7.498   5.993 -12.231  0.00  0.00    +0.069 C 
ATOM     12  O   UNL     1       7.394   4.745 -14.248  0.00  0.00    -0.291 OA
ATOM     13  C   UNL     1       3.250   6.183 -12.213  0.00  0.00    -0.009 C 
ATOM     14  C   UNL     1       5.478   7.578 -10.727  0.00  0.00    +0.004 C 
ATOM     15  C   UNL     1       6.781   5.550 -10.972  0.00  0.00    +0.012 C 
ATOM     16  C   UNL     1       2.587   6.215 -11.063  0.00  0.00    -0.027 C 
ATOM     17  C   UNL     1       1.500   7.017  -8.357  0.00  0.00    +0.004 C 
ATOM     18  C   UNL     1       3.644   7.466  -7.420  0.00  0.00    +0.004 C 
ATOM     19  C   UNL     1       4.539   5.134  -7.577  0.00  0.00    +0.004 C 
ATOM     20  C   UNL     1       1.394   6.877  -6.842  0.00  0.00    +0.047 C 
ENDROOT
BRANCH   1  21
ATOM     21  C   UNL     1       2.929   5.897  -5.121  0.00  0.00    +0.187 C 
ATOM     22  O   UNL     1       2.618   6.925  -4.522  0.00  0.00    -0.292 OA
ATOM     23  C   UNL     1       3.728   4.894  -4.398  0.00  0.00    +0.076 C 
ENDBRANCH   1  21
BRANCH   1  24
ATOM     24  O   UNL     1       1.559   4.592  -6.489  0.00  0.00    -0.449 OA
BRANCH  24  26
ATOM     25  C   UNL     1      -0.930   4.839  -6.774  0.00  0.00    +0.121 C 
ATOM     26  C   UNL     1       0.261   4.748  -5.984  0.00  0.00    +0.318 C 
ATOM     27  O   UNL     1       0.150   4.763  -4.720  0.00  0.00    -0.250 OA
ENDBRANCH  24  26
ENDBRANCH   1  24
TORSDOF 3
ENDMDL
MODEL 6
REMARK VINA RESULT:      -7.9      2.682      7.893
REMARK  Name = 
REMARK  3 active torsions:
REMARK  status: ('A' for Active; 'I' for Inactive)
REMARK    1  A    between atoms: C_2  and  O_4
REMARK    2  A    between atoms: O_4  and  C_5
REMARK    3  A    between atoms: C_5  and  C_6
REMARK                            x       y       z     vdW  Elec       q    Type
REMARK                         _______ _______ _______ _____ _____    ______ ____
ROOT
ATOM      1  C   UNL     1       1.932   6.279  -4.496  0.00  0.00    +0.186 C 
ATOM      2  C   UNL     1       2.149   6.008  -5.908  0.00  0.00    +0.040 C 
ATOM      3  C   UNL     1       3.760   6.073  -5.895  0.00  0.00    +0.008 C 
ATOM      4  C   UNL     1       3.893   5.128  -7.287  0.00  0.00    +0.022 C 
ATOM      5  C   UNL     1       3.542   6.438  -8.291  0.00  0.00    +0.008 C 
ATOM      6  C   UNL     1       1.946   6.152  -8.248  0.00  0.00    +0.001 C 
ATOM      7  C   UNL     1       3.772   5.599  -9.651  0.00  0.00    +0.020 C 
ATOM      8  C   UNL     1       5.250   5.777  -9.788  0.00  0.00    -0.020 C 
ATOM      9  C   UNL     1       5.783   5.949 -10.965  0.00  0.00    +0.033 C 
ATOM     10  C   UNL     1       4.967   6.174 -12.153  0.00  0.00    +0.173 C 
ATOM     11  C   UNL     1       3.545   5.734 -12.054  0.00  0.00    +0.069 C 
ATOM     12  O   UNL     1       5.363   6.775 -13.172  0.00  0.00    -0.291 OA
ATOM     13  C   UNL     1       5.990   5.337  -8.598  0.00  0.00    -0.009 C 
ATOM     14  C   UNL     1       3.346   4.203  -9.510  0.00  0.00    +0.004 C 
ATOM     15  C   UNL     1       2.998   6.259 -10.744  0.00  0.00    +0.012 C 
ATOM     16  C   UNL     1       5.449   5.383  -7.386  0.00  0.00    -0.027 C 
ATOM     17  C   UNL     1       3.819   4.793  -4.908  0.00  0.00    +0.004 C 
ATOM     18  C   UNL     1       1.766   4.541  -6.089  0.00  0.00    +0.004 C 
ATOM     19  C   UNL     1       1.617   6.889  -6.945  0.00  0.00    +0.004 C 
ATOM     20  C   UNL     1       2.677   5.072  -3.937  0.00  0.00    +0.047 C 
ENDROOT
BRANCH   1  21
ATOM     21  C   UNL     1       0.499   6.286  -4.190  0.00  0.00    +0.187 C 
ATOM     22  O   UNL     1       0.114   5.380  -3.453  0.00  0.00    -0.292 OA
ATOM     23  C   UNL     1      -0.470   7.329  -4.563  0.00  0.00    +0.076 C 
ENDBRANCH   1  21
BRANCH   1  24
ATOM     24  O   UNL     1       2.539   7.386  -3.902  0.00  0.00    -0.449 OA
BRANCH  24  26
ATOM     25  C   UNL     1       4.425   7.150  -2.250  0.00  0.00    +0.121 C 
ATOM     26  C   UNL     1       3.039   7.158  -2.612  0.00  0.00    +0.318 C 
ATOM     27  O   UNL     1       2.175   6.990  -1.699  0.00  0.00    -0.250 OA
ENDBRANCH  24  26
ENDBRANCH   1  24
TORSDOF 3
ENDMDL
MODEL 7
REMARK VINA RESULT:      -7.8      2.338      3.091
REMARK  Name = 
REMARK  3 active torsions:
REMARK  status: ('A' for Active; 'I' for Inactive)
REMARK    1  A    between atoms: C_2  and  O_4
REMARK    2  A    between atoms: O_4  and  C_5
REMARK    3  A    between atoms: C_5  and  C_6
REMARK                            x       y       z     vdW  Elec       q    Type
REMARK                         _______ _______ _______ _____ _____    ______ ____
ROOT
ATOM      1  C   UNL     1       2.215   5.790  -8.001  0.00  0.00    +0.186 C 
ATOM      2  C   UNL     1       2.743   6.001  -6.664  0.00  0.00    +0.040 C 
ATOM      3  C   UNL     1       1.394   5.674  -5.843  0.00  0.00    +0.008 C 
ATOM      4  C   UNL     1       2.242   5.288  -4.436  0.00  0.00    +0.022 C 
ATOM      5  C   UNL     1       2.455   6.913  -4.039  0.00  0.00    +0.008 C 
ATOM      6  C   UNL     1       3.854   7.016  -4.854  0.00  0.00    +0.001 C 
ATOM      7  C   UNL     1       3.170   6.589  -2.628  0.00  0.00    +0.020 C 
ATOM      8  C   UNL     1       1.949   6.449  -1.776  0.00  0.00    -0.020 C 
ATOM      9  C   UNL     1       1.949   6.901  -0.553  0.00  0.00    +0.033 C 
ATOM     10  C   UNL     1       3.038   7.722  -0.037  0.00  0.00    +0.173 C 
ATOM     11  C   UNL     1       4.329   7.625  -0.777  0.00  0.00    +0.069 C 
ATOM     12  O   UNL     1       2.918   8.537   0.901  0.00  0.00    -0.291 OA
ATOM     13  C   UNL     1       1.003   5.451  -2.292  0.00  0.00    -0.009 C 
ATOM     14  C   UNL     1       3.993   5.378  -2.699  0.00  0.00    +0.004 C 
ATOM     15  C   UNL     1       4.016   7.759  -2.252  0.00  0.00    +0.012 C 
ATOM     16  C   UNL     1       0.912   5.187  -3.590  0.00  0.00    -0.027 C 
ATOM     17  C   UNL     1       1.415   4.150  -6.387  0.00  0.00    +0.004 C 
ATOM     18  C   UNL     1       3.697   4.830  -6.431  0.00  0.00    +0.004 C 
ATOM     19  C   UNL     1       3.284   7.293  -6.249  0.00  0.00    +0.004 C 
ATOM     20  C   UNL     1       1.829   4.324  -7.843  0.00  0.00    +0.047 C 
ENDROOT
BRANCH   1  21
ATOM     21  C   UNL     1       3.254   6.026  -9.006  0.00  0.00    +0.187 C 
ATOM     22  O   UNL     1       3.577   7.203  -9.162  0.00  0.00    -0.292 OA
ATOM     23  C   UNL     1       4.024   5.000  -9.727  0.00  0.00    +0.076 C 
ENDBRANCH   1  21
BRANCH   1  24
ATOM     24  O   UNL     1       1.039   6.434  -8.390  0.00  0.00    -0.449 OA
BRANCH  24  26
ATOM     25  C   UNL     1       0.212   4.874 -10.184  0.00  0.00    +0.121 C 
ATOM     26  C   UNL     1       0.625   6.156  -9.700  0.00  0.00    +0.318 C 
ATOM     27  O   UNL     1       0.579   7.145 -10.494  0.00  0.00    -0.250 OA
ENDBRANCH  24  26
ENDBRANCH   1  24
TORSDOF 3
ENDMDL
MODEL 8
REMARK VINA RESULT:      -7.8      1.705      2.666
REMARK  Name = 
REMARK  3 active torsions:
REMARK  status: ('A' for Active; 'I' for Inactive)
REMARK    1  A    between atoms: C_2  and  O_4
REMARK    2  A    between atoms: O_4  and  C_5
REMARK    3  A    between atoms: C_5  and  C_6
REMARK                            x       y       z     vdW  Elec       q    Type
REMARK                         _______ _______ _______ _____ _____    ______ ____
ROOT
ATOM      1  C   UNL     1       2.403   6.005 -10.222  0.00  0.00    +0.186 C 
ATOM      2  C   UNL     1       2.064   5.927  -8.811  0.00  0.00    +0.040 C 
ATOM      3  C   UNL     1       0.459   5.915  -8.974  0.00  0.00    +0.008 C 
ATOM      4  C   UNL     1       0.228   5.171  -7.477  0.00  0.00    +0.022 C 
ATOM      5  C   UNL     1       0.441   6.624  -6.647  0.00  0.00    +0.008 C 
ATOM      6  C   UNL     1       2.042   6.408  -6.507  0.00  0.00    +0.001 C 
ATOM      7  C   UNL     1       0.113   5.976  -5.204  0.00  0.00    +0.020 C 
ATOM      8  C   UNL     1      -1.377   6.103  -5.226  0.00  0.00    -0.020 C 
ATOM      9  C   UNL     1      -2.023   6.415  -4.137  0.00  0.00    +0.033 C 
ATOM     10  C   UNL     1      -1.329   6.843  -2.927  0.00  0.00    +0.173 C 
ATOM     11  C   UNL     1       0.109   6.459  -2.836  0.00  0.00    +0.069 C 
ATOM     12  O   UNL     1      -1.839   7.563  -2.045  0.00  0.00    -0.291 OA
ATOM     13  C   UNL     1      -1.988   5.467  -6.400  0.00  0.00    -0.009 C 
ATOM     14  C   UNL     1       0.596   4.595  -5.104  0.00  0.00    +0.004 C 
ATOM     15  C   UNL     1       0.759   6.819  -4.155  0.00  0.00    +0.012 C 
ATOM     16  C   UNL     1      -1.337   5.366  -7.553  0.00  0.00    -0.027 C 
ATOM     17  C   UNL     1       0.536   4.507  -9.767  0.00  0.00    +0.004 C 
ATOM     18  C   UNL     1       2.476   4.519  -8.386  0.00  0.00    +0.004 C 
ATOM     19  C   UNL     1       2.467   6.968  -7.869  0.00  0.00    +0.004 C 
ATOM     20  C   UNL     1       1.754   4.698 -10.664  0.00  0.00    +0.047 C 
ENDROOT
BRANCH   1  21
ATOM     21  C   UNL     1       3.857   6.036 -10.399  0.00  0.00    +0.187 C 
ATOM     22  O   UNL     1       4.384   4.943 -10.604  0.00  0.00    -0.292 OA
ATOM     23  C   UNL     1       4.704   7.236 -10.487  0.00  0.00    +0.076 C 
ENDBRANCH   1  21
BRANCH   1  24
ATOM     24  O   UNL     1       1.818   6.989 -11.021  0.00  0.00    -0.449 OA
BRANCH  24  26
ATOM     25  C   UNL     1       2.487   6.196 -13.315  0.00  0.00    +0.121 C 
ATOM     26  C   UNL     1       1.522   6.580 -12.329  0.00  0.00    +0.318 C 
ATOM     27  O   UNL     1       0.291   6.511 -12.629  0.00  0.00    -0.250 OA
ENDBRANCH  24  26
ENDBRANCH   1  24
TORSDOF 3
ENDMDL
MODEL 9
REMARK VINA RESULT:      -7.7      3.885      9.275
REMARK  Name = 
REMARK  3 active torsions:
REMARK  status: ('A' for Active; 'I' for Inactive)
REMARK    1  A    between atoms: C_2  and  O_4
REMARK    2  A    between atoms: O_4  and  C_5
REMARK    3  A    between atoms: C_5  and  C_6
REMARK                            x       y       z     vdW  Elec       q    Type
REMARK                         _______ _______ _______ _____ _____    ______ ____
ROOT
ATOM      1  C   UNL     1       3.145   5.893  -7.372  0.00  0.00    +0.186 C 
ATOM      2  C   UNL     1       3.417   5.764  -8.794  0.00  0.00    +0.040 C 
ATOM      3  C   UNL     1       4.864   6.477  -8.803  0.00  0.00    +0.008 C 
ATOM      4  C   UNL     1       5.334   5.698 -10.224  0.00  0.00    +0.022 C 
ATOM      5  C   UNL     1       4.456   6.773 -11.183  0.00  0.00    +0.008 C 
ATOM      6  C   UNL     1       3.115   5.862 -11.126  0.00  0.00    +0.001 C 
ATOM      7  C   UNL     1       4.972   6.129 -12.571  0.00  0.00    +0.020 C 
ATOM      8  C   UNL     1       6.247   6.895 -12.723  0.00  0.00    -0.020 C 
ATOM      9  C   UNL     1       6.635   7.294 -13.902  0.00  0.00    +0.033 C 
ATOM     10  C   UNL     1       5.768   7.193 -15.071  0.00  0.00    +0.173 C 
ATOM     11  C   UNL     1       4.651   6.211 -14.965  0.00  0.00    +0.069 C 
ATOM     12  O   UNL     1       5.861   7.925 -16.077  0.00  0.00    -0.291 OA
ATOM     13  C   UNL     1       7.132   6.769 -11.557  0.00  0.00    -0.009 C 
ATOM     14  C   UNL     1       5.153   4.678 -12.465  0.00  0.00    +0.004 C 
ATOM     15  C   UNL     1       3.971   6.441 -13.632  0.00  0.00    +0.012 C 
ATOM     16  C   UNL     1       6.649   6.565 -10.337  0.00  0.00    -0.027 C 
ATOM     17  C   UNL     1       5.461   5.311  -7.854  0.00  0.00    +0.004 C 
ATOM     18  C   UNL     1       3.658   4.272  -9.013  0.00  0.00    +0.004 C 
ATOM     19  C   UNL     1       2.549   6.375  -9.798  0.00  0.00    +0.004 C 
ATOM     20  C   UNL     1       4.329   5.081  -6.860  0.00  0.00    +0.047 C 
ENDROOT
BRANCH   1  21
ATOM     21  C   UNL     1       1.840   5.312  -7.046  0.00  0.00    +0.187 C 
ATOM     22  O   UNL     1       0.867   5.929  -7.476  0.00  0.00    -0.292 OA
ATOM     23  C   UNL     1       1.598   4.018  -6.387  0.00  0.00    +0.076 C 
ENDBRANCH   1  21
BRANCH   1  24
ATOM     24  O   UNL     1       3.265   7.139  -6.754  0.00  0.00    -0.449 OA
BRANCH  24  26
ATOM     25  C   UNL     1       4.734   7.227  -4.712  0.00  0.00    +0.121 C 
ATOM     26  C   UNL     1       3.470   7.087  -5.368  0.00  0.00    +0.318 C 
ATOM     27  O   UNL     1       2.430   6.949  -4.654  0.00  0.00    -0.250 OA
ENDBRANCH  24  26
ENDBRANCH   1  24
TORSDOF 3
ENDMDL
