MODEL 1
REMARK VINA RESULT:      -9.4      0.000      0.000
REMARK  Name = 
REMARK  4 active torsions:
REMARK  status: ('A' for Active; 'I' for Inactive)
REMARK    1  A    between atoms: C_2  and  C_3
REMARK    2  A    between atoms: C_2  and  C_21
REMARK    3  A    between atoms: C_5  and  C_6
REMARK    4  A    between atoms: C_16  and  C_17
REMARK                            x       y       z     vdW  Elec       q    Type
REMARK                         _______ _______ _______ _____ _____    ______ ____
ROOT
ATOM      1  C   UNL     1       2.967   6.529  -8.980  0.00  0.00    +0.012 A 
ATOM      2  C   UNL     1       4.306   6.379  -9.204  0.00  0.00    +0.016 A 
ATOM      3  C   UNL     1       5.082   5.721  -8.291  0.00  0.00    +0.001 A 
ATOM      4  C   UNL     1       6.316   5.257  -8.735  0.00  0.00    +0.000 A 
ATOM      5  C   UNL     1       6.844   5.649  -9.961  0.00  0.00    +0.005 A 
ATOM      6  C   UNL     1       6.038   6.345 -10.840  0.00  0.00    +0.089 A 
ATOM      7  C   UNL     1       4.720   6.586 -10.513  0.00  0.00    +0.085 A 
ATOM      8  N   UNL     1       3.811   6.622 -11.521  0.00  0.00    -0.241 NA
ATOM      9  C   UNL     1       2.511   6.354 -11.248  0.00  0.00    +0.152 A 
ATOM     10  C   UNL     1       2.049   6.598  -9.958  0.00  0.00    +0.021 A 
ENDROOT
BRANCH   6  11
ATOM     11  C   UNL     1       6.594   7.180 -11.949  0.00  0.00    +0.420 C 
ATOM     12  F   UNL     1       7.972   6.985 -11.892  0.00  0.00    -0.166 F 
ATOM     13  F   UNL     1       6.098   6.770 -13.173  0.00  0.00    -0.166 F 
ATOM     14  F   UNL     1       6.348   8.505 -11.762  0.00  0.00    -0.166 F 
ENDBRANCH   6  11
BRANCH   9  15
ATOM     15  C   UNL     1       1.608   5.676 -12.228  0.00  0.00    +0.435 C 
ATOM     16  F   UNL     1       0.861   4.688 -11.619  0.00  0.00    -0.164 F 
ATOM     17  F   UNL     1       2.369   5.082 -13.198  0.00  0.00    -0.164 F 
ATOM     18  F   UNL     1       0.749   6.562 -12.813  0.00  0.00    -0.164 F 
ENDBRANCH   9  15
BRANCH   1  20
ATOM     19  O   UNL     1       2.004   8.313  -7.890  0.00  0.00    -0.217 OA
ATOM     20  C   UNL     1       2.609   6.975  -7.470  0.00  0.00    +0.190 C 
BRANCH  20  21
ATOM     21  C   UNL     1       1.072   6.165  -7.504  0.00  0.00    +0.107 C 
ATOM     22  N   UNL     1       1.736   4.830  -7.033  0.00  0.00    -0.217 NA
ATOM     23  C   UNL     1       1.208   4.405  -5.793  0.00  0.00    +0.089 C 
ATOM     24  C   UNL     1       1.993   5.149  -4.713  0.00  0.00    +0.019 C 
ATOM     25  C   UNL     1       1.880   6.607  -5.151  0.00  0.00    +0.003 C 
ATOM     26  C   UNL     1       0.651   6.664  -6.005  0.00  0.00    +0.020 C 
ENDBRANCH  20  21
ENDBRANCH   1  20
TORSDOF 4
ENDMDL
MODEL 2
REMARK VINA RESULT:      -9.3      5.221      8.102
REMARK  Name = 
REMARK  4 active torsions:
REMARK  status: ('A' for Active; 'I' for Inactive)
REMARK    1  A    between atoms: C_2  and  C_3
REMARK    2  A    between atoms: C_2  and  C_21
REMARK    3  A    between atoms: C_5  and  C_6
REMARK    4  A    between atoms: C_16  and  C_17
REMARK                            x       y       z     vdW  Elec       q    Type
REMARK                         _______ _______ _______ _____ _____    ______ ____
ROOT
ATOM      1  C   UNL     1       1.821   6.324  -5.704  0.00  0.00    +0.012 A 
ATOM      2  C   UNL     1       0.509   6.302  -6.086  0.00  0.00    +0.016 A 
ATOM      3  C   UNL     1       0.144   5.660  -7.236  0.00  0.00    +0.001 A 
ATOM      4  C   UNL     1      -1.200   5.330  -7.369  0.00  0.00    +0.000 A 
ATOM      5  C   UNL     1      -2.165   5.836  -6.504  0.00  0.00    +0.005 A 
ATOM      6  C   UNL     1      -1.754   6.511  -5.373  0.00  0.00    +0.089 A 
ATOM      7  C   UNL     1      -0.408   6.619  -5.094  0.00  0.00    +0.085 A 
ATOM      8  N   UNL     1      -0.027   6.637  -3.790  0.00  0.00    -0.241 NA
ATOM      9  C   UNL     1       1.228   6.245  -3.462  0.00  0.00    +0.152 A 
ATOM     10  C   UNL     1       2.226   6.372  -4.424  0.00  0.00    +0.021 A 
ENDROOT
BRANCH   6  11
ATOM     11  C   UNL     1      -2.647   7.454  -4.631  0.00  0.00    +0.420 C 
ATOM     12  F   UNL     1      -3.518   7.957  -5.594  0.00  0.00    -0.166 F 
ATOM     13  F   UNL     1      -3.351   6.795  -3.640  0.00  0.00    -0.166 F 
ATOM     14  F   UNL     1      -1.957   8.499  -4.101  0.00  0.00    -0.166 F 
ENDBRANCH   6  11
BRANCH   9  15
ATOM     15  C   UNL     1       1.542   5.551  -2.176  0.00  0.00    +0.435 C 
ATOM     16  F   UNL     1       1.594   6.445  -1.125  0.00  0.00    -0.164 F 
ATOM     17  F   UNL     1       2.770   4.958  -2.278  0.00  0.00    -0.164 F 
ATOM     18  F   UNL     1       0.608   4.598  -1.880  0.00  0.00    -0.164 F 
ENDBRANCH   9  15
BRANCH   1  20
ATOM     19  O   UNL     1       3.796   7.459  -6.036  0.00  0.00    -0.217 OA
ATOM     20  C   UNL     1       2.842   6.648  -6.912  0.00  0.00    +0.190 C 
BRANCH  20  21
ATOM     21  C   UNL     1       3.729   5.173  -6.672  0.00  0.00    +0.107 C 
ATOM     22  N   UNL     1       2.783   4.413  -7.658  0.00  0.00    -0.217 NA
ATOM     23  C   UNL     1       3.499   3.908  -8.768  0.00  0.00    +0.089 C 
ATOM     24  C   UNL     1       3.594   5.052  -9.776  0.00  0.00    +0.019 C 
ATOM     25  C   UNL     1       4.156   6.200  -8.942  0.00  0.00    +0.003 C 
ATOM     26  C   UNL     1       4.860   5.540  -7.795  0.00  0.00    +0.020 C 
ENDBRANCH  20  21
ENDBRANCH   1  20
TORSDOF 4
ENDMDL
MODEL 3
REMARK VINA RESULT:      -9.0      4.900      8.172
REMARK  Name = 
REMARK  4 active torsions:
REMARK  status: ('A' for Active; 'I' for Inactive)
REMARK    1  A    between atoms: C_2  and  C_3
REMARK    2  A    between atoms: C_2  and  C_21
REMARK    3  A    between atoms: C_5  and  C_6
REMARK    4  A    between atoms: C_16  and  C_17
REMARK                            x       y       z     vdW  Elec       q    Type
REMARK                         _______ _______ _______ _____ _____    ______ ____
ROOT
ATOM      1  C   UNL     1       1.114   6.627  -6.458  0.00  0.00    +0.012 A 
ATOM      2  C   UNL     1      -0.182   6.454  -6.060  0.00  0.00    +0.016 A 
ATOM      3  C   UNL     1      -1.062   5.789  -6.869  0.00  0.00    +0.001 A 
ATOM      4  C   UNL     1      -2.218   5.303  -6.270  0.00  0.00    +0.000 A 
ATOM      5  C   UNL     1      -2.586   5.678  -4.982  0.00  0.00    +0.005 A 
ATOM      6  C   UNL     1      -1.683   6.381  -4.211  0.00  0.00    +0.089 A 
ATOM      7  C   UNL     1      -0.423   6.645  -4.706  0.00  0.00    +0.085 A 
ATOM      8  N   UNL     1       0.611   6.689  -3.827  0.00  0.00    -0.241 NA
ATOM      9  C   UNL     1       1.868   6.445  -4.271  0.00  0.00    +0.152 A 
ATOM     10  C   UNL     1       2.152   6.704  -5.609  0.00  0.00    +0.021 A 
ENDROOT
BRANCH   6  11
ATOM     11  C   UNL     1      -2.099   7.200  -3.031  0.00  0.00    +0.420 C 
ATOM     12  F   UNL     1      -3.441   6.886  -2.831  0.00  0.00    -0.166 F 
ATOM     13  F   UNL     1      -1.354   6.873  -1.913  0.00  0.00    -0.166 F 
ATOM     14  F   UNL     1      -2.012   8.534  -3.280  0.00  0.00    -0.166 F 
ENDBRANCH   6  11
BRANCH   9  15
ATOM     15  C   UNL     1       2.902   5.775  -3.424  0.00  0.00    +0.435 C 
ATOM     16  F   UNL     1       3.925   6.644  -3.103  0.00  0.00    -0.164 F 
ATOM     17  F   UNL     1       3.446   4.734  -4.127  0.00  0.00    -0.164 F 
ATOM     18  F   UNL     1       2.365   5.298  -2.262  0.00  0.00    -0.164 F 
ENDBRANCH   9  15
BRANCH   1  20
ATOM     19  O   UNL     1       2.173   8.270  -7.672  0.00  0.00    -0.217 OA
ATOM     20  C   UNL     1       1.262   7.088  -7.998  0.00  0.00    +0.190 C 
BRANCH  20  21
ATOM     21  C   UNL     1       2.602   6.016  -8.278  0.00  0.00    +0.107 C 
ATOM     22  N   UNL     1       1.629   4.806  -8.461  0.00  0.00    -0.217 NA
ATOM     23  C   UNL     1       1.742   4.248  -9.755  0.00  0.00    +0.089 C 
ATOM     24  C   UNL     1       0.840   5.081 -10.664  0.00  0.00    +0.019 C 
ATOM     25  C   UNL     1       1.299   6.510 -10.388  0.00  0.00    +0.003 C 
ATOM     26  C   UNL     1       2.700   6.376  -9.871  0.00  0.00    +0.020 C 
ENDBRANCH  20  21
ENDBRANCH   1  20
TORSDOF 4
ENDMDL
MODEL 4
REMARK VINA RESULT:      -9.0      1.799      4.438
REMARK  Name = 
REMARK  4 active torsions:
REMARK  status: ('A' for Active; 'I' for Inactive)
REMARK    1  A    between atoms: C_2  and  C_3
REMARK    2  A    between atoms: C_2  and  C_21
REMARK    3  A    between atoms: C_5  and  C_6
REMARK    4  A    between atoms: C_16  and  C_17
REMARK                            x       y       z     vdW  Elec       q    Type
REMARK                         _______ _______ _______ _____ _____    ______ ____
ROOT
ATOM      1  C   UNL     1       2.494   5.500  -9.642  0.00  0.00    +0.012 A 
ATOM      2  C   UNL     1       1.618   5.902 -10.611  0.00  0.00    +0.016 A 
ATOM      3  C   UNL     1       0.434   6.490 -10.261  0.00  0.00    +0.001 A 
ATOM      4  C   UNL     1      -0.218   7.221 -11.248  0.00  0.00    +0.000 A 
ATOM      5  C   UNL     1       0.173   7.157 -12.581  0.00  0.00    +0.005 A 
ATOM      6  C   UNL     1       1.357   6.521 -12.897  0.00  0.00    +0.089 A 
ATOM      7  C   UNL     1       2.150   6.016 -11.888  0.00  0.00    +0.085 A 
ATOM      8  N   UNL     1       3.496   6.026 -12.070  0.00  0.00    -0.241 NA
ATOM      9  C   UNL     1       4.310   6.026 -10.987  0.00  0.00    +0.152 A 
ATOM     10  C   UNL     1       3.827   5.471  -9.805  0.00  0.00    +0.021 A 
ENDROOT
BRANCH   6  11
ATOM     11  C   UNL     1       1.653   6.011 -14.272  0.00  0.00    +0.420 C 
ATOM     12  F   UNL     1       0.449   6.121 -14.963  0.00  0.00    -0.166 F 
ATOM     13  F   UNL     1       2.632   6.773 -14.882  0.00  0.00    -0.166 F 
ATOM     14  F   UNL     1       2.015   4.700 -14.261  0.00  0.00    -0.166 F 
ENDBRANCH   6  11
BRANCH   9  15
ATOM     15  C   UNL     1       5.631   6.725 -10.975  0.00  0.00    +0.435 C 
ATOM     16  F   UNL     1       6.366   6.386  -9.857  0.00  0.00    -0.164 F 
ATOM     17  F   UNL     1       5.420   8.076 -10.940  0.00  0.00    -0.164 F 
ATOM     18  F   UNL     1       6.371   6.415 -12.082  0.00  0.00    -0.164 F 
ENDBRANCH   9  15
BRANCH   1  20
ATOM     19  O   UNL     1       2.691   3.497  -8.525  0.00  0.00    -0.217 OA
ATOM     20  C   UNL     1       1.788   4.725  -8.414  0.00  0.00    +0.190 C 
BRANCH  20  21
ATOM     21  C   UNL     1       2.814   5.485  -7.234  0.00  0.00    +0.107 C 
ATOM     22  N   UNL     1       1.819   6.684  -7.104  0.00  0.00    -0.217 NA
ATOM     23  C   UNL     1       1.312   6.790  -5.789  0.00  0.00    +0.089 C 
ATOM     24  C   UNL     1       0.128   5.828  -5.705  0.00  0.00    +0.019 C 
ATOM     25  C   UNL     1       0.717   4.514  -6.211  0.00  0.00    +0.003 C 
ATOM     26  C   UNL     1       2.193   4.634  -5.983  0.00  0.00    +0.020 C 
ENDBRANCH  20  21
ENDBRANCH   1  20
TORSDOF 4
ENDMDL
MODEL 5
REMARK VINA RESULT:      -8.7      5.414      7.615
REMARK  Name = 
REMARK  4 active torsions:
REMARK  status: ('A' for Active; 'I' for Inactive)
REMARK    1  A    between atoms: C_2  and  C_3
REMARK    2  A    between atoms: C_2  and  C_21
REMARK    3  A    between atoms: C_5  and  C_6
REMARK    4  A    between atoms: C_16  and  C_17
REMARK                            x       y       z     vdW  Elec       q    Type
REMARK                         _______ _______ _______ _____ _____    ______ ____
ROOT
ATOM      1  C   UNL     1       2.446   5.433  -5.376  0.00  0.00    +0.012 A 
ATOM      2  C   UNL     1       3.388   5.966  -4.542  0.00  0.00    +0.016 A 
ATOM      3  C   UNL     1       4.448   6.656  -5.063  0.00  0.00    +0.001 A 
ATOM      4  C   UNL     1       5.137   7.494  -4.193  0.00  0.00    +0.000 A 
ATOM      5  C   UNL     1       4.926   7.452  -2.819  0.00  0.00    +0.005 A 
ATOM      6  C   UNL     1       3.867   6.713  -2.331  0.00  0.00    +0.089 A 
ATOM      7  C   UNL     1       3.012   6.083  -3.211  0.00  0.00    +0.085 A 
ATOM      8  N   UNL     1       1.707   5.964  -2.856  0.00  0.00    -0.241 NA
ATOM      9  C   UNL     1       0.768   5.830  -3.824  0.00  0.00    +0.152 A 
ATOM     10  C   UNL     1       1.155   5.275  -5.040  0.00  0.00    +0.021 A 
ENDROOT
BRANCH   6  11
ATOM     11  C   UNL     1       3.803   6.239  -0.914  0.00  0.00    +0.420 C 
ATOM     12  F   UNL     1       5.026   6.604  -0.357  0.00  0.00    -0.166 F 
ATOM     13  F   UNL     1       2.762   6.844  -0.236  0.00  0.00    -0.166 F 
ATOM     14  F   UNL     1       3.692   4.885  -0.835  0.00  0.00    -0.166 F 
ENDBRANCH   6  11
BRANCH   9  15
ATOM     15  C   UNL     1      -0.612   6.388  -3.685  0.00  0.00    +0.435 C 
ATOM     16  F   UNL     1      -0.762   7.542  -4.429  0.00  0.00    -0.164 F 
ATOM     17  F   UNL     1      -0.834   6.708  -2.373  0.00  0.00    -0.164 F 
ATOM     18  F   UNL     1      -1.558   5.491  -4.094  0.00  0.00    -0.164 F 
ENDBRANCH   9  15
BRANCH   1  20
ATOM     19  O   UNL     1       2.171   3.452  -6.516  0.00  0.00    -0.217 OA
ATOM     20  C   UNL     1       3.070   4.679  -6.660  0.00  0.00    +0.190 C 
BRANCH  20  21
ATOM     21  C   UNL     1       1.976   5.464  -7.759  0.00  0.00    +0.107 C 
ATOM     22  N   UNL     1       2.975   6.653  -7.945  0.00  0.00    -0.217 NA
ATOM     23  C   UNL     1       3.391   6.767  -9.291  0.00  0.00    +0.089 C 
ATOM     24  C   UNL     1       4.554   5.792  -9.466  0.00  0.00    +0.019 C 
ATOM     25  C   UNL     1       3.986   4.480  -8.934  0.00  0.00    +0.003 C 
ATOM     26  C   UNL     1       2.499   4.620  -9.058  0.00  0.00    +0.020 C 
ENDBRANCH  20  21
ENDBRANCH   1  20
TORSDOF 4
ENDMDL
MODEL 6
REMARK VINA RESULT:      -8.4      3.377      5.985
REMARK  Name = 
REMARK  4 active torsions:
REMARK  status: ('A' for Active; 'I' for Inactive)
REMARK    1  A    between atoms: C_2  and  C_3
REMARK    2  A    between atoms: C_2  and  C_21
REMARK    3  A    between atoms: C_5  and  C_6
REMARK    4  A    between atoms: C_16  and  C_17
REMARK                            x       y       z     vdW  Elec       q    Type
REMARK                         _______ _______ _______ _____ _____    ______ ____
ROOT
ATOM      1  C   UNL     1       4.005   5.885 -12.347  0.00  0.00    +0.012 A 
ATOM      2  C   UNL     1       3.294   5.971 -11.183  0.00  0.00    +0.016 A 
ATOM      3  C   UNL     1       3.869   6.520 -10.071  0.00  0.00    +0.001 A 
ATOM      4  C   UNL     1       3.007   6.940  -9.063  0.00  0.00    +0.000 A 
ATOM      5  C   UNL     1       1.659   6.599  -9.068  0.00  0.00    +0.005 A 
ATOM      6  C   UNL     1       1.125   6.012 -10.197  0.00  0.00    +0.089 A 
ATOM      7  C   UNL     1       1.919   5.828 -11.310  0.00  0.00    +0.085 A 
ATOM      8  N   UNL     1       1.332   5.912 -12.531  0.00  0.00    -0.241 NA
ATOM      9  C   UNL     1       2.088   6.236 -13.608  0.00  0.00    +0.152 A 
ATOM     10  C   UNL     1       3.447   5.935 -13.568  0.00  0.00    +0.021 A 
ENDROOT
BRANCH   6  11
ATOM     11  C   UNL     1      -0.144   5.221 -10.169  0.00  0.00    +0.420 C 
ATOM     12  F   UNL     1      -0.521   5.194  -8.828  0.00  0.00    -0.166 F 
ATOM     13  F   UNL     1      -1.123   5.827 -10.934  0.00  0.00    -0.166 F 
ATOM     14  F   UNL     1       0.046   3.938 -10.579  0.00  0.00    -0.166 F 
ENDBRANCH   6  11
BRANCH   9  15
ATOM     15  C   UNL     1       1.553   7.029 -14.756  0.00  0.00    +0.435 C 
ATOM     16  F   UNL     1       0.956   8.196 -14.323  0.00  0.00    -0.164 F 
ATOM     17  F   UNL     1       0.599   6.290 -15.402  0.00  0.00    -0.164 F 
ATOM     18  F   UNL     1       2.540   7.358 -15.641  0.00  0.00    -0.164 F 
ENDBRANCH   9  15
BRANCH   1  20
ATOM     19  O   UNL     1       5.561   4.624 -13.481  0.00  0.00    -0.217 OA
ATOM     20  C   UNL     1       5.519   5.362 -12.144  0.00  0.00    +0.190 C 
BRANCH  20  21
ATOM     21  C   UNL     1       6.200   6.812 -12.819  0.00  0.00    +0.107 C 
ATOM     22  N   UNL     1       5.996   7.568 -11.465  0.00  0.00    -0.217 NA
ATOM     23  C   UNL     1       7.229   8.005 -10.931  0.00  0.00    +0.089 C 
ATOM     24  C   UNL     1       7.806   6.821 -10.156  0.00  0.00    +0.019 C 
ATOM     25  C   UNL     1       7.755   5.686 -11.175  0.00  0.00    +0.003 C 
ATOM     26  C   UNL     1       7.742   6.362 -12.512  0.00  0.00    +0.020 C 
ENDBRANCH  20  21
ENDBRANCH   1  20
TORSDOF 4
ENDMDL
MODEL 7
REMARK VINA RESULT:      -8.3      3.803      5.467
REMARK  Name = 
REMARK  4 active torsions:
REMARK  status: ('A' for Active; 'I' for Inactive)
REMARK    1  A    between atoms: C_2  and  C_3
REMARK    2  A    between atoms: C_2  and  C_21
REMARK    3  A    between atoms: C_5  and  C_6
REMARK    4  A    between atoms: C_16  and  C_17
REMARK                            x       y       z     vdW  Elec       q    Type
REMARK                         _______ _______ _______ _____ _____    ______ ____
ROOT
ATOM      1  C   UNL     1       1.772   6.026  -5.789  0.00  0.00    +0.012 A 
ATOM      2  C   UNL     1       2.124   6.118  -7.107  0.00  0.00    +0.016 A 
ATOM      3  C   UNL     1       1.272   6.705  -8.001  0.00  0.00    +0.001 A 
ATOM      4  C   UNL     1       1.822   7.123  -9.208  0.00  0.00    +0.000 A 
ATOM      5  C   UNL     1       3.105   6.749  -9.593  0.00  0.00    +0.005 A 
ATOM      6  C   UNL     1       3.921   6.126  -8.670  0.00  0.00    +0.089 A 
ATOM      7  C   UNL     1       3.473   5.939  -7.380  0.00  0.00    +0.085 A 
ATOM      8  N   UNL     1       4.386   5.983  -6.376  0.00  0.00    -0.241 NA
ATOM      9  C   UNL     1       3.978   6.304  -5.124  0.00  0.00    +0.152 A 
ATOM     10  C   UNL     1       2.656   6.037  -4.778  0.00  0.00    +0.021 A 
ENDROOT
BRANCH   6  11
ATOM     11  C   UNL     1       5.105   5.305  -9.071  0.00  0.00    +0.420 C 
ATOM     12  F   UNL     1       4.804   4.011  -8.651  0.00  0.00    -0.166 F 
ATOM     13  F   UNL     1       5.290   5.337 -10.440  0.00  0.00    -0.166 F 
ATOM     14  F   UNL     1       6.239   5.701  -8.433  0.00  0.00    -0.166 F 
ENDBRANCH   6  11
BRANCH   9  15
ATOM     15  C   UNL     1       4.842   7.060  -4.167  0.00  0.00    +0.435 C 
ATOM     16  F   UNL     1       5.026   6.355  -2.994  0.00  0.00    -0.164 F 
ATOM     17  F   UNL     1       4.228   8.241  -3.850  0.00  0.00    -0.164 F 
ATOM     18  F   UNL     1       6.070   7.325  -4.703  0.00  0.00    -0.164 F 
ENDBRANCH   9  15
BRANCH   1  20
ATOM     19  O   UNL     1       0.644   4.313  -4.746  0.00  0.00    -0.217 OA
ATOM     20  C   UNL     1       0.248   5.545  -5.558  0.00  0.00    +0.190 C 
BRANCH  20  21
ATOM     21  C   UNL     1       0.063   6.532  -4.139  0.00  0.00    +0.107 C 
ATOM     22  N   UNL     1      -0.468   7.722  -5.005  0.00  0.00    -0.217 NA
ATOM     23  C   UNL     1      -1.786   8.074  -4.638  0.00  0.00    +0.089 C 
ATOM     24  C   UNL     1      -2.713   7.132  -5.406  0.00  0.00    +0.019 C 
ATOM     25  C   UNL     1      -2.153   5.753  -5.072  0.00  0.00    +0.003 C 
ATOM     26  C   UNL     1      -1.416   5.932  -3.780  0.00  0.00    +0.020 C 
ENDBRANCH  20  21
ENDBRANCH   1  20
TORSDOF 4
ENDMDL
MODEL 8
REMARK VINA RESULT:      -8.3      4.472      6.942
REMARK  Name = 
REMARK  4 active torsions:
REMARK  status: ('A' for Active; 'I' for Inactive)
REMARK    1  A    between atoms: C_2  and  C_3
REMARK    2  A    between atoms: C_2  and  C_21
REMARK    3  A    between atoms: C_5  and  C_6
REMARK    4  A    between atoms: C_16  and  C_17
REMARK                            x       y       z     vdW  Elec       q    Type
REMARK                         _______ _______ _______ _____ _____    ______ ____
ROOT
ATOM      1  C   UNL     1       0.756   5.565  -3.703  0.00  0.00    +0.012 A 
ATOM      2  C   UNL     1       0.458   5.350  -5.019  0.00  0.00    +0.016 A 
ATOM      3  C   UNL     1      -0.791   5.643  -5.493  0.00  0.00    +0.001 A 
ATOM      4  C   UNL     1      -0.921   5.783  -6.870  0.00  0.00    +0.000 A 
ATOM      5  C   UNL     1       0.096   5.405  -7.741  0.00  0.00    +0.005 A 
ATOM      6  C   UNL     1       1.332   5.081  -7.219  0.00  0.00    +0.089 A 
ATOM      7  C   UNL     1       1.549   5.192  -5.861  0.00  0.00    +0.085 A 
ATOM      8  N   UNL     1       2.793   5.539  -5.442  0.00  0.00    -0.241 NA
ATOM      9  C   UNL     1       2.942   6.134  -4.233  0.00  0.00    +0.152 A 
ATOM     10  C   UNL     1       1.983   5.880  -3.256  0.00  0.00    +0.021 A 
ENDROOT
BRANCH   6  11
ATOM     11  C   UNL     1       2.332   4.261  -7.971  0.00  0.00    +0.420 C 
ATOM     12  F   UNL     1       2.467   3.090  -7.229  0.00  0.00    -0.166 F 
ATOM     13  F   UNL     1       1.880   3.976  -9.246  0.00  0.00    -0.166 F 
ATOM     14  F   UNL     1       3.548   4.867  -8.027  0.00  0.00    -0.166 F 
ENDBRANCH   6  11
BRANCH   9  15
ATOM     15  C   UNL     1       4.000   7.155  -3.966  0.00  0.00    +0.435 C 
ATOM     16  F   UNL     1       3.537   8.146  -3.123  0.00  0.00    -0.164 F 
ATOM     17  F   UNL     1       4.356   7.748  -5.147  0.00  0.00    -0.164 F 
ATOM     18  F   UNL     1       5.107   6.592  -3.396  0.00  0.00    -0.164 F 
ENDBRANCH   9  15
BRANCH   1  20
ATOM     19  O   UNL     1       0.585   4.365  -1.746  0.00  0.00    -0.217 OA
ATOM     20  C   UNL     1      -0.396   5.063  -2.688  0.00  0.00    +0.190 C 
BRANCH  20  21
ATOM     21  C   UNL     1      -0.357   6.543  -1.777  0.00  0.00    +0.107 C 
ATOM     22  N   UNL     1      -1.202   7.270  -2.875  0.00  0.00    -0.217 NA
ATOM     23  C   UNL     1      -2.431   7.732  -2.353  0.00  0.00    +0.089 C 
ATOM     24  C   UNL     1      -3.400   6.552  -2.422  0.00  0.00    +0.019 C 
ATOM     25  C   UNL     1      -2.628   5.434  -1.727  0.00  0.00    +0.003 C 
ATOM     26  C   UNL     1      -1.637   6.133  -0.846  0.00  0.00    +0.020 C 
ENDBRANCH  20  21
ENDBRANCH   1  20
TORSDOF 4
ENDMDL
MODEL 9
REMARK VINA RESULT:      -8.2      4.796      7.971
REMARK  Name = 
REMARK  4 active torsions:
REMARK  status: ('A' for Active; 'I' for Inactive)
REMARK    1  A    between atoms: C_2  and  C_3
REMARK    2  A    between atoms: C_2  and  C_21
REMARK    3  A    between atoms: C_5  and  C_6
REMARK    4  A    between atoms: C_16  and  C_17
REMARK                            x       y       z     vdW  Elec       q    Type
REMARK                         _______ _______ _______ _____ _____    ______ ____
ROOT
ATOM      1  C   UNL     1       1.535   6.773  -6.639  0.00  0.00    +0.012 A 
ATOM      2  C   UNL     1       0.231   6.426  -6.425  0.00  0.00    +0.016 A 
ATOM      3  C   UNL     1      -0.403   5.583  -7.295  0.00  0.00    +0.001 A 
ATOM      4  C   UNL     1      -1.559   4.962  -6.834  0.00  0.00    +0.000 A 
ATOM      5  C   UNL     1      -2.179   5.357  -5.653  0.00  0.00    +0.005 A 
ATOM      6  C   UNL     1      -1.520   6.238  -4.820  0.00  0.00    +0.089 A 
ATOM      7  C   UNL     1      -0.249   6.663  -5.144  0.00  0.00    +0.085 A 
ATOM      8  N   UNL     1       0.614   6.923  -4.128  0.00  0.00    -0.241 NA
ATOM      9  C   UNL     1       1.947   6.849  -4.357  0.00  0.00    +0.152 A 
ATOM     10  C   UNL     1       2.402   7.064  -5.655  0.00  0.00    +0.021 A 
ENDROOT
BRANCH   6  11
ATOM     11  C   UNL     1      -2.234   7.056  -3.790  0.00  0.00    +0.420 C 
ATOM     12  F   UNL     1      -2.102   6.336  -2.605  0.00  0.00    -0.166 F 
ATOM     13  F   UNL     1      -1.657   8.306  -3.664  0.00  0.00    -0.166 F 
ATOM     14  F   UNL     1      -3.561   7.176  -4.065  0.00  0.00    -0.166 F 
ENDBRANCH   6  11
BRANCH   9  15
ATOM     15  C   UNL     1       2.918   6.403  -3.311  0.00  0.00    +0.435 C 
ATOM     16  F   UNL     1       3.677   5.339  -3.755  0.00  0.00    -0.164 F 
ATOM     17  F   UNL     1       2.224   5.986  -2.208  0.00  0.00    -0.164 F 
ATOM     18  F   UNL     1       3.766   7.412  -2.952  0.00  0.00    -0.164 F 
ENDBRANCH   9  15
BRANCH   1  20
ATOM     19  O   UNL     1       2.265   8.590  -7.848  0.00  0.00    -0.217 OA
ATOM     20  C   UNL     1       1.860   7.153  -8.174  0.00  0.00    +0.190 C 
BRANCH  20  21
ATOM     21  C   UNL     1       3.494   6.571  -8.061  0.00  0.00    +0.107 C 
ATOM     22  N   UNL     1       3.020   5.109  -8.350  0.00  0.00    -0.217 NA
ATOM     23  C   UNL     1       3.604   4.605  -9.535  0.00  0.00    +0.089 C 
ATOM     24  C   UNL     1       2.727   5.093 -10.688  0.00  0.00    +0.019 C 
ATOM     25  C   UNL     1       2.638   6.596 -10.439  0.00  0.00    +0.003 C 
ATOM     26  C   UNL     1       3.846   6.928  -9.618  0.00  0.00    +0.020 C 
ENDBRANCH  20  21
ENDBRANCH   1  20
TORSDOF 4
ENDMDL
