MODEL 1
REMARK VINA RESULT:      -4.2      0.000      0.000
REMARK  Name = 
REMARK  1 active torsions:
REMARK  status: ('A' for Active; 'I' for Inactive)
REMARK    1  A    between atoms: C_2  and  CA_4
REMARK                            x       y       z     vdW  Elec       q    Type
REMARK                         _______ _______ _______ _____ _____    ______ ____
ROOT
ATOM      1  CA  HYP A   1       6.315   6.297 -12.258  0.00  0.00    +0.178 C 
ATOM      2  N   HYP A   1       5.466   5.038 -12.772  0.00  0.00    -0.206 NA
ATOM      3  CD  HYP A   1       4.322   5.903 -12.449  0.00  0.00    +0.122 C 
ATOM      4  CG  HYP A   1       4.463   5.293 -10.893  0.00  0.00    +0.171 C 
ATOM      5  OD  HYP A   1       3.736   6.527 -10.314  0.00  0.00    -0.222 OA
ATOM      6  CB  HYP A   1       5.966   5.990 -10.660  0.00  0.00    +0.063 C 
ENDROOT
BRANCH   1   8
ATOM      7  O   HYP A   1       7.824   4.643 -12.918  0.00  0.00    -0.244 OA
ATOM      8  C   HYP A   1       7.702   5.420 -12.216  0.00  0.00    +0.380 C 
ATOM      9  OXT HYP A   1       8.116   5.284 -10.884  0.00  0.00    -0.244 OA
ENDBRANCH   1   8
TORSDOF 1
ENDMDL
MODEL 2
REMARK VINA RESULT:      -4.1     10.545     11.597
REMARK  Name = 
REMARK  1 active torsions:
REMARK  status: ('A' for Active; 'I' for Inactive)
REMARK    1  A    between atoms: C_2  and  CA_4
REMARK                            x       y       z     vdW  Elec       q    Type
REMARK                         _______ _______ _______ _____ _____    ______ ____
ROOT
ATOM      1  CA  HYP A   1      -1.404   6.806  -2.805  0.00  0.00    +0.178 C 
ATOM      2  N   HYP A   1      -0.479   6.065  -3.886  0.00  0.00    -0.206 NA
ATOM      3  CD  HYP A   1      -0.816   7.233  -4.713  0.00  0.00    +0.122 C 
ATOM      4  CG  HYP A   1      -2.184   6.365  -5.150  0.00  0.00    +0.171 C 
ATOM      5  OD  HYP A   1      -2.922   7.669  -5.532  0.00  0.00    -0.222 OA
ATOM      6  CB  HYP A   1      -2.808   6.393  -3.598  0.00  0.00    +0.063 C 
ENDROOT
BRANCH   1   8
ATOM      7  O   HYP A   1      -0.570   4.905  -1.737  0.00  0.00    -0.244 OA
ATOM      8  C   HYP A   1      -1.450   5.475  -1.845  0.00  0.00    +0.380 C 
ATOM      9  OXT HYP A   1      -2.710   4.872  -1.959  0.00  0.00    -0.244 OA
ENDBRANCH   1   8
TORSDOF 1
ENDMDL
MODEL 3
REMARK VINA RESULT:      -4.1      9.370     11.398
REMARK  Name = 
REMARK  1 active torsions:
REMARK  status: ('A' for Active; 'I' for Inactive)
REMARK    1  A    between atoms: C_2  and  CA_4
REMARK                            x       y       z     vdW  Elec       q    Type
REMARK                         _______ _______ _______ _____ _____    ______ ____
ROOT
ATOM      1  CA  HYP A   1      -1.743   6.671  -3.603  0.00  0.00    +0.178 C 
ATOM      2  N   HYP A   1      -0.816   5.419  -3.222  0.00  0.00    -0.206 NA
ATOM      3  CD  HYP A   1       0.191   6.153  -4.001  0.00  0.00    +0.122 C 
ATOM      4  CG  HYP A   1      -0.466   5.379  -5.337  0.00  0.00    +0.171 C 
ATOM      5  OD  HYP A   1       0.077   6.481  -6.276  0.00  0.00    -0.222 OA
ATOM      6  CB  HYP A   1      -1.939   6.156  -5.174  0.00  0.00    +0.063 C 
ENDROOT
BRANCH   1   8
ATOM      7  O   HYP A   1      -3.852   6.473  -2.625  0.00  0.00    -0.244 OA
ATOM      8  C   HYP A   1      -3.098   5.901  -3.088  0.00  0.00    +0.380 C 
ATOM      9  OXT HYP A   1      -2.750   4.625  -2.625  0.00  0.00    -0.244 OA
ENDBRANCH   1   8
TORSDOF 1
ENDMDL
MODEL 4
REMARK VINA RESULT:      -4.0      9.475     11.279
REMARK  Name = 
REMARK  1 active torsions:
REMARK  status: ('A' for Active; 'I' for Inactive)
REMARK    1  A    between atoms: C_2  and  CA_4
REMARK                            x       y       z     vdW  Elec       q    Type
REMARK                         _______ _______ _______ _____ _____    ______ ____
ROOT
ATOM      1  CA  HYP A   1      -1.187   6.315  -2.930  0.00  0.00    +0.178 C 
ATOM      2  N   HYP A   1      -0.443   5.026  -2.333  0.00  0.00    -0.206 NA
ATOM      3  CD  HYP A   1       0.748   5.880  -2.447  0.00  0.00    +0.122 C 
ATOM      4  CG  HYP A   1       0.841   5.320  -4.025  0.00  0.00    +0.171 C 
ATOM      5  OD  HYP A   1       1.665   6.559  -4.445  0.00  0.00    -0.222 OA
ATOM      6  CB  HYP A   1      -0.599   6.051  -4.465  0.00  0.00    +0.063 C 
ENDROOT
BRANCH   1   8
ATOM      7  O   HYP A   1      -2.799   4.667  -2.567  0.00  0.00    -0.244 OA
ATOM      8  C   HYP A   1      -2.562   5.465  -3.215  0.00  0.00    +0.380 C 
ATOM      9  OXT HYP A   1      -2.769   5.380  -4.598  0.00  0.00    -0.244 OA
ENDBRANCH   1   8
TORSDOF 1
ENDMDL
MODEL 5
REMARK VINA RESULT:      -3.8      5.818      7.194
REMARK  Name = 
REMARK  1 active torsions:
REMARK  status: ('A' for Active; 'I' for Inactive)
REMARK    1  A    between atoms: C_2  and  CA_4
REMARK                            x       y       z     vdW  Elec       q    Type
REMARK                         _______ _______ _______ _____ _____    ______ ____
ROOT
ATOM      1  CA  HYP A   1       2.292   5.819  -5.914  0.00  0.00    +0.178 C 
ATOM      2  N   HYP A   1       2.648   5.131  -7.319  0.00  0.00    -0.206 NA
ATOM      3  CD  HYP A   1       3.286   6.427  -7.591  0.00  0.00    +0.122 C 
ATOM      4  CG  HYP A   1       1.768   6.919  -8.109  0.00  0.00    +0.171 C 
ATOM      5  OD  HYP A   1       2.135   8.401  -7.864  0.00  0.00    -0.222 OA
ATOM      6  CB  HYP A   1       1.098   6.767  -6.584  0.00  0.00    +0.063 C 
ENDROOT
BRANCH   1   8
ATOM      7  O   HYP A   1       1.318   3.702  -6.040  0.00  0.00    -0.244 OA
ATOM      8  C   HYP A   1       1.243   4.618  -5.523  0.00  0.00    +0.380 C 
ATOM      9  OXT HYP A   1       0.004   5.183  -5.196  0.00  0.00    -0.244 OA
ENDBRANCH   1   8
TORSDOF 1
ENDMDL
MODEL 6
REMARK VINA RESULT:      -3.8      5.961      7.080
REMARK  Name = 
REMARK  1 active torsions:
REMARK  status: ('A' for Active; 'I' for Inactive)
REMARK    1  A    between atoms: C_2  and  CA_4
REMARK                            x       y       z     vdW  Elec       q    Type
REMARK                         _______ _______ _______ _____ _____    ______ ____
ROOT
ATOM      1  CA  HYP A   1       2.611   6.257  -7.162  0.00  0.00    +0.178 C 
ATOM      2  N   HYP A   1       3.176   7.316  -6.099  0.00  0.00    -0.206 NA
ATOM      3  CD  HYP A   1       3.144   6.158  -5.194  0.00  0.00    +0.122 C 
ATOM      4  CG  HYP A   1       1.546   6.585  -4.912  0.00  0.00    +0.171 C 
ATOM      5  OD  HYP A   1       1.212   5.145  -4.461  0.00  0.00    -0.222 OA
ATOM      6  CB  HYP A   1       1.088   6.264  -6.489  0.00  0.00    +0.063 C 
ENDROOT
BRANCH   1   8
ATOM      7  O   HYP A   1       2.135   8.427  -7.875  0.00  0.00    -0.244 OA
ATOM      8  C   HYP A   1       2.239   7.442  -8.235  0.00  0.00    +0.380 C 
ATOM      9  OXT HYP A   1       1.385   6.920  -9.215  0.00  0.00    -0.244 OA
ENDBRANCH   1   8
TORSDOF 1
ENDMDL
MODEL 7
REMARK VINA RESULT:      -3.7      9.085     11.059
REMARK  Name = 
REMARK  1 active torsions:
REMARK  status: ('A' for Active; 'I' for Inactive)
REMARK    1  A    between atoms: C_2  and  CA_4
REMARK                            x       y       z     vdW  Elec       q    Type
REMARK                         _______ _______ _______ _____ _____    ______ ____
ROOT
ATOM      1  CA  HYP A   1      -1.606   5.766  -4.528  0.00  0.00    +0.178 C 
ATOM      2  N   HYP A   1      -1.183   7.313  -4.491  0.00  0.00    -0.206 NA
ATOM      3  CD  HYP A   1      -0.077   6.848  -5.341  0.00  0.00    +0.122 C 
ATOM      4  CG  HYP A   1       0.712   6.499  -3.902  0.00  0.00    +0.171 C 
ATOM      5  OD  HYP A   1       1.617   5.470  -4.616  0.00  0.00    -0.222 OA
ATOM      6  CB  HYP A   1      -0.397   5.321  -3.475  0.00  0.00    +0.063 C 
ENDROOT
BRANCH   1   8
ATOM      7  O   HYP A   1      -2.787   6.931  -2.887  0.00  0.00    -0.244 OA
ATOM      8  C   HYP A   1      -2.701   5.976  -3.323  0.00  0.00    +0.380 C 
ATOM      9  OXT HYP A   1      -2.766   4.805  -2.557  0.00  0.00    -0.244 OA
ENDBRANCH   1   8
TORSDOF 1
ENDMDL
MODEL 8
REMARK VINA RESULT:      -3.7      1.344      3.388
REMARK  Name = 
REMARK  1 active torsions:
REMARK  status: ('A' for Active; 'I' for Inactive)
REMARK    1  A    between atoms: C_2  and  CA_4
REMARK                            x       y       z     vdW  Elec       q    Type
REMARK                         _______ _______ _______ _____ _____    ______ ____
ROOT
ATOM      1  CA  HYP A   1       5.178   5.629 -11.492  0.00  0.00    +0.178 C 
ATOM      2  N   HYP A   1       4.819   6.225 -12.937  0.00  0.00    -0.206 NA
ATOM      3  CD  HYP A   1       5.533   5.031 -13.412  0.00  0.00    +0.122 C 
ATOM      4  CG  HYP A   1       6.921   5.962 -13.268  0.00  0.00    +0.171 C 
ATOM      5  OD  HYP A   1       7.795   4.692 -13.155  0.00  0.00    -0.222 OA
ATOM      6  CB  HYP A   1       6.775   6.086 -11.606  0.00  0.00    +0.063 C 
ENDROOT
BRANCH   1   8
ATOM      7  O   HYP A   1       5.387   7.853 -10.815  0.00  0.00    -0.244 OA
ATOM      8  C   HYP A   1       4.741   7.023 -10.743  0.00  0.00    +0.380 C 
ATOM      9  OXT HYP A   1       4.069   6.711  -9.554  0.00  0.00    -0.244 OA
ENDBRANCH   1   8
TORSDOF 1
ENDMDL
MODEL 9
REMARK VINA RESULT:      -3.6      1.836      3.699
REMARK  Name = 
REMARK  1 active torsions:
REMARK  status: ('A' for Active; 'I' for Inactive)
REMARK    1  A    between atoms: C_2  and  CA_4
REMARK                            x       y       z     vdW  Elec       q    Type
REMARK                         _______ _______ _______ _____ _____    ______ ____
ROOT
ATOM      1  CA  HYP A   1       5.308   5.717 -10.623  0.00  0.00    +0.178 C 
ATOM      2  N   HYP A   1       5.199   7.305 -10.814  0.00  0.00    -0.206 NA
ATOM      3  CD  HYP A   1       6.163   7.064 -11.897  0.00  0.00    +0.122 C 
ATOM      4  CG  HYP A   1       7.337   7.193 -10.705  0.00  0.00    +0.171 C 
ATOM      5  OD  HYP A   1       8.335   6.382 -11.563  0.00  0.00    -0.222 OA
ATOM      6  CB  HYP A   1       6.809   5.820  -9.909  0.00  0.00    +0.063 C 
ENDROOT
BRANCH   1   8
ATOM      7  O   HYP A   1       3.884   6.594  -8.996  0.00  0.00    -0.244 OA
ATOM      8  C   HYP A   1       4.521   5.776  -9.183  0.00  0.00    +0.380 C 
ATOM      9  OXT HYP A   1       5.349   5.241  -8.187  0.00  0.00    -0.244 OA
ENDBRANCH   1   8
TORSDOF 1
ENDMDL
