MODEL 1
REMARK VINA RESULT:      -8.4      0.000      0.000
REMARK  Name = 
REMARK  17 active torsions:
REMARK  status: ('A' for Active; 'I' for Inactive)
REMARK    1  A    between atoms: C_2  and  C_18
REMARK    2  A    between atoms: C_3  and  C_4
REMARK    3  A    between atoms: C_4  and  O_6
REMARK    4  A    between atoms: O_6  and  C_7
REMARK    5  A    between atoms: C_7  and  C_8
REMARK    6  A    between atoms: C_8  and  C_9
REMARK    7  A    between atoms: C_9  and  C_10
REMARK    8  A    between atoms: C_10  and  C_11
REMARK    9  A    between atoms: C_11  and  C_12
REMARK   10  A    between atoms: C_12  and  C_13
REMARK   11  A    between atoms: C_13  and  C_14
REMARK   12  A    between atoms: C_14  and  C_15
REMARK   13  A    between atoms: C_18  and  C_19
REMARK   14  A    between atoms: C_22  and  C_23
REMARK   15  A    between atoms: C_23  and  C_24
REMARK   16  A    between atoms: C_26  and  C_27
REMARK   17  A    between atoms: C_27  and  C_29
REMARK                            x       y       z     vdW  Elec       q    Type
REMARK                         _______ _______ _______ _____ _____    ______ ____
ROOT
ATOM      1  C   UNL     1       1.932   5.154  -3.039  0.00  0.00    +0.054 C 
ENDROOT
BRANCH   1   2
ATOM      2  C   UNL     1       2.523   6.255  -4.109  0.00  0.00    +0.152 C 
ATOM      3  C   UNL     1       4.060   5.472  -4.141  0.00  0.00    +0.209 C 
ATOM      4  O   UNL     1       4.615   6.338  -3.047  0.00  0.00    -0.218 OA
ATOM      5  C   UNL     1       4.755   6.507  -5.319  0.00  0.00    +0.187 C 
ATOM      6  O   UNL     1       4.104   7.781  -4.833  0.00  0.00    -0.220 OA
ATOM      7  C   UNL     1       3.552   6.254  -6.505  0.00  0.00    +0.065 C 
ATOM      8  C   UNL     1       2.971   4.852  -5.914  0.00  0.00    +0.145 C 
ATOM      9  O   UNL     1       1.929   5.438  -5.245  0.00  0.00    -0.353 OA
BRANCH   7  10
ATOM     10  C   UNL     1       4.560   5.479  -7.512  0.00  0.00    +0.037 C 
BRANCH  10  11
ATOM     11  C   UNL     1       4.230   6.231  -8.969  0.00  0.00    +0.142 C 
ATOM     12  C   UNL     1       5.616   5.599  -9.736  0.00  0.00    +0.145 C 
ATOM     13  O   UNL     1       4.152   4.802  -9.828  0.00  0.00    -0.354 OA
BRANCH  12  14
ATOM     14  C   UNL     1       5.341   6.445 -11.202  0.00  0.00    +0.060 C 
ATOM     15  C   UNL     1       6.423   7.576 -10.864  0.00  0.00    +0.005 C 
BRANCH  14  16
ATOM     16  C   UNL     1       6.341   5.421 -12.142  0.00  0.00    +0.154 C 
ATOM     17  O   UNL     1       5.171   4.765 -12.861  0.00  0.00    -0.223 OA
ATOM     18  C   UNL     1       6.572   6.512 -13.365  0.00  0.00    +0.036 C 
ENDBRANCH  14  16
ENDBRANCH  12  14
ENDBRANCH  10  11
ENDBRANCH   7  10
ENDBRANCH   1   2
BRANCH   1  20
ATOM     19  C   UNL     1       0.336   5.212  -2.812  0.00  0.00    +0.027 C 
ATOM     20  C   UNL     1       0.572   5.413  -2.797  0.00  0.00    -0.035 C 
ATOM     21  C   UNL     1      -0.138   6.059  -1.995  0.00  0.00    +0.073 C 
BRANCH  21  22
ATOM     22  C   UNL     1      -1.599   6.002  -2.055  0.00  0.00    +0.341 C 
ATOM     23  O   UNL     1      -2.208   5.001  -1.561  0.00  0.00    -0.245 OA
BRANCH  22  24
ATOM     24  O   UNL     1      -2.306   7.128  -2.432  0.00  0.00    -0.445 OA
BRANCH  24  25
ATOM     25  C   UNL     1      -2.716   7.179  -3.783  0.00  0.00    +0.209 C 
BRANCH  25  26
ATOM     26  C   UNL     1      -1.796   8.071  -4.598  0.00  0.00    +0.047 C 
BRANCH  26  27
ATOM     27  C   UNL     1      -1.091   7.138  -5.566  0.00  0.00    +0.004 C 
BRANCH  27  28
ATOM     28  C   UNL     1      -2.003   5.959  -5.863  0.00  0.00    +0.000 C 
BRANCH  28  29
ATOM     29  C   UNL     1      -1.389   5.060  -6.888  0.00  0.00    +0.000 C 
BRANCH  29  30
ATOM     30  C   UNL     1      -0.206   5.768  -7.535  0.00  0.00    +0.001 C 
BRANCH  30  31
ATOM     31  C   UNL     1      -0.091   5.460  -8.996  0.00  0.00    +0.012 C 
BRANCH  31  32
ATOM     32  C   UNL     1       0.815   6.537  -9.576  0.00  0.00    +0.114 C 
BRANCH  32  33
ATOM     33  C   UNL     1       0.416   6.729 -11.006  0.00  0.00    +0.365 C 
ATOM     34  O   UNL     1       0.163   5.586 -11.771  0.00  0.00    -0.246 OA
ATOM     35  O   UNL     1      -0.373   7.695 -11.233  0.00  0.00    -0.246 OA
ENDBRANCH  32  33
ENDBRANCH  31  32
ENDBRANCH  30  31
ENDBRANCH  29  30
ENDBRANCH  28  29
ENDBRANCH  27  28
ENDBRANCH  26  27
ENDBRANCH  25  26
ENDBRANCH  24  25
ENDBRANCH  22  24
ENDBRANCH  21  22
ENDBRANCH   1  20
TORSDOF 17
ENDMDL
MODEL 2
REMARK VINA RESULT:      -8.1      1.818      5.004
REMARK  Name = 
REMARK  17 active torsions:
REMARK  status: ('A' for Active; 'I' for Inactive)
REMARK    1  A    between atoms: C_2  and  C_18
REMARK    2  A    between atoms: C_3  and  C_4
REMARK    3  A    between atoms: C_4  and  O_6
REMARK    4  A    between atoms: O_6  and  C_7
REMARK    5  A    between atoms: C_7  and  C_8
REMARK    6  A    between atoms: C_8  and  C_9
REMARK    7  A    between atoms: C_9  and  C_10
REMARK    8  A    between atoms: C_10  and  C_11
REMARK    9  A    between atoms: C_11  and  C_12
REMARK   10  A    between atoms: C_12  and  C_13
REMARK   11  A    between atoms: C_13  and  C_14
REMARK   12  A    between atoms: C_14  and  C_15
REMARK   13  A    between atoms: C_18  and  C_19
REMARK   14  A    between atoms: C_22  and  C_23
REMARK   15  A    between atoms: C_23  and  C_24
REMARK   16  A    between atoms: C_26  and  C_27
REMARK   17  A    between atoms: C_27  and  C_29
REMARK                            x       y       z     vdW  Elec       q    Type
REMARK                         _______ _______ _______ _____ _____    ______ ____
ROOT
ATOM      1  C   UNL     1      -0.492   5.263  -6.793  0.00  0.00    +0.054 C 
ENDROOT
BRANCH   1   2
ATOM      2  C   UNL     1       0.982   5.929  -7.090  0.00  0.00    +0.152 C 
ATOM      3  C   UNL     1       1.613   4.417  -7.628  0.00  0.00    +0.209 C 
ATOM      4  O   UNL     1       2.126   4.053  -6.264  0.00  0.00    -0.218 OA
ATOM      5  C   UNL     1       3.161   5.019  -8.054  0.00  0.00    +0.187 C 
ATOM      6  O   UNL     1       3.288   5.994  -6.907  0.00  0.00    -0.220 OA
ATOM      7  C   UNL     1       2.591   6.227  -9.119  0.00  0.00    +0.065 C 
ATOM      8  C   UNL     1       1.119   5.585  -9.388  0.00  0.00    +0.145 C 
ATOM      9  O   UNL     1       0.487   6.367  -8.458  0.00  0.00    -0.353 OA
BRANCH   7  10
ATOM     10  C   UNL     1       3.210   5.506 -10.434  0.00  0.00    +0.037 C 
BRANCH  10  11
ATOM     11  C   UNL     1       4.478   6.527 -10.817  0.00  0.00    +0.142 C 
ATOM     12  C   UNL     1       5.541   5.247 -11.192  0.00  0.00    +0.145 C 
ATOM     13  O   UNL     1       4.617   5.966 -12.383  0.00  0.00    -0.354 OA
BRANCH  12  14
ATOM     14  C   UNL     1       6.877   6.280 -11.490  0.00  0.00    +0.060 C 
ATOM     15  C   UNL     1       7.301   6.334  -9.947  0.00  0.00    +0.005 C 
BRANCH  14  16
ATOM     16  C   UNL     1       7.921   5.017 -11.988  0.00  0.00    +0.154 C 
ATOM     17  O   UNL     1       7.434   5.044 -13.430  0.00  0.00    -0.223 OA
ATOM     18  C   UNL     1       9.205   6.004 -12.329  0.00  0.00    +0.036 C 
ENDBRANCH  14  16
ENDBRANCH  12  14
ENDBRANCH  10  11
ENDBRANCH   7  10
ENDBRANCH   1   2
BRANCH   1  20
ATOM     19  C   UNL     1      -1.002   6.127  -5.531  0.00  0.00    +0.027 C 
ATOM     20  C   UNL     1      -1.135   5.975  -5.766  0.00  0.00    -0.035 C 
ATOM     21  C   UNL     1      -2.099   6.758  -5.621  0.00  0.00    +0.073 C 
BRANCH  21  22
ATOM     22  C   UNL     1      -2.403   7.357  -4.321  0.00  0.00    +0.341 C 
ATOM     23  O   UNL     1      -1.909   8.489  -4.022  0.00  0.00    -0.245 OA
BRANCH  22  24
ATOM     24  O   UNL     1      -3.399   6.806  -3.537  0.00  0.00    -0.445 OA
BRANCH  24  25
ATOM     25  C   UNL     1      -3.065   6.577  -2.183  0.00  0.00    +0.209 C 
BRANCH  25  26
ATOM     26  C   UNL     1      -2.194   5.342  -2.038  0.00  0.00    +0.047 C 
BRANCH  26  27
ATOM     27  C   UNL     1      -1.115   5.732  -1.044  0.00  0.00    +0.004 C 
BRANCH  27  28
ATOM     28  C   UNL     1       0.031   6.389  -1.795  0.00  0.00    +0.000 C 
BRANCH  28  29
ATOM     29  C   UNL     1       0.892   5.359  -2.454  0.00  0.00    +0.000 C 
BRANCH  29  30
ATOM     30  C   UNL     1       1.921   6.052  -3.337  0.00  0.00    +0.001 C 
BRANCH  30  31
ATOM     31  C   UNL     1       3.194   6.342  -2.603  0.00  0.00    +0.012 C 
BRANCH  31  32
ATOM     32  C   UNL     1       3.935   5.015  -2.518  0.00  0.00    +0.114 C 
BRANCH  32  33
ATOM     33  C   UNL     1       4.106   4.696  -1.066  0.00  0.00    +0.365 C 
ATOM     34  O   UNL     1       4.148   5.765  -0.164  0.00  0.00    -0.246 OA
ATOM     35  O   UNL     1       3.473   3.682  -0.645  0.00  0.00    -0.246 OA
ENDBRANCH  32  33
ENDBRANCH  31  32
ENDBRANCH  30  31
ENDBRANCH  29  30
ENDBRANCH  28  29
ENDBRANCH  27  28
ENDBRANCH  26  27
ENDBRANCH  25  26
ENDBRANCH  24  25
ENDBRANCH  22  24
ENDBRANCH  21  22
ENDBRANCH   1  20
TORSDOF 17
ENDMDL
MODEL 3
REMARK VINA RESULT:      -8.0      1.925      8.767
REMARK  Name = 
REMARK  17 active torsions:
REMARK  status: ('A' for Active; 'I' for Inactive)
REMARK    1  A    between atoms: C_2  and  C_18
REMARK    2  A    between atoms: C_3  and  C_4
REMARK    3  A    between atoms: C_4  and  O_6
REMARK    4  A    between atoms: O_6  and  C_7
REMARK    5  A    between atoms: C_7  and  C_8
REMARK    6  A    between atoms: C_8  and  C_9
REMARK    7  A    between atoms: C_9  and  C_10
REMARK    8  A    between atoms: C_10  and  C_11
REMARK    9  A    between atoms: C_11  and  C_12
REMARK   10  A    between atoms: C_12  and  C_13
REMARK   11  A    between atoms: C_13  and  C_14
REMARK   12  A    between atoms: C_14  and  C_15
REMARK   13  A    between atoms: C_18  and  C_19
REMARK   14  A    between atoms: C_22  and  C_23
REMARK   15  A    between atoms: C_23  and  C_24
REMARK   16  A    between atoms: C_26  and  C_27
REMARK   17  A    between atoms: C_27  and  C_29
REMARK                            x       y       z     vdW  Elec       q    Type
REMARK                         _______ _______ _______ _____ _____    ______ ____
ROOT
ATOM      1  C   UNL     1       5.481   4.975  -8.279  0.00  0.00    +0.054 C 
ENDROOT
BRANCH   1   2
ATOM      2  C   UNL     1       4.075   5.763  -7.949  0.00  0.00    +0.152 C 
ATOM      3  C   UNL     1       3.252   4.276  -7.657  0.00  0.00    +0.209 C 
ATOM      4  O   UNL     1       2.778   4.164  -9.078  0.00  0.00    -0.218 OA
ATOM      5  C   UNL     1       1.759   4.991  -7.210  0.00  0.00    +0.187 C 
ATOM      6  O   UNL     1       1.804   6.123  -8.211  0.00  0.00    -0.220 OA
ATOM      7  C   UNL     1       2.399   5.967  -5.962  0.00  0.00    +0.065 C 
ATOM      8  C   UNL     1       3.774   5.126  -5.730  0.00  0.00    +0.145 C 
ATOM      9  O   UNL     1       4.540   5.948  -6.514  0.00  0.00    -0.353 OA
BRANCH   7  10
ATOM     10  C   UNL     1       1.634   5.151  -4.788  0.00  0.00    +0.037 C 
BRANCH  10  11
ATOM     11  C   UNL     1       0.630   6.329  -4.154  0.00  0.00    +0.142 C 
ATOM     12  C   UNL     1      -0.739   5.312  -4.138  0.00  0.00    +0.145 C 
ATOM     13  O   UNL     1       0.244   5.440  -2.794  0.00  0.00    -0.354 OA
BRANCH  12  14
ATOM     14  C   UNL     1      -1.798   6.541  -3.582  0.00  0.00    +0.060 C 
ATOM     15  C   UNL     1      -2.165   7.027  -5.063  0.00  0.00    +0.005 C 
BRANCH  14  16
ATOM     16  C   UNL     1      -3.121   5.482  -3.336  0.00  0.00    +0.154 C 
ATOM     17  O   UNL     1      -2.602   4.978  -1.997  0.00  0.00    -0.223 OA
ATOM     18  C   UNL     1      -4.091   6.613  -2.614  0.00  0.00    +0.036 C 
ENDBRANCH  14  16
ENDBRANCH  12  14
ENDBRANCH  10  11
ENDBRANCH   7  10
ENDBRANCH   1   2
BRANCH   1  20
ATOM     19  C   UNL     1       6.006   5.755  -9.590  0.00  0.00    +0.027 C 
ATOM     20  C   UNL     1       6.136   5.606  -9.351  0.00  0.00    -0.035 C 
ATOM     21  C   UNL     1       7.137   6.328  -9.550  0.00  0.00    +0.073 C 
BRANCH  21  22
ATOM     22  C   UNL     1       7.442   6.854 -10.882  0.00  0.00    +0.341 C 
ATOM     23  O   UNL     1       7.067   8.028 -11.193  0.00  0.00    -0.245 OA
BRANCH  22  24
ATOM     24  O   UNL     1       8.326   6.170 -11.694  0.00  0.00    -0.445 OA
BRANCH  24  25
ATOM     25  C   UNL     1       8.033   6.182 -13.077  0.00  0.00    +0.209 C 
BRANCH  25  26
ATOM     26  C   UNL     1       6.837   5.300 -13.388  0.00  0.00    +0.047 C 
BRANCH  26  27
ATOM     27  C   UNL     1       5.993   6.105 -14.360  0.00  0.00    +0.004 C 
BRANCH  27  28
ATOM     28  C   UNL     1       4.526   5.927 -14.002  0.00  0.00    +0.000 C 
BRANCH  28  29
ATOM     29  C   UNL     1       4.384   5.297 -12.654  0.00  0.00    +0.000 C 
BRANCH  29  30
ATOM     30  C   UNL     1       3.163   5.879 -11.952  0.00  0.00    +0.001 C 
BRANCH  30  31
ATOM     31  C   UNL     1       2.070   6.228 -12.914  0.00  0.00    +0.012 C 
BRANCH  31  32
ATOM     32  C   UNL     1       1.076   5.077 -12.848  0.00  0.00    +0.114 C 
BRANCH  32  33
ATOM     33  C   UNL     1       0.104   5.392 -11.754  0.00  0.00    +0.365 C 
ATOM     34  O   UNL     1      -0.016   4.477 -10.704  0.00  0.00    -0.246 OA
ATOM     35  O   UNL     1       0.052   6.608 -11.397  0.00  0.00    -0.246 OA
ENDBRANCH  32  33
ENDBRANCH  31  32
ENDBRANCH  30  31
ENDBRANCH  29  30
ENDBRANCH  28  29
ENDBRANCH  27  28
ENDBRANCH  26  27
ENDBRANCH  25  26
ENDBRANCH  24  25
ENDBRANCH  22  24
ENDBRANCH  21  22
ENDBRANCH   1  20
TORSDOF 17
ENDMDL
MODEL 4
REMARK VINA RESULT:      -7.7      2.482      9.029
REMARK  Name = 
REMARK  17 active torsions:
REMARK  status: ('A' for Active; 'I' for Inactive)
REMARK    1  A    between atoms: C_2  and  C_18
REMARK    2  A    between atoms: C_3  and  C_4
REMARK    3  A    between atoms: C_4  and  O_6
REMARK    4  A    between atoms: O_6  and  C_7
REMARK    5  A    between atoms: C_7  and  C_8
REMARK    6  A    between atoms: C_8  and  C_9
REMARK    7  A    between atoms: C_9  and  C_10
REMARK    8  A    between atoms: C_10  and  C_11
REMARK    9  A    between atoms: C_11  and  C_12
REMARK   10  A    between atoms: C_12  and  C_13
REMARK   11  A    between atoms: C_13  and  C_14
REMARK   12  A    between atoms: C_14  and  C_15
REMARK   13  A    between atoms: C_18  and  C_19
REMARK   14  A    between atoms: C_22  and  C_23
REMARK   15  A    between atoms: C_23  and  C_24
REMARK   16  A    between atoms: C_26  and  C_27
REMARK   17  A    between atoms: C_27  and  C_29
REMARK                            x       y       z     vdW  Elec       q    Type
REMARK                         _______ _______ _______ _____ _____    ______ ____
ROOT
ATOM      1  C   UNL     1       4.315   5.208  -9.840  0.00  0.00    +0.054 C 
ENDROOT
BRANCH   1   2
ATOM      2  C   UNL     1       3.469   6.201  -8.837  0.00  0.00    +0.152 C 
ATOM      3  C   UNL     1       2.041   5.251  -9.021  0.00  0.00    +0.209 C 
ATOM      4  O   UNL     1       1.536   6.085 -10.163  0.00  0.00    -0.218 OA
ATOM      5  C   UNL     1       1.087   6.164  -7.927  0.00  0.00    +0.187 C 
ATOM      6  O   UNL     1       1.644   7.518  -8.301  0.00  0.00    -0.220 OA
ATOM      7  C   UNL     1       2.149   6.008  -6.597  0.00  0.00    +0.065 C 
ATOM      8  C   UNL     1       2.957   4.700  -7.132  0.00  0.00    +0.145 C 
ATOM      9  O   UNL     1       4.002   5.419  -7.648  0.00  0.00    -0.353 OA
BRANCH   7  10
ATOM     10  C   UNL     1       1.115   5.093  -5.745  0.00  0.00    +0.037 C 
BRANCH  10  11
ATOM     11  C   UNL     1       0.525   6.193  -4.632  0.00  0.00    +0.142 C 
ATOM     12  C   UNL     1      -1.040   5.517  -4.627  0.00  0.00    +0.145 C 
ATOM     13  O   UNL     1       0.105   5.024  -3.517  0.00  0.00    -0.354 OA
BRANCH  12  14
ATOM     14  C   UNL     1      -1.681   6.700  -3.563  0.00  0.00    +0.060 C 
ATOM     15  C   UNL     1      -2.104   7.681  -4.756  0.00  0.00    +0.005 C 
BRANCH  14  16
ATOM     16  C   UNL     1      -3.182   5.902  -3.357  0.00  0.00    +0.154 C 
ATOM     17  O   UNL     1      -2.588   4.779  -2.519  0.00  0.00    -0.223 OA
ATOM     18  C   UNL     1      -3.630   6.761  -2.015  0.00  0.00    +0.036 C 
ENDBRANCH  14  16
ENDBRANCH  12  14
ENDBRANCH  10  11
ENDBRANCH   7  10
ENDBRANCH   1   2
BRANCH   1  20
ATOM     19  C   UNL     1       5.492   6.152 -10.411  0.00  0.00    +0.027 C 
ATOM     20  C   UNL     1       5.472   5.867 -10.291  0.00  0.00    -0.035 C 
ATOM     21  C   UNL     1       6.665   6.018  -9.949  0.00  0.00    +0.073 C 
BRANCH  21  22
ATOM     22  C   UNL     1       7.569   6.888 -10.703  0.00  0.00    +0.341 C 
ATOM     23  O   UNL     1       7.447   8.150 -10.609  0.00  0.00    -0.245 OA
BRANCH  22  24
ATOM     24  O   UNL     1       8.680   6.342 -11.317  0.00  0.00    -0.445 OA
BRANCH  24  25
ATOM     25  C   UNL     1       8.435   5.602 -12.496  0.00  0.00    +0.209 C 
BRANCH  25  26
ATOM     26  C   UNL     1       7.573   6.391 -13.466  0.00  0.00    +0.047 C 
BRANCH  26  27
ATOM     27  C   UNL     1       6.591   5.383 -14.035  0.00  0.00    +0.004 C 
BRANCH  27  28
ATOM     28  C   UNL     1       5.217   6.028 -14.115  0.00  0.00    +0.000 C 
BRANCH  28  29
ATOM     29  C   UNL     1       4.154   5.062 -13.700  0.00  0.00    +0.000 C 
BRANCH  29  30
ATOM     30  C   UNL     1       2.913   5.833 -13.269  0.00  0.00    +0.001 C 
BRANCH  30  31
ATOM     31  C   UNL     1       1.687   5.391 -14.007  0.00  0.00    +0.012 C 
BRANCH  31  32
ATOM     32  C   UNL     1       0.782   6.613 -14.078  0.00  0.00    +0.114 C 
BRANCH  32  33
ATOM     33  C   UNL     1       1.167   7.378 -15.305  0.00  0.00    +0.365 C 
ATOM     34  O   UNL     1       0.765   6.869 -16.543  0.00  0.00    -0.246 OA
ATOM     35  O   UNL     1       1.098   8.641 -15.211  0.00  0.00    -0.246 OA
ENDBRANCH  32  33
ENDBRANCH  31  32
ENDBRANCH  30  31
ENDBRANCH  29  30
ENDBRANCH  28  29
ENDBRANCH  27  28
ENDBRANCH  26  27
ENDBRANCH  25  26
ENDBRANCH  24  25
ENDBRANCH  22  24
ENDBRANCH  21  22
ENDBRANCH   1  20
TORSDOF 17
ENDMDL
MODEL 5
REMARK VINA RESULT:      -7.7      1.694      9.491
REMARK  Name = 
REMARK  17 active torsions:
REMARK  status: ('A' for Active; 'I' for Inactive)
REMARK    1  A    between atoms: C_2  and  C_18
REMARK    2  A    between atoms: C_3  and  C_4
REMARK    3  A    between atoms: C_4  and  O_6
REMARK    4  A    between atoms: O_6  and  C_7
REMARK    5  A    between atoms: C_7  and  C_8
REMARK    6  A    between atoms: C_8  and  C_9
REMARK    7  A    between atoms: C_9  and  C_10
REMARK    8  A    between atoms: C_10  and  C_11
REMARK    9  A    between atoms: C_11  and  C_12
REMARK   10  A    between atoms: C_12  and  C_13
REMARK   11  A    between atoms: C_13  and  C_14
REMARK   12  A    between atoms: C_14  and  C_15
REMARK   13  A    between atoms: C_18  and  C_19
REMARK   14  A    between atoms: C_22  and  C_23
REMARK   15  A    between atoms: C_23  and  C_24
REMARK   16  A    between atoms: C_26  and  C_27
REMARK   17  A    between atoms: C_27  and  C_29
REMARK                            x       y       z     vdW  Elec       q    Type
REMARK                         _______ _______ _______ _____ _____    ______ ____
ROOT
ATOM      1  C   UNL     1       2.825   4.939 -12.645  0.00  0.00    +0.054 C 
ENDROOT
BRANCH   1   2
ATOM      2  C   UNL     1       2.180   6.057 -11.625  0.00  0.00    +0.152 C 
ATOM      3  C   UNL     1       0.628   5.311 -11.709  0.00  0.00    +0.209 C 
ATOM      4  O   UNL     1       0.179   6.185 -12.845  0.00  0.00    -0.218 OA
ATOM      5  C   UNL     1      -0.131   6.367 -10.591  0.00  0.00    +0.187 C 
ATOM      6  O   UNL     1       0.585   7.624 -11.029  0.00  0.00    -0.220 OA
ATOM      7  C   UNL     1       0.972   6.091  -9.316  0.00  0.00    +0.065 C 
ATOM      8  C   UNL     1       1.562   4.674  -9.857  0.00  0.00    +0.145 C 
ATOM      9  O   UNL     1       2.666   5.232 -10.445  0.00  0.00    -0.353 OA
BRANCH   7  10
ATOM     10  C   UNL     1      -0.128   5.344  -8.387  0.00  0.00    +0.037 C 
BRANCH  10  11
ATOM     11  C   UNL     1       0.070   6.133  -6.925  0.00  0.00    +0.142 C 
ATOM     12  C   UNL     1      -1.423   5.590  -6.303  0.00  0.00    +0.145 C 
ATOM     13  O   UNL     1      -0.018   4.732  -6.020  0.00  0.00    -0.354 OA
BRANCH  12  14
ATOM     14  C   UNL     1      -1.276   6.474  -4.842  0.00  0.00    +0.060 C 
ATOM     15  C   UNL     1      -2.378   7.553  -5.272  0.00  0.00    +0.005 C 
BRANCH  14  16
ATOM     16  C   UNL     1      -2.293   5.428  -3.944  0.00  0.00    +0.154 C 
ATOM     17  O   UNL     1      -1.202   5.047  -2.954  0.00  0.00    -0.223 OA
ATOM     18  C   UNL     1      -2.885   6.608  -2.946  0.00  0.00    +0.036 C 
ENDBRANCH  14  16
ENDBRANCH  12  14
ENDBRANCH  10  11
ENDBRANCH   7  10
ENDBRANCH   1   2
BRANCH   1  20
ATOM     19  C   UNL     1       4.365   5.117 -13.090  0.00  0.00    +0.027 C 
ATOM     20  C   UNL     1       4.183   5.227 -12.864  0.00  0.00    -0.035 C 
ATOM     21  C   UNL     1       4.957   6.209 -12.830  0.00  0.00    +0.073 C 
BRANCH  21  22
ATOM     22  C   UNL     1       6.363   6.083 -13.218  0.00  0.00    +0.341 C 
ATOM     23  O   UNL     1       6.844   6.871 -14.092  0.00  0.00    -0.245 OA
BRANCH  22  24
ATOM     24  O   UNL     1       7.202   5.278 -12.472  0.00  0.00    -0.445 OA
BRANCH  24  25
ATOM     25  C   UNL     1       8.264   5.934 -11.810  0.00  0.00    +0.209 C 
BRANCH  25  26
ATOM     26  C   UNL     1       7.758   6.722 -10.615  0.00  0.00    +0.047 C 
BRANCH  26  27
ATOM     27  C   UNL     1       7.277   5.676  -9.624  0.00  0.00    +0.004 C 
BRANCH  27  28
ATOM     28  C   UNL     1       5.844   5.994  -9.232  0.00  0.00    +0.000 C 
BRANCH  28  29
ATOM     29  C   UNL     1       5.363   5.051  -8.176  0.00  0.00    +0.000 C 
BRANCH  29  30
ATOM     30  C   UNL     1       4.228   5.703  -7.396  0.00  0.00    +0.001 C 
BRANCH  30  31
ATOM     31  C   UNL     1       4.554   5.856  -5.943  0.00  0.00    +0.012 C 
BRANCH  31  32
ATOM     32  C   UNL     1       3.701   7.016  -5.447  0.00  0.00    +0.114 C 
BRANCH  32  33
ATOM     33  C   UNL     1       4.442   7.660  -4.318  0.00  0.00    +0.365 C 
ATOM     34  O   UNL     1       3.769   7.817  -3.102  0.00  0.00    -0.246 OA
ATOM     35  O   UNL     1       5.662   7.334  -4.202  0.00  0.00    -0.246 OA
ENDBRANCH  32  33
ENDBRANCH  31  32
ENDBRANCH  30  31
ENDBRANCH  29  30
ENDBRANCH  28  29
ENDBRANCH  27  28
ENDBRANCH  26  27
ENDBRANCH  25  26
ENDBRANCH  24  25
ENDBRANCH  22  24
ENDBRANCH  21  22
ENDBRANCH   1  20
TORSDOF 17
ENDMDL
MODEL 6
REMARK VINA RESULT:      -7.7      2.426      8.296
REMARK  Name = 
REMARK  17 active torsions:
REMARK  status: ('A' for Active; 'I' for Inactive)
REMARK    1  A    between atoms: C_2  and  C_18
REMARK    2  A    between atoms: C_3  and  C_4
REMARK    3  A    between atoms: C_4  and  O_6
REMARK    4  A    between atoms: O_6  and  C_7
REMARK    5  A    between atoms: C_7  and  C_8
REMARK    6  A    between atoms: C_8  and  C_9
REMARK    7  A    between atoms: C_9  and  C_10
REMARK    8  A    between atoms: C_10  and  C_11
REMARK    9  A    between atoms: C_11  and  C_12
REMARK   10  A    between atoms: C_12  and  C_13
REMARK   11  A    between atoms: C_13  and  C_14
REMARK   12  A    between atoms: C_14  and  C_15
REMARK   13  A    between atoms: C_18  and  C_19
REMARK   14  A    between atoms: C_22  and  C_23
REMARK   15  A    between atoms: C_23  and  C_24
REMARK   16  A    between atoms: C_26  and  C_27
REMARK   17  A    between atoms: C_27  and  C_29
REMARK                            x       y       z     vdW  Elec       q    Type
REMARK                         _______ _______ _______ _____ _____    ______ ____
ROOT
ATOM      1  C   UNL     1       0.167   5.193  -7.857  0.00  0.00    +0.054 C 
ENDROOT
BRANCH   1   2
ATOM      2  C   UNL     1       0.308   6.285  -6.634  0.00  0.00    +0.152 C 
ATOM      3  C   UNL     1      -0.778   5.386  -5.640  0.00  0.00    +0.209 C 
ATOM      4  O   UNL     1      -1.976   6.163  -6.106  0.00  0.00    -0.218 OA
ATOM      5  C   UNL     1      -0.642   6.409  -4.271  0.00  0.00    +0.187 C 
ATOM      6  O   UNL     1      -0.564   7.710  -5.035  0.00  0.00    -0.220 OA
ATOM      7  C   UNL     1       1.058   6.297  -4.137  0.00  0.00    +0.065 C 
ATOM      8  C   UNL     1       1.241   4.923  -4.992  0.00  0.00    +0.145 C 
ATOM      9  O   UNL     1       1.559   5.561  -6.161  0.00  0.00    -0.353 OA
BRANCH   7  10
ATOM     10  C   UNL     1       0.999   5.485  -2.734  0.00  0.00    +0.037 C 
BRANCH  10  11
ATOM     11  C   UNL     1       2.610   5.464  -2.286  0.00  0.00    +0.142 C 
ATOM     12  C   UNL     1       2.417   6.692  -1.119  0.00  0.00    +0.145 C 
ATOM     13  O   UNL     1       2.287   5.083  -0.693  0.00  0.00    -0.354 OA
BRANCH  12  14
ATOM     14  C   UNL     1       4.084   6.748  -0.723  0.00  0.00    +0.060 C 
ATOM     15  C   UNL     1       4.453   7.652  -1.992  0.00  0.00    +0.005 C 
BRANCH  14  16
ATOM     16  C   UNL     1       3.910   8.004   0.430  0.00  0.00    +0.154 C 
ATOM     17  O   UNL     1       3.245   7.104   1.462  0.00  0.00    -0.223 OA
ATOM     18  C   UNL     1       5.405   7.797   1.109  0.00  0.00    +0.036 C 
ENDBRANCH  14  16
ENDBRANCH  12  14
ENDBRANCH  10  11
ENDBRANCH   7  10
ENDBRANCH   1   2
BRANCH   1  20
ATOM     19  C   UNL     1       0.353   6.109  -9.172  0.00  0.00    +0.027 C 
ATOM     20  C   UNL     1       0.182   5.863  -9.093  0.00  0.00    -0.035 C 
ATOM     21  C   UNL     1       0.159   5.591 -10.313  0.00  0.00    +0.073 C 
BRANCH  21  22
ATOM     22  C   UNL     1       0.266   6.641 -11.328  0.00  0.00    +0.341 C 
ATOM     23  O   UNL     1      -0.661   7.503 -11.437  0.00  0.00    -0.245 OA
BRANCH  22  24
ATOM     24  O   UNL     1       1.465   6.823 -11.990  0.00  0.00    -0.445 OA
BRANCH  24  25
ATOM     25  C   UNL     1       2.202   5.651 -12.272  0.00  0.00    +0.209 C 
BRANCH  25  26
ATOM     26  C   UNL     1       3.682   5.860 -12.005  0.00  0.00    +0.047 C 
BRANCH  26  27
ATOM     27  C   UNL     1       3.827   5.795 -10.495  0.00  0.00    +0.004 C 
BRANCH  27  28
ATOM     28  C   UNL     1       5.127   6.473 -10.096  0.00  0.00    +0.000 C 
BRANCH  28  29
ATOM     29  C   UNL     1       5.948   5.575  -9.228  0.00  0.00    +0.000 C 
BRANCH  29  30
ATOM     30  C   UNL     1       7.424   5.784  -9.540  0.00  0.00    +0.001 C 
BRANCH  30  31
ATOM     31  C   UNL     1       7.635   6.759 -10.656  0.00  0.00    +0.012 C 
BRANCH  31  32
ATOM     32  C   UNL     1       8.491   6.032 -11.685  0.00  0.00    +0.114 C 
BRANCH  32  33
ATOM     33  C   UNL     1       7.681   5.926 -12.939  0.00  0.00    +0.365 C 
ATOM     34  O   UNL     1       7.143   4.676 -13.263  0.00  0.00    -0.246 OA
ATOM     35  O   UNL     1       6.914   6.905 -13.185  0.00  0.00    -0.246 OA
ENDBRANCH  32  33
ENDBRANCH  31  32
ENDBRANCH  30  31
ENDBRANCH  29  30
ENDBRANCH  28  29
ENDBRANCH  27  28
ENDBRANCH  26  27
ENDBRANCH  25  26
ENDBRANCH  24  25
ENDBRANCH  22  24
ENDBRANCH  21  22
ENDBRANCH   1  20
TORSDOF 17
ENDMDL
MODEL 7
REMARK VINA RESULT:      -7.6      1.872      3.141
REMARK  Name = 
REMARK  17 active torsions:
REMARK  status: ('A' for Active; 'I' for Inactive)
REMARK    1  A    between atoms: C_2  and  C_18
REMARK    2  A    between atoms: C_3  and  C_4
REMARK    3  A    between atoms: C_4  and  O_6
REMARK    4  A    between atoms: O_6  and  C_7
REMARK    5  A    between atoms: C_7  and  C_8
REMARK    6  A    between atoms: C_8  and  C_9
REMARK    7  A    between atoms: C_9  and  C_10
REMARK    8  A    between atoms: C_10  and  C_11
REMARK    9  A    between atoms: C_11  and  C_12
REMARK   10  A    between atoms: C_12  and  C_13
REMARK   11  A    between atoms: C_13  and  C_14
REMARK   12  A    between atoms: C_14  and  C_15
REMARK   13  A    between atoms: C_18  and  C_19
REMARK   14  A    between atoms: C_22  and  C_23
REMARK   15  A    between atoms: C_23  and  C_24
REMARK   16  A    between atoms: C_26  and  C_27
REMARK   17  A    between atoms: C_27  and  C_29
REMARK                            x       y       z     vdW  Elec       q    Type
REMARK                         _______ _______ _______ _____ _____    ______ ____
ROOT
ATOM      1  C   UNL     1       1.857   5.451  -3.377  0.00  0.00    +0.054 C 
ENDROOT
BRANCH   1   2
ATOM      2  C   UNL     1       2.751   6.402  -4.378  0.00  0.00    +0.152 C 
ATOM      3  C   UNL     1       3.956   5.180  -4.546  0.00  0.00    +0.209 C 
ATOM      4  O   UNL     1       4.777   5.718  -3.409  0.00  0.00    -0.218 OA
ATOM      5  C   UNL     1       4.925   6.047  -5.663  0.00  0.00    +0.187 C 
ATOM      6  O   UNL     1       4.725   7.410  -5.043  0.00  0.00    -0.220 OA
ATOM      7  C   UNL     1       3.684   6.301  -6.810  0.00  0.00    +0.065 C 
ATOM      8  C   UNL     1       2.696   5.107  -6.312  0.00  0.00    +0.145 C 
ATOM      9  O   UNL     1       1.908   5.927  -5.549  0.00  0.00    -0.353 OA
BRANCH   7  10
ATOM     10  C   UNL     1       4.374   5.345  -7.924  0.00  0.00    +0.037 C 
BRANCH  10  11
ATOM     11  C   UNL     1       4.210   6.265  -9.311  0.00  0.00    +0.142 C 
ATOM     12  C   UNL     1       5.559   5.554 -10.076  0.00  0.00    +0.145 C 
ATOM     13  O   UNL     1       4.023   4.943 -10.312  0.00  0.00    -0.354 OA
BRANCH  12  14
ATOM     14  C   UNL     1       5.460   6.561 -11.460  0.00  0.00    +0.060 C 
ATOM     15  C   UNL     1       6.558   7.588 -10.908  0.00  0.00    +0.005 C 
BRANCH  14  16
ATOM     16  C   UNL     1       6.494   5.586 -12.415  0.00  0.00    +0.154 C 
ATOM     17  O   UNL     1       5.346   4.857 -13.098  0.00  0.00    -0.223 OA
ATOM     18  C   UNL     1       6.632   6.675 -13.654  0.00  0.00    +0.036 C 
ENDBRANCH  14  16
ENDBRANCH  12  14
ENDBRANCH  10  11
ENDBRANCH   7  10
ENDBRANCH   1   2
BRANCH   1  20
ATOM     19  C   UNL     1       1.564   6.370  -2.085  0.00  0.00    +0.027 C 
ATOM     20  C   UNL     1       1.692   6.092  -2.138  0.00  0.00    -0.035 C 
ATOM     21  C   UNL     1       1.361   5.809  -0.966  0.00  0.00    +0.073 C 
BRANCH  21  22
ATOM     22  C   UNL     1       1.243   6.844   0.063  0.00  0.00    +0.341 C 
ATOM     23  O   UNL     1       2.213   7.050   0.857  0.00  0.00    -0.245 OA
BRANCH  22  24
ATOM     24  O   UNL     1       0.187   7.733   0.012  0.00  0.00    -0.445 OA
BRANCH  24  25
ATOM     25  C   UNL     1      -0.748   7.647   1.068  0.00  0.00    +0.209 C 
BRANCH  25  26
ATOM     26  C   UNL     1      -1.876   6.692   0.721  0.00  0.00    +0.047 C 
BRANCH  26  27
ATOM     27  C   UNL     1      -2.229   7.002  -0.723  0.00  0.00    +0.004 C 
BRANCH  27  28
ATOM     28  C   UNL     1      -2.234   5.706  -1.516  0.00  0.00    +0.000 C 
BRANCH  28  29
ATOM     29  C   UNL     1      -2.775   5.930  -2.892  0.00  0.00    +0.000 C 
BRANCH  29  30
ATOM     30  C   UNL     1      -2.324   7.295  -3.395  0.00  0.00    +0.001 C 
BRANCH  30  31
ATOM     31  C   UNL     1      -2.337   7.381  -4.889  0.00  0.00    +0.012 C 
BRANCH  31  32
ATOM     32  C   UNL     1      -1.099   6.630  -5.358  0.00  0.00    +0.114 C 
BRANCH  32  33
ATOM     33  C   UNL     1      -1.559   5.563  -6.301  0.00  0.00    +0.365 C 
ATOM     34  O   UNL     1      -2.935   5.342  -6.415  0.00  0.00    -0.246 OA
ATOM     35  O   UNL     1      -0.924   5.483  -7.396  0.00  0.00    -0.246 OA
ENDBRANCH  32  33
ENDBRANCH  31  32
ENDBRANCH  30  31
ENDBRANCH  29  30
ENDBRANCH  28  29
ENDBRANCH  27  28
ENDBRANCH  26  27
ENDBRANCH  25  26
ENDBRANCH  24  25
ENDBRANCH  22  24
ENDBRANCH  21  22
ENDBRANCH   1  20
TORSDOF 17
ENDMDL
MODEL 8
REMARK VINA RESULT:      -7.4      2.636      8.715
REMARK  Name = 
REMARK  17 active torsions:
REMARK  status: ('A' for Active; 'I' for Inactive)
REMARK    1  A    between atoms: C_2  and  C_18
REMARK    2  A    between atoms: C_3  and  C_4
REMARK    3  A    between atoms: C_4  and  O_6
REMARK    4  A    between atoms: O_6  and  C_7
REMARK    5  A    between atoms: C_7  and  C_8
REMARK    6  A    between atoms: C_8  and  C_9
REMARK    7  A    between atoms: C_9  and  C_10
REMARK    8  A    between atoms: C_10  and  C_11
REMARK    9  A    between atoms: C_11  and  C_12
REMARK   10  A    between atoms: C_12  and  C_13
REMARK   11  A    between atoms: C_13  and  C_14
REMARK   12  A    between atoms: C_14  and  C_15
REMARK   13  A    between atoms: C_18  and  C_19
REMARK   14  A    between atoms: C_22  and  C_23
REMARK   15  A    between atoms: C_23  and  C_24
REMARK   16  A    between atoms: C_26  and  C_27
REMARK   17  A    between atoms: C_27  and  C_29
REMARK                            x       y       z     vdW  Elec       q    Type
REMARK                         _______ _______ _______ _____ _____    ______ ____
ROOT
ATOM      1  C   UNL     1       4.555   4.847  -8.931  0.00  0.00    +0.054 C 
ENDROOT
BRANCH   1   2
ATOM      2  C   UNL     1       3.468   6.019  -8.542  0.00  0.00    +0.152 C 
ATOM      3  C   UNL     1       2.352   4.852  -7.936  0.00  0.00    +0.209 C 
ATOM      4  O   UNL     1       1.644   4.725  -9.254  0.00  0.00    -0.218 OA
ATOM      5  C   UNL     1       1.182   5.990  -7.412  0.00  0.00    +0.187 C 
ATOM      6  O   UNL     1       1.352   6.954  -8.563  0.00  0.00    -0.220 OA
ATOM      7  C   UNL     1       2.241   6.879  -6.409  0.00  0.00    +0.065 C 
ATOM      8  C   UNL     1       3.376   5.725  -6.234  0.00  0.00    +0.145 C 
ATOM      9  O   UNL     1       4.189   6.220  -7.219  0.00  0.00    -0.353 OA
BRANCH   7  10
ATOM     10  C   UNL     1       1.492   6.431  -5.042  0.00  0.00    +0.037 C 
BRANCH  10  11
ATOM     11  C   UNL     1       2.764   5.824  -4.140  0.00  0.00    +0.142 C 
ATOM     12  C   UNL     1       2.557   6.957  -2.882  0.00  0.00    +0.145 C 
ATOM     13  O   UNL     1       1.812   5.464  -2.817  0.00  0.00    -0.354 OA
BRANCH  12  14
ATOM     14  C   UNL     1       3.920   6.407  -1.998  0.00  0.00    +0.060 C 
ATOM     15  C   UNL     1       4.905   7.477  -2.667  0.00  0.00    +0.005 C 
BRANCH  14  16
ATOM     16  C   UNL     1       3.529   7.285  -0.580  0.00  0.00    +0.154 C 
ATOM     17  O   UNL     1       2.720   6.147   0.026  0.00  0.00    -0.223 OA
ATOM     18  C   UNL     1       4.893   6.852   0.251  0.00  0.00    +0.036 C 
ENDBRANCH  14  16
ENDBRANCH  12  14
ENDBRANCH  10  11
ENDBRANCH   7  10
ENDBRANCH   1   2
BRANCH   1  20
ATOM     19  C   UNL     1       5.597   5.630  -9.882  0.00  0.00    +0.027 C 
ATOM     20  C   UNL     1       5.614   5.410  -9.664  0.00  0.00    -0.035 C 
ATOM     21  C   UNL     1       6.786   5.804  -9.477  0.00  0.00    +0.073 C 
BRANCH  21  22
ATOM     22  C   UNL     1       7.562   6.422 -10.554  0.00  0.00    +0.341 C 
ATOM     23  O   UNL     1       7.490   7.678 -10.737  0.00  0.00    -0.245 OA
BRANCH  22  24
ATOM     24  O   UNL     1       8.532   5.681 -11.201  0.00  0.00    -0.445 OA
BRANCH  24  25
ATOM     25  C   UNL     1       8.686   5.934 -12.583  0.00  0.00    +0.209 C 
BRANCH  25  26
ATOM     26  C   UNL     1       7.529   5.352 -13.376  0.00  0.00    +0.047 C 
BRANCH  26  27
ATOM     27  C   UNL     1       7.135   6.438 -14.361  0.00  0.00    +0.004 C 
BRANCH  27  28
ATOM     28  C   UNL     1       5.628   6.405 -14.553  0.00  0.00    +0.000 C 
BRANCH  28  29
ATOM     29  C   UNL     1       4.930   6.264 -13.238  0.00  0.00    +0.000 C 
BRANCH  29  30
ATOM     30  C   UNL     1       3.583   5.587 -13.453  0.00  0.00    +0.001 C 
BRANCH  30  31
ATOM     31  C   UNL     1       2.673   5.748 -12.276  0.00  0.00    +0.012 C 
BRANCH  31  32
ATOM     32  C   UNL     1       1.264   5.824 -12.847  0.00  0.00    +0.114 C 
BRANCH  32  33
ATOM     33  C   UNL     1       1.284   5.125 -14.170  0.00  0.00    +0.365 C 
ATOM     34  O   UNL     1       0.923   3.774 -14.198  0.00  0.00    -0.246 OA
ATOM     35  O   UNL     1       0.862   5.800 -15.157  0.00  0.00    -0.246 OA
ENDBRANCH  32  33
ENDBRANCH  31  32
ENDBRANCH  30  31
ENDBRANCH  29  30
ENDBRANCH  28  29
ENDBRANCH  27  28
ENDBRANCH  26  27
ENDBRANCH  25  26
ENDBRANCH  24  25
ENDBRANCH  22  24
ENDBRANCH  21  22
ENDBRANCH   1  20
TORSDOF 17
ENDMDL
MODEL 9
REMARK VINA RESULT:      -7.3      2.615      9.455
REMARK  Name = 
REMARK  17 active torsions:
REMARK  status: ('A' for Active; 'I' for Inactive)
REMARK    1  A    between atoms: C_2  and  C_18
REMARK    2  A    between atoms: C_3  and  C_4
REMARK    3  A    between atoms: C_4  and  O_6
REMARK    4  A    between atoms: O_6  and  C_7
REMARK    5  A    between atoms: C_7  and  C_8
REMARK    6  A    between atoms: C_8  and  C_9
REMARK    7  A    between atoms: C_9  and  C_10
REMARK    8  A    between atoms: C_10  and  C_11
REMARK    9  A    between atoms: C_11  and  C_12
REMARK   10  A    between atoms: C_12  and  C_13
REMARK   11  A    between atoms: C_13  and  C_14
REMARK   12  A    between atoms: C_14  and  C_15
REMARK   13  A    between atoms: C_18  and  C_19
REMARK   14  A    between atoms: C_22  and  C_23
REMARK   15  A    between atoms: C_23  and  C_24
REMARK   16  A    between atoms: C_26  and  C_27
REMARK   17  A    between atoms: C_27  and  C_29
REMARK                            x       y       z     vdW  Elec       q    Type
REMARK                         _______ _______ _______ _____ _____    ______ ____
ROOT
ATOM      1  C   UNL     1       0.160   5.214  -5.852  0.00  0.00    +0.054 C 
ENDROOT
BRANCH   1   2
ATOM      2  C   UNL     1      -0.769   6.497  -5.407  0.00  0.00    +0.152 C 
ATOM      3  C   UNL     1      -1.917   5.464  -4.640  0.00  0.00    +0.209 C 
ATOM      4  O   UNL     1      -2.769   5.359  -5.872  0.00  0.00    -0.218 OA
ATOM      5  C   UNL     1      -2.916   6.726  -4.050  0.00  0.00    +0.187 C 
ATOM      6  O   UNL     1      -2.781   7.629  -5.254  0.00  0.00    -0.220 OA
ATOM      7  C   UNL     1      -1.680   7.545  -3.201  0.00  0.00    +0.065 C 
ATOM      8  C   UNL     1      -0.643   6.294  -3.091  0.00  0.00    +0.145 C 
ATOM      9  O   UNL     1       0.103   6.674  -4.175  0.00  0.00    -0.353 OA
BRANCH   7  10
ATOM     10  C   UNL     1      -2.319   7.217  -1.746  0.00  0.00    +0.037 C 
BRANCH  10  11
ATOM     11  C   UNL     1      -0.950   6.918  -0.833  0.00  0.00    +0.142 C 
ATOM     12  C   UNL     1      -1.480   7.871   0.478  0.00  0.00    +0.145 C 
ATOM     13  O   UNL     1      -1.797   6.232   0.433  0.00  0.00    -0.354 OA
BRANCH  12  14
ATOM     14  C   UNL     1      -0.038   7.651   1.380  0.00  0.00    +0.060 C 
ATOM     15  C   UNL     1       0.571   9.062   0.930  0.00  0.00    +0.005 C 
BRANCH  14  16
ATOM     16  C   UNL     1      -0.730   8.145   2.868  0.00  0.00    +0.154 C 
ATOM     17  O   UNL     1      -1.032   6.723   3.317  0.00  0.00    -0.223 OA
ATOM     18  C   UNL     1       0.702   8.179   3.698  0.00  0.00    +0.036 C 
ENDBRANCH  14  16
ENDBRANCH  12  14
ENDBRANCH  10  11
ENDBRANCH   7  10
ENDBRANCH   1   2
BRANCH   1  20
ATOM     19  C   UNL     1       0.568   5.064  -7.406  0.00  0.00    +0.027 C 
ATOM     20  C   UNL     1       0.415   5.272  -7.233  0.00  0.00    -0.035 C 
ATOM     21  C   UNL     1      -0.175   5.590  -8.289  0.00  0.00    +0.073 C 
BRANCH  21  22
ATOM     22  C   UNL     1       0.464   5.426  -9.596  0.00  0.00    +0.341 C 
ATOM     23  O   UNL     1       0.110   4.465 -10.349  0.00  0.00    -0.245 OA
BRANCH  22  24
ATOM     24  O   UNL     1       1.264   6.437 -10.091  0.00  0.00    -0.445 OA
BRANCH  24  25
ATOM     25  C   UNL     1       2.652   6.173 -10.115  0.00  0.00    +0.209 C 
BRANCH  25  26
ATOM     26  C   UNL     1       3.373   6.942  -9.022  0.00  0.00    +0.047 C 
BRANCH  26  27
ATOM     27  C   UNL     1       4.048   5.882  -8.170  0.00  0.00    +0.004 C 
BRANCH  27  28
ATOM     28  C   UNL     1       3.973   6.302  -6.712  0.00  0.00    +0.000 C 
BRANCH  28  29
ATOM     29  C   UNL     1       4.267   5.146  -5.812  0.00  0.00    +0.000 C 
BRANCH  29  30
ATOM     30  C   UNL     1       3.437   5.272  -4.541  0.00  0.00    +0.001 C 
BRANCH  30  31
ATOM     31  C   UNL     1       4.272   5.632  -3.352  0.00  0.00    +0.012 C 
BRANCH  31  32
ATOM     32  C   UNL     1       3.312   5.685  -2.172  0.00  0.00    +0.114 C 
BRANCH  32  33
ATOM     33  C   UNL     1       4.006   5.053  -1.006  0.00  0.00    +0.365 C 
ATOM     34  O   UNL     1       4.363   5.877   0.066  0.00  0.00    -0.246 OA
ATOM     35  O   UNL     1       3.580   3.908  -0.666  0.00  0.00    -0.246 OA
ENDBRANCH  32  33
ENDBRANCH  31  32
ENDBRANCH  30  31
ENDBRANCH  29  30
ENDBRANCH  28  29
ENDBRANCH  27  28
ENDBRANCH  26  27
ENDBRANCH  25  26
ENDBRANCH  24  25
ENDBRANCH  22  24
ENDBRANCH  21  22
ENDBRANCH   1  20
TORSDOF 17
ENDMDL
