MODEL 1
REMARK VINA RESULT:      -5.3      0.000      0.000
REMARK  Name = 
REMARK  37 active torsions:
REMARK  status: ('A' for Active; 'I' for Inactive)
REMARK    1  A    between atoms: C_2  and  C_3
REMARK    2  A    between atoms: C_3  and  C_4
REMARK    3  A    between atoms: C_4  and  C_5
REMARK    4  A    between atoms: C_5  and  C_6
REMARK    5  A    between atoms: C_6  and  C_7
REMARK    6  A    between atoms: C_7  and  C_8
REMARK    7  A    between atoms: C_8  and  C_9
REMARK    8  A    between atoms: C_9  and  C_10
REMARK    9  A    between atoms: C_10  and  C_11
REMARK   10  A    between atoms: C_11  and  C_12
REMARK   11  A    between atoms: C_12  and  O_13
REMARK   12  A    between atoms: O_13  and  C_14
REMARK   13  A    between atoms: C_14  and  C_15
REMARK   14  A    between atoms: C_15  and  O_16
REMARK   15  A    between atoms: O_16  and  C_17
REMARK   16  A    between atoms: C_17  and  C_18
REMARK   17  A    between atoms: C_18  and  O_19
REMARK   18  A    between atoms: O_19  and  C_20
REMARK   19  A    between atoms: C_20  and  C_21
REMARK   20  A    between atoms: C_21  and  O_22
REMARK   21  A    between atoms: O_22  and  C_23
REMARK   22  A    between atoms: C_23  and  C_24
REMARK   23  A    between atoms: C_24  and  O_25
REMARK   24  A    between atoms: O_25  and  C_26
REMARK   25  A    between atoms: C_26  and  C_27
REMARK   26  A    between atoms: C_27  and  O_28
REMARK   27  A    between atoms: O_28  and  C_29
REMARK   28  A    between atoms: C_29  and  C_30
REMARK   29  A    between atoms: C_30  and  O_31
REMARK   30  A    between atoms: O_31  and  C_32
REMARK   31  A    between atoms: C_32  and  C_33
REMARK   32  A    between atoms: C_33  and  O_34
REMARK   33  A    between atoms: O_34  and  C_35
REMARK   34  A    between atoms: C_35  and  C_36
REMARK   35  A    between atoms: C_36  and  O_37
REMARK   36  A    between atoms: O_37  and  C_38
REMARK   37  A    between atoms: C_38  and  C_39
REMARK                            x       y       z     vdW  Elec       q    Type
REMARK                         _______ _______ _______ _____ _____    ______ ____
ROOT
ATOM      1  C   UNL     1      -0.133   5.190  -5.881  0.00  0.00    +0.174 C 
ENDROOT
BRANCH   1   2
ATOM      2  O   UNL     1       0.888   4.870  -6.788  0.00  0.00    -0.348 OA
BRANCH   2   3
ATOM      3  C   UNL     1       1.176   6.047  -7.477  0.00  0.00    +0.174 C 
BRANCH   3   4
ATOM      4  C   UNL     1       2.532   5.865  -8.148  0.00  0.00    +0.174 C 
BRANCH   4   5
ATOM      5  O   UNL     1       2.758   4.480  -8.175  0.00  0.00    -0.348 OA
BRANCH   5   6
ATOM      6  C   UNL     1       3.891   4.300  -8.986  0.00  0.00    +0.174 C 
BRANCH   6   7
ATOM      7  C   UNL     1       4.881   5.374  -8.552  0.00  0.00    +0.174 C 
BRANCH   7   8
ATOM      8  O   UNL     1       5.522   5.805  -9.721  0.00  0.00    -0.351 OA
BRANCH   8   9
ATOM      9  C   UNL     1       6.898   5.738  -9.447  0.00  0.00    +0.142 C 
BRANCH   9  10
ATOM     10  C   UNL     1       7.629   6.494 -10.539  0.00  0.00    +0.032 C 
BRANCH  10  11
ATOM     11  C   UNL     1       8.158   5.466 -11.525  0.00  0.00    +0.003 C 
BRANCH  11  12
ATOM     12  C   UNL     1       8.031   6.073 -12.904  0.00  0.00    +0.000 C 
BRANCH  12  13
ATOM     13  C   UNL     1       6.628   6.659 -12.992  0.00  0.00    +0.000 C 
BRANCH  13  14
ATOM     14  C   UNL     1       5.800   5.735 -13.868  0.00  0.00    +0.000 C 
BRANCH  14  15
ATOM     15  C   UNL     1       4.741   5.111 -12.977  0.00  0.00    +0.000 C 
BRANCH  15  16
ATOM     16  C   UNL     1       3.396   5.725 -13.337  0.00  0.00    +0.000 C 
BRANCH  16  17
ATOM     17  C   UNL     1       2.650   5.934 -12.040  0.00  0.00    +0.000 C 
BRANCH  17  18
ATOM     18  C   UNL     1       1.311   6.590 -12.234  0.00  0.00    +0.000 C 
BRANCH  18  20
ATOM     19  C   UNL     1       0.420   4.598 -10.987  0.00  0.00    +0.000 C 
ATOM     20  C   UNL     1       0.247   6.056 -11.314  0.00  0.00    +0.000 C 
ENDBRANCH  18  20
ENDBRANCH  17  18
ENDBRANCH  16  17
ENDBRANCH  15  16
ENDBRANCH  14  15
ENDBRANCH  13  14
ENDBRANCH  12  13
ENDBRANCH  11  12
ENDBRANCH  10  11
ENDBRANCH   9  10
ENDBRANCH   8   9
ENDBRANCH   7   8
ENDBRANCH   6   7
ENDBRANCH   5   6
ENDBRANCH   4   5
ENDBRANCH   3   4
ENDBRANCH   2   3
ENDBRANCH   1   2
BRANCH   1  21
ATOM     21  C   UNL     1      -1.424   5.338  -6.666  0.00  0.00    +0.174 C 
BRANCH  21  22
ATOM     22  O   UNL     1      -2.443   5.580  -5.739  0.00  0.00    -0.348 OA
BRANCH  22  23
ATOM     23  C   UNL     1      -1.943   5.586  -4.430  0.00  0.00    +0.174 C 
BRANCH  23  24
ATOM     24  C   UNL     1      -3.050   5.171  -3.471  0.00  0.00    +0.174 C 
BRANCH  24  25
ATOM     25  O   UNL     1      -2.476   5.020  -2.220  0.00  0.00    -0.348 OA
BRANCH  25  26
ATOM     26  C   UNL     1      -1.714   6.158  -1.957  0.00  0.00    +0.174 C 
BRANCH  26  27
ATOM     27  C   UNL     1      -1.724   6.428  -0.458  0.00  0.00    +0.174 C 
BRANCH  27  28
ATOM     28  O   UNL     1      -1.689   7.813  -0.265  0.00  0.00    -0.348 OA
BRANCH  28  29
ATOM     29  C   UNL     1      -0.501   8.203   0.368  0.00  0.00    +0.174 C 
BRANCH  29  30
ATOM     30  C   UNL     1      -0.060   7.141   1.345  0.00  0.00    +0.174 C 
BRANCH  30  31
ATOM     31  O   UNL     1       1.329   7.132   1.421  0.00  0.00    -0.348 OA
BRANCH  31  32
ATOM     32  C   UNL     1       1.835   7.416   0.160  0.00  0.00    +0.174 C 
BRANCH  32  33
ATOM     33  C   UNL     1       3.346   7.572   0.269  0.00  0.00    +0.174 C 
BRANCH  33  34
ATOM     34  O   UNL     1       3.931   6.643  -0.573  0.00  0.00    -0.348 OA
BRANCH  34  35
ATOM     35  C   UNL     1       3.037   6.189  -1.525  0.00  0.00    +0.174 C 
BRANCH  35  36
ATOM     36  C   UNL     1       3.588   5.014  -2.283  0.00  0.00    +0.174 C 
BRANCH  36  37
ATOM     37  O   UNL     1       4.376   5.513  -3.326  0.00  0.00    -0.348 OA
BRANCH  37  38
ATOM     38  C   UNL     1       3.476   5.984  -4.294  0.00  0.00    +0.178 C 
BRANCH  38  39
ATOM     39  C   UNL     1       4.060   7.203  -4.997  0.00  0.00    +0.214 C 
ATOM     40  O   UNL     1       4.832   7.978  -4.138  0.00  0.00    -0.218 OA
ENDBRANCH  38  39
ENDBRANCH  37  38
ENDBRANCH  36  37
ENDBRANCH  35  36
ENDBRANCH  34  35
ENDBRANCH  33  34
ENDBRANCH  32  33
ENDBRANCH  31  32
ENDBRANCH  30  31
ENDBRANCH  29  30
ENDBRANCH  28  29
ENDBRANCH  27  28
ENDBRANCH  26  27
ENDBRANCH  25  26
ENDBRANCH  24  25
ENDBRANCH  23  24
ENDBRANCH  22  23
ENDBRANCH  21  22
ENDBRANCH   1  21
TORSDOF 37
ENDMDL
MODEL 2
REMARK VINA RESULT:      -5.2      1.619      3.806
REMARK  Name = 
REMARK  37 active torsions:
REMARK  status: ('A' for Active; 'I' for Inactive)
REMARK    1  A    between atoms: C_2  and  C_3
REMARK    2  A    between atoms: C_3  and  C_4
REMARK    3  A    between atoms: C_4  and  C_5
REMARK    4  A    between atoms: C_5  and  C_6
REMARK    5  A    between atoms: C_6  and  C_7
REMARK    6  A    between atoms: C_7  and  C_8
REMARK    7  A    between atoms: C_8  and  C_9
REMARK    8  A    between atoms: C_9  and  C_10
REMARK    9  A    between atoms: C_10  and  C_11
REMARK   10  A    between atoms: C_11  and  C_12
REMARK   11  A    between atoms: C_12  and  O_13
REMARK   12  A    between atoms: O_13  and  C_14
REMARK   13  A    between atoms: C_14  and  C_15
REMARK   14  A    between atoms: C_15  and  O_16
REMARK   15  A    between atoms: O_16  and  C_17
REMARK   16  A    between atoms: C_17  and  C_18
REMARK   17  A    between atoms: C_18  and  O_19
REMARK   18  A    between atoms: O_19  and  C_20
REMARK   19  A    between atoms: C_20  and  C_21
REMARK   20  A    between atoms: C_21  and  O_22
REMARK   21  A    between atoms: O_22  and  C_23
REMARK   22  A    between atoms: C_23  and  C_24
REMARK   23  A    between atoms: C_24  and  O_25
REMARK   24  A    between atoms: O_25  and  C_26
REMARK   25  A    between atoms: C_26  and  C_27
REMARK   26  A    between atoms: C_27  and  O_28
REMARK   27  A    between atoms: O_28  and  C_29
REMARK   28  A    between atoms: C_29  and  C_30
REMARK   29  A    between atoms: C_30  and  O_31
REMARK   30  A    between atoms: O_31  and  C_32
REMARK   31  A    between atoms: C_32  and  C_33
REMARK   32  A    between atoms: C_33  and  O_34
REMARK   33  A    between atoms: O_34  and  C_35
REMARK   34  A    between atoms: C_35  and  C_36
REMARK   35  A    between atoms: C_36  and  O_37
REMARK   36  A    between atoms: O_37  and  C_38
REMARK   37  A    between atoms: C_38  and  C_39
REMARK                            x       y       z     vdW  Elec       q    Type
REMARK                         _______ _______ _______ _____ _____    ______ ____
ROOT
ATOM      1  C   UNL     1       0.049   5.361  -3.698  0.00  0.00    +0.174 C 
ENDROOT
BRANCH   1   2
ATOM      2  O   UNL     1       0.165   5.252  -5.091  0.00  0.00    -0.348 OA
BRANCH   2   3
ATOM      3  C   UNL     1      -1.020   5.762  -5.618  0.00  0.00    +0.174 C 
BRANCH   3   4
ATOM      4  C   UNL     1      -1.114   5.299  -7.067  0.00  0.00    +0.174 C 
BRANCH   4   5
ATOM      5  O   UNL     1       0.211   5.211  -7.522  0.00  0.00    -0.348 OA
BRANCH   5   6
ATOM      6  C   UNL     1       0.237   5.911  -8.740  0.00  0.00    +0.174 C 
BRANCH   6   7
ATOM      7  C   UNL     1       0.349   4.845  -9.824  0.00  0.00    +0.174 C 
BRANCH   7   8
ATOM      8  O   UNL     1       0.009   5.479 -11.026  0.00  0.00    -0.351 OA
BRANCH   8   9
ATOM      9  C   UNL     1       1.056   6.375 -11.294  0.00  0.00    +0.142 C 
BRANCH   9  10
ATOM     10  C   UNL     1       2.091   5.648 -12.129  0.00  0.00    +0.032 C 
BRANCH  10  11
ATOM     11  C   UNL     1       3.437   6.292 -11.844  0.00  0.00    +0.003 C 
BRANCH  11  12
ATOM     12  C   UNL     1       3.625   6.274 -10.344  0.00  0.00    +0.000 C 
BRANCH  12  13
ATOM     13  C   UNL     1       5.125   6.360 -10.094  0.00  0.00    +0.000 C 
BRANCH  13  14
ATOM     14  C   UNL     1       5.689   7.398 -11.048  0.00  0.00    +0.000 C 
BRANCH  14  15
ATOM     15  C   UNL     1       7.188   7.451 -10.809  0.00  0.00    +0.000 C 
BRANCH  15  16
ATOM     16  C   UNL     1       7.744   6.044 -10.973  0.00  0.00    +0.000 C 
BRANCH  16  17
ATOM     17  C   UNL     1       8.408   5.991 -12.328  0.00  0.00    +0.000 C 
BRANCH  17  18
ATOM     18  C   UNL     1       7.508   5.444 -13.402  0.00  0.00    +0.000 C 
BRANCH  18  20
ATOM     19  C   UNL     1       5.716   6.641 -14.693  0.00  0.00    +0.000 C 
ATOM     20  C   UNL     1       7.191   6.443 -14.480  0.00  0.00    +0.000 C 
ENDBRANCH  18  20
ENDBRANCH  17  18
ENDBRANCH  16  17
ENDBRANCH  15  16
ENDBRANCH  14  15
ENDBRANCH  13  14
ENDBRANCH  12  13
ENDBRANCH  11  12
ENDBRANCH  10  11
ENDBRANCH   9  10
ENDBRANCH   8   9
ENDBRANCH   7   8
ENDBRANCH   6   7
ENDBRANCH   5   6
ENDBRANCH   4   5
ENDBRANCH   3   4
ENDBRANCH   2   3
ENDBRANCH   1   2
BRANCH   1  21
ATOM     21  C   UNL     1      -1.415   5.595  -3.370  0.00  0.00    +0.174 C 
BRANCH  21  22
ATOM     22  O   UNL     1      -1.663   4.979  -2.138  0.00  0.00    -0.348 OA
BRANCH  22  23
ATOM     23  C   UNL     1      -1.562   5.898  -1.086  0.00  0.00    +0.174 C 
BRANCH  23  24
ATOM     24  C   UNL     1      -2.179   7.220  -1.518  0.00  0.00    +0.174 C 
BRANCH  24  25
ATOM     25  O   UNL     1      -1.610   8.215  -0.740  0.00  0.00    -0.348 OA
BRANCH  25  26
ATOM     26  C   UNL     1      -1.896   7.931   0.595  0.00  0.00    +0.174 C 
BRANCH  26  27
ATOM     27  C   UNL     1      -1.151   8.919   1.484  0.00  0.00    +0.174 C 
BRANCH  27  28
ATOM     28  O   UNL     1      -0.114   9.483   0.735  0.00  0.00    -0.348 OA
BRANCH  28  29
ATOM     29  C   UNL     1       1.101   9.423   1.431  0.00  0.00    +0.174 C 
BRANCH  29  30
ATOM     30  C   UNL     1       1.191   8.131   2.205  0.00  0.00    +0.174 C 
BRANCH  30  31
ATOM     31  O   UNL     1       2.461   7.586   2.050  0.00  0.00    -0.348 OA
BRANCH  31  32
ATOM     32  C   UNL     1       3.096   8.254   1.011  0.00  0.00    +0.174 C 
BRANCH  32  33
ATOM     33  C   UNL     1       4.175   7.345   0.438  0.00  0.00    +0.174 C 
BRANCH  33  34
ATOM     34  O   UNL     1       3.582   6.142   0.100  0.00  0.00    -0.348 OA
BRANCH  34  35
ATOM     35  C   UNL     1       4.322   5.463  -0.850  0.00  0.00    +0.174 C 
BRANCH  35  36
ATOM     36  C   UNL     1       4.018   5.951  -2.239  0.00  0.00    +0.174 C 
BRANCH  36  37
ATOM     37  O   UNL     1       3.746   4.830  -3.032  0.00  0.00    -0.348 OA
BRANCH  37  38
ATOM     38  C   UNL     1       3.809   5.277  -4.361  0.00  0.00    +0.178 C 
BRANCH  38  39
ATOM     39  C   UNL     1       4.513   6.627  -4.422  0.00  0.00    +0.214 C 
ATOM     40  O   UNL     1       3.914   7.485  -5.338  0.00  0.00    -0.218 OA
ENDBRANCH  38  39
ENDBRANCH  37  38
ENDBRANCH  36  37
ENDBRANCH  35  36
ENDBRANCH  34  35
ENDBRANCH  33  34
ENDBRANCH  32  33
ENDBRANCH  31  32
ENDBRANCH  30  31
ENDBRANCH  29  30
ENDBRANCH  28  29
ENDBRANCH  27  28
ENDBRANCH  26  27
ENDBRANCH  25  26
ENDBRANCH  24  25
ENDBRANCH  23  24
ENDBRANCH  22  23
ENDBRANCH  21  22
ENDBRANCH   1  21
TORSDOF 37
ENDMDL
MODEL 3
REMARK VINA RESULT:      -5.1      2.033     10.924
REMARK  Name = 
REMARK  37 active torsions:
REMARK  status: ('A' for Active; 'I' for Inactive)
REMARK    1  A    between atoms: C_2  and  C_3
REMARK    2  A    between atoms: C_3  and  C_4
REMARK    3  A    between atoms: C_4  and  C_5
REMARK    4  A    between atoms: C_5  and  C_6
REMARK    5  A    between atoms: C_6  and  C_7
REMARK    6  A    between atoms: C_7  and  C_8
REMARK    7  A    between atoms: C_8  and  C_9
REMARK    8  A    between atoms: C_9  and  C_10
REMARK    9  A    between atoms: C_10  and  C_11
REMARK   10  A    between atoms: C_11  and  C_12
REMARK   11  A    between atoms: C_12  and  O_13
REMARK   12  A    between atoms: O_13  and  C_14
REMARK   13  A    between atoms: C_14  and  C_15
REMARK   14  A    between atoms: C_15  and  O_16
REMARK   15  A    between atoms: O_16  and  C_17
REMARK   16  A    between atoms: C_17  and  C_18
REMARK   17  A    between atoms: C_18  and  O_19
REMARK   18  A    between atoms: O_19  and  C_20
REMARK   19  A    between atoms: C_20  and  C_21
REMARK   20  A    between atoms: C_21  and  O_22
REMARK   21  A    between atoms: O_22  and  C_23
REMARK   22  A    between atoms: C_23  and  C_24
REMARK   23  A    between atoms: C_24  and  O_25
REMARK   24  A    between atoms: O_25  and  C_26
REMARK   25  A    between atoms: C_26  and  C_27
REMARK   26  A    between atoms: C_27  and  O_28
REMARK   27  A    between atoms: O_28  and  C_29
REMARK   28  A    between atoms: C_29  and  C_30
REMARK   29  A    between atoms: C_30  and  O_31
REMARK   30  A    between atoms: O_31  and  C_32
REMARK   31  A    between atoms: C_32  and  C_33
REMARK   32  A    between atoms: C_33  and  O_34
REMARK   33  A    between atoms: O_34  and  C_35
REMARK   34  A    between atoms: C_35  and  C_36
REMARK   35  A    between atoms: C_36  and  O_37
REMARK   36  A    between atoms: O_37  and  C_38
REMARK   37  A    between atoms: C_38  and  C_39
REMARK                            x       y       z     vdW  Elec       q    Type
REMARK                         _______ _______ _______ _____ _____    ______ ____
ROOT
ATOM      1  C   UNL     1       1.159   5.317  -4.229  0.00  0.00    +0.174 C 
ENDROOT
BRANCH   1   2
ATOM      2  O   UNL     1       0.531   6.541  -3.959  0.00  0.00    -0.348 OA
BRANCH   2   3
ATOM      3  C   UNL     1      -0.174   6.877  -5.114  0.00  0.00    +0.174 C 
BRANCH   3   4
ATOM      4  C   UNL     1      -1.533   7.415  -4.682  0.00  0.00    +0.174 C 
BRANCH   4   5
ATOM      5  O   UNL     1      -2.479   6.696  -5.430  0.00  0.00    -0.348 OA
BRANCH   5   6
ATOM      6  C   UNL     1      -2.749   5.539  -4.681  0.00  0.00    +0.174 C 
BRANCH   6   7
ATOM      7  C   UNL     1      -3.112   6.029  -3.284  0.00  0.00    +0.174 C 
BRANCH   7   8
ATOM      8  O   UNL     1      -2.750   4.999  -2.406  0.00  0.00    -0.351 OA
BRANCH   8   9
ATOM      9  C   UNL     1      -1.873   5.580  -1.477  0.00  0.00    +0.142 C 
BRANCH   9  10
ATOM     10  C   UNL     1      -2.334   7.002  -1.224  0.00  0.00    +0.032 C 
BRANCH  10  11
ATOM     11  C   UNL     1      -1.454   7.576  -0.127  0.00  0.00    +0.003 C 
BRANCH  11  12
ATOM     12  C   UNL     1      -0.089   6.946  -0.283  0.00  0.00    +0.000 C 
BRANCH  12  13
ATOM     13  C   UNL     1       0.716   7.345   0.947  0.00  0.00    +0.000 C 
BRANCH  13  14
ATOM     14  C   UNL     1       1.541   8.566   0.578  0.00  0.00    +0.000 C 
BRANCH  14  15
ATOM     15  C   UNL     1       2.944   8.075   0.269  0.00  0.00    +0.000 C 
BRANCH  15  16
ATOM     16  C   UNL     1       3.569   9.030  -0.738  0.00  0.00    +0.000 C 
BRANCH  16  17
ATOM     17  C   UNL     1       3.673   8.280  -2.045  0.00  0.00    +0.000 C 
BRANCH  17  18
ATOM     18  C   UNL     1       4.766   7.247  -2.044  0.00  0.00    +0.000 C 
BRANCH  18  20
ATOM     19  C   UNL     1       3.913   5.012  -1.277  0.00  0.00    +0.000 C 
ATOM     20  C   UNL     1       4.293   5.878  -2.446  0.00  0.00    +0.000 C 
ENDBRANCH  18  20
ENDBRANCH  17  18
ENDBRANCH  16  17
ENDBRANCH  15  16
ENDBRANCH  14  15
ENDBRANCH  13  14
ENDBRANCH  12  13
ENDBRANCH  11  12
ENDBRANCH  10  11
ENDBRANCH   9  10
ENDBRANCH   8   9
ENDBRANCH   7   8
ENDBRANCH   6   7
ENDBRANCH   5   6
ENDBRANCH   4   5
ENDBRANCH   3   4
ENDBRANCH   2   3
ENDBRANCH   1   2
BRANCH   1  21
ATOM     21  C   UNL     1       0.748   4.881  -5.625  0.00  0.00    +0.174 C 
BRANCH  21  22
ATOM     22  O   UNL     1       1.621   3.858  -6.009  0.00  0.00    -0.348 OA
BRANCH  22  23
ATOM     23  C   UNL     1       2.125   4.084  -7.297  0.00  0.00    +0.174 C 
BRANCH  23  24
ATOM     24  C   UNL     1       3.252   5.104  -7.219  0.00  0.00    +0.174 C 
BRANCH  24  25
ATOM     25  O   UNL     1       4.147   4.808  -8.234  0.00  0.00    -0.348 OA
BRANCH  25  26
ATOM     26  C   UNL     1       5.196   5.724  -8.162  0.00  0.00    +0.174 C 
BRANCH  26  27
ATOM     27  C   UNL     1       6.232   5.379  -9.224  0.00  0.00    +0.174 C 
BRANCH  27  28
ATOM     28  O   UNL     1       6.081   6.275 -10.288  0.00  0.00    -0.348 OA
BRANCH  28  29
ATOM     29  C   UNL     1       7.323   6.604 -10.848  0.00  0.00    +0.174 C 
BRANCH  29  30
ATOM     30  C   UNL     1       8.127   5.353 -11.099  0.00  0.00    +0.174 C 
BRANCH  30  31
ATOM     31  O   UNL     1       7.749   4.796 -12.316  0.00  0.00    -0.348 OA
BRANCH  31  32
ATOM     32  C   UNL     1       7.765   5.799 -13.277  0.00  0.00    +0.174 C 
BRANCH  32  33
ATOM     33  C   UNL     1       6.623   5.552 -14.253  0.00  0.00    +0.174 C 
BRANCH  33  34
ATOM     34  O   UNL     1       5.571   4.999 -13.546  0.00  0.00    -0.348 OA
BRANCH  34  35
ATOM     35  C   UNL     1       4.553   5.915 -13.355  0.00  0.00    +0.174 C 
BRANCH  35  36
ATOM     36  C   UNL     1       3.205   5.304 -13.615  0.00  0.00    +0.174 C 
BRANCH  36  37
ATOM     37  O   UNL     1       2.258   6.049 -12.904  0.00  0.00    -0.348 OA
BRANCH  37  38
ATOM     38  C   UNL     1       2.742   6.129 -11.589  0.00  0.00    +0.178 C 
BRANCH  38  39
ATOM     39  C   UNL     1       1.626   5.804 -10.604  0.00  0.00    +0.214 C 
ATOM     40  O   UNL     1       0.416   6.379 -10.980  0.00  0.00    -0.218 OA
ENDBRANCH  38  39
ENDBRANCH  37  38
ENDBRANCH  36  37
ENDBRANCH  35  36
ENDBRANCH  34  35
ENDBRANCH  33  34
ENDBRANCH  32  33
ENDBRANCH  31  32
ENDBRANCH  30  31
ENDBRANCH  29  30
ENDBRANCH  28  29
ENDBRANCH  27  28
ENDBRANCH  26  27
ENDBRANCH  25  26
ENDBRANCH  24  25
ENDBRANCH  23  24
ENDBRANCH  22  23
ENDBRANCH  21  22
ENDBRANCH   1  21
TORSDOF 37
ENDMDL
MODEL 4
REMARK VINA RESULT:      -5.1      1.997      8.402
REMARK  Name = 
REMARK  37 active torsions:
REMARK  status: ('A' for Active; 'I' for Inactive)
REMARK    1  A    between atoms: C_2  and  C_3
REMARK    2  A    between atoms: C_3  and  C_4
REMARK    3  A    between atoms: C_4  and  C_5
REMARK    4  A    between atoms: C_5  and  C_6
REMARK    5  A    between atoms: C_6  and  C_7
REMARK    6  A    between atoms: C_7  and  C_8
REMARK    7  A    between atoms: C_8  and  C_9
REMARK    8  A    between atoms: C_9  and  C_10
REMARK    9  A    between atoms: C_10  and  C_11
REMARK   10  A    between atoms: C_11  and  C_12
REMARK   11  A    between atoms: C_12  and  O_13
REMARK   12  A    between atoms: O_13  and  C_14
REMARK   13  A    between atoms: C_14  and  C_15
REMARK   14  A    between atoms: C_15  and  O_16
REMARK   15  A    between atoms: O_16  and  C_17
REMARK   16  A    between atoms: C_17  and  C_18
REMARK   17  A    between atoms: C_18  and  O_19
REMARK   18  A    between atoms: O_19  and  C_20
REMARK   19  A    between atoms: C_20  and  C_21
REMARK   20  A    between atoms: C_21  and  O_22
REMARK   21  A    between atoms: O_22  and  C_23
REMARK   22  A    between atoms: C_23  and  C_24
REMARK   23  A    between atoms: C_24  and  O_25
REMARK   24  A    between atoms: O_25  and  C_26
REMARK   25  A    between atoms: C_26  and  C_27
REMARK   26  A    between atoms: C_27  and  O_28
REMARK   27  A    between atoms: O_28  and  C_29
REMARK   28  A    between atoms: C_29  and  C_30
REMARK   29  A    between atoms: C_30  and  O_31
REMARK   30  A    between atoms: O_31  and  C_32
REMARK   31  A    between atoms: C_32  and  C_33
REMARK   32  A    between atoms: C_33  and  O_34
REMARK   33  A    between atoms: O_34  and  C_35
REMARK   34  A    between atoms: C_35  and  C_36
REMARK   35  A    between atoms: C_36  and  O_37
REMARK   36  A    between atoms: O_37  and  C_38
REMARK   37  A    between atoms: C_38  and  C_39
REMARK                            x       y       z     vdW  Elec       q    Type
REMARK                         _______ _______ _______ _____ _____    ______ ____
ROOT
ATOM      1  C   UNL     1       7.190   5.372 -13.065  0.00  0.00    +0.174 C 
ENDROOT
BRANCH   1   2
ATOM      2  O   UNL     1       7.234   6.331 -14.088  0.00  0.00    -0.348 OA
BRANCH   2   3
ATOM      3  C   UNL     1       5.925   6.781 -14.252  0.00  0.00    +0.174 C 
BRANCH   3   4
ATOM      4  C   UNL     1       4.997   5.687 -13.739  0.00  0.00    +0.174 C 
BRANCH   4   5
ATOM      5  O   UNL     1       3.718   6.026 -14.209  0.00  0.00    -0.348 OA
BRANCH   5   6
ATOM      6  C   UNL     1       2.818   5.339 -13.377  0.00  0.00    +0.174 C 
BRANCH   6   7
ATOM      7  C   UNL     1       2.009   6.418 -12.667  0.00  0.00    +0.174 C 
BRANCH   7   8
ATOM      8  O   UNL     1       0.698   5.929 -12.588  0.00  0.00    -0.351 OA
BRANCH   8   9
ATOM      9  C   UNL     1       0.672   5.091 -11.462  0.00  0.00    +0.142 C 
BRANCH   9  10
ATOM     10  C   UNL     1       0.308   5.937 -10.258  0.00  0.00    +0.032 C 
BRANCH  10  11
ATOM     11  C   UNL     1      -0.008   4.987  -9.115  0.00  0.00    +0.003 C 
BRANCH  11  12
ATOM     12  C   UNL     1      -0.140   5.829  -7.866  0.00  0.00    +0.000 C 
BRANCH  12  13
ATOM     13  C   UNL     1      -1.021   5.042  -6.904  0.00  0.00    +0.000 C 
BRANCH  13  14
ATOM     14  C   UNL     1      -2.194   5.931  -6.529  0.00  0.00    +0.000 C 
BRANCH  14  15
ATOM     15  C   UNL     1      -1.822   6.631  -5.234  0.00  0.00    +0.000 C 
BRANCH  15  16
ATOM     16  C   UNL     1      -2.982   6.478  -4.262  0.00  0.00    +0.000 C 
BRANCH  16  17
ATOM     17  C   UNL     1      -2.685   5.263  -3.415  0.00  0.00    +0.000 C 
BRANCH  17  18
ATOM     18  C   UNL     1      -2.414   5.604  -1.975  0.00  0.00    +0.000 C 
BRANCH  18  20
ATOM     19  C   UNL     1      -1.752   7.542  -0.519  0.00  0.00    +0.000 C 
ATOM     20  C   UNL     1      -2.603   7.063  -1.662  0.00  0.00    +0.000 C 
ENDBRANCH  18  20
ENDBRANCH  17  18
ENDBRANCH  16  17
ENDBRANCH  15  16
ENDBRANCH  14  15
ENDBRANCH  13  14
ENDBRANCH  12  13
ENDBRANCH  11  12
ENDBRANCH  10  11
ENDBRANCH   9  10
ENDBRANCH   8   9
ENDBRANCH   7   8
ENDBRANCH   6   7
ENDBRANCH   5   6
ENDBRANCH   4   5
ENDBRANCH   3   4
ENDBRANCH   2   3
ENDBRANCH   1   2
BRANCH   1  21
ATOM     21  C   UNL     1       8.470   5.494 -12.257  0.00  0.00    +0.174 C 
BRANCH  21  22
ATOM     22  O   UNL     1       8.115   5.395 -10.908  0.00  0.00    -0.348 OA
BRANCH  22  23
ATOM     23  C   UNL     1       7.196   6.391 -10.554  0.00  0.00    +0.174 C 
BRANCH  23  24
ATOM     24  C   UNL     1       6.232   5.834  -9.516  0.00  0.00    +0.174 C 
BRANCH  24  25
ATOM     25  O   UNL     1       5.231   5.164 -10.199  0.00  0.00    -0.348 OA
BRANCH  25  26
ATOM     26  C   UNL     1       4.006   5.683  -9.780  0.00  0.00    +0.174 C 
BRANCH  26  27
ATOM     27  C   UNL     1       3.952   5.663  -8.257  0.00  0.00    +0.174 C 
BRANCH  27  28
ATOM     28  O   UNL     1       3.277   6.811  -7.830  0.00  0.00    -0.348 OA
BRANCH  28  29
ATOM     29  C   UNL     1       3.274   6.903  -6.432  0.00  0.00    +0.174 C 
BRANCH  29  30
ATOM     30  C   UNL     1       3.918   5.678  -5.830  0.00  0.00    +0.174 C 
BRANCH  30  31
ATOM     31  O   UNL     1       3.059   5.119  -4.889  0.00  0.00    -0.348 OA
BRANCH  31  32
ATOM     32  C   UNL     1       2.119   6.079  -4.535  0.00  0.00    +0.174 C 
BRANCH  32  33
ATOM     33  C   UNL     1       0.999   5.396  -3.763  0.00  0.00    +0.174 C 
BRANCH  33  34
ATOM     34  O   UNL     1       0.828   6.077  -2.571  0.00  0.00    -0.348 OA
BRANCH  34  35
ATOM     35  C   UNL     1       2.010   6.653  -2.144  0.00  0.00    +0.174 C 
BRANCH  35  36
ATOM     36  C   UNL     1       2.010   6.876  -0.657  0.00  0.00    +0.174 C 
BRANCH  36  37
ATOM     37  O   UNL     1       2.804   5.880  -0.079  0.00  0.00    -0.348 OA
BRANCH  37  38
ATOM     38  C   UNL     1       3.957   5.800  -0.875  0.00  0.00    +0.178 C 
BRANCH  38  39
ATOM     39  C   UNL     1       4.203   4.354  -1.289  0.00  0.00    +0.214 C 
ATOM     40  O   UNL     1       3.558   3.455  -0.446  0.00  0.00    -0.218 OA
ENDBRANCH  38  39
ENDBRANCH  37  38
ENDBRANCH  36  37
ENDBRANCH  35  36
ENDBRANCH  34  35
ENDBRANCH  33  34
ENDBRANCH  32  33
ENDBRANCH  31  32
ENDBRANCH  30  31
ENDBRANCH  29  30
ENDBRANCH  28  29
ENDBRANCH  27  28
ENDBRANCH  26  27
ENDBRANCH  25  26
ENDBRANCH  24  25
ENDBRANCH  23  24
ENDBRANCH  22  23
ENDBRANCH  21  22
ENDBRANCH   1  21
TORSDOF 37
ENDMDL
MODEL 5
REMARK VINA RESULT:      -5.1      1.263      2.958
REMARK  Name = 
REMARK  37 active torsions:
REMARK  status: ('A' for Active; 'I' for Inactive)
REMARK    1  A    between atoms: C_2  and  C_3
REMARK    2  A    between atoms: C_3  and  C_4
REMARK    3  A    between atoms: C_4  and  C_5
REMARK    4  A    between atoms: C_5  and  C_6
REMARK    5  A    between atoms: C_6  and  C_7
REMARK    6  A    between atoms: C_7  and  C_8
REMARK    7  A    between atoms: C_8  and  C_9
REMARK    8  A    between atoms: C_9  and  C_10
REMARK    9  A    between atoms: C_10  and  C_11
REMARK   10  A    between atoms: C_11  and  C_12
REMARK   11  A    between atoms: C_12  and  O_13
REMARK   12  A    between atoms: O_13  and  C_14
REMARK   13  A    between atoms: C_14  and  C_15
REMARK   14  A    between atoms: C_15  and  O_16
REMARK   15  A    between atoms: O_16  and  C_17
REMARK   16  A    between atoms: C_17  and  C_18
REMARK   17  A    between atoms: C_18  and  O_19
REMARK   18  A    between atoms: O_19  and  C_20
REMARK   19  A    between atoms: C_20  and  C_21
REMARK   20  A    between atoms: C_21  and  O_22
REMARK   21  A    between atoms: O_22  and  C_23
REMARK   22  A    between atoms: C_23  and  C_24
REMARK   23  A    between atoms: C_24  and  O_25
REMARK   24  A    between atoms: O_25  and  C_26
REMARK   25  A    between atoms: C_26  and  C_27
REMARK   26  A    between atoms: C_27  and  O_28
REMARK   27  A    between atoms: O_28  and  C_29
REMARK   28  A    between atoms: C_29  and  C_30
REMARK   29  A    between atoms: C_30  and  O_31
REMARK   30  A    between atoms: O_31  and  C_32
REMARK   31  A    between atoms: C_32  and  C_33
REMARK   32  A    between atoms: C_33  and  O_34
REMARK   33  A    between atoms: O_34  and  C_35
REMARK   34  A    between atoms: C_35  and  C_36
REMARK   35  A    between atoms: C_36  and  O_37
REMARK   36  A    between atoms: O_37  and  C_38
REMARK   37  A    between atoms: C_38  and  C_39
REMARK                            x       y       z     vdW  Elec       q    Type
REMARK                         _______ _______ _______ _____ _____    ______ ____
ROOT
ATOM      1  C   UNL     1      -0.288   5.006  -6.017  0.00  0.00    +0.174 C 
ENDROOT
BRANCH   1   2
ATOM      2  O   UNL     1       0.704   5.014  -7.009  0.00  0.00    -0.348 OA
BRANCH   2   3
ATOM      3  C   UNL     1       0.272   5.918  -7.978  0.00  0.00    +0.174 C 
BRANCH   3   4
ATOM      4  C   UNL     1       0.925   5.522  -9.297  0.00  0.00    +0.174 C 
BRANCH   4   5
ATOM      5  O   UNL     1      -0.082   4.885 -10.040  0.00  0.00    -0.348 OA
BRANCH   5   6
ATOM      6  C   UNL     1       0.453   4.714 -11.327  0.00  0.00    +0.174 C 
BRANCH   6   7
ATOM      7  C   UNL     1       1.016   6.074 -11.722  0.00  0.00    +0.174 C 
BRANCH   7   8
ATOM      8  O   UNL     1       2.342   5.845 -12.115  0.00  0.00    -0.351 OA
BRANCH   8   9
ATOM      9  C   UNL     1       2.297   5.636 -13.502  0.00  0.00    +0.142 C 
BRANCH   9  10
ATOM     10  C   UNL     1       3.615   5.019 -13.926  0.00  0.00    +0.032 C 
BRANCH  10  11
ATOM     11  C   UNL     1       4.717   5.984 -13.524  0.00  0.00    +0.003 C 
BRANCH  11  12
ATOM     12  C   UNL     1       5.468   6.345 -14.785  0.00  0.00    +0.000 C 
BRANCH  12  13
ATOM     13  C   UNL     1       6.929   5.992 -14.535  0.00  0.00    +0.000 C 
BRANCH  13  14
ATOM     14  C   UNL     1       7.347   6.667 -13.240  0.00  0.00    +0.000 C 
BRANCH  14  15
ATOM     15  C   UNL     1       8.466   5.830 -12.647  0.00  0.00    +0.000 C 
BRANCH  15  16
ATOM     16  C   UNL     1       7.924   5.119 -11.415  0.00  0.00    +0.000 C 
BRANCH  16  17
ATOM     17  C   UNL     1       7.751   6.170 -10.344  0.00  0.00    +0.000 C 
BRANCH  17  18
ATOM     18  C   UNL     1       6.702   5.806  -9.330  0.00  0.00    +0.000 C 
BRANCH  18  20
ATOM     19  C   UNL     1       4.410   4.800  -9.552  0.00  0.00    +0.000 C 
ATOM     20  C   UNL     1       5.297   5.981  -9.836  0.00  0.00    +0.000 C 
ENDBRANCH  18  20
ENDBRANCH  17  18
ENDBRANCH  16  17
ENDBRANCH  15  16
ENDBRANCH  14  15
ENDBRANCH  13  14
ENDBRANCH  12  13
ENDBRANCH  11  12
ENDBRANCH  10  11
ENDBRANCH   9  10
ENDBRANCH   8   9
ENDBRANCH   7   8
ENDBRANCH   6   7
ENDBRANCH   5   6
ENDBRANCH   4   5
ENDBRANCH   3   4
ENDBRANCH   2   3
ENDBRANCH   1   2
BRANCH   1  21
ATOM     21  C   UNL     1      -1.574   5.517  -6.641  0.00  0.00    +0.174 C 
BRANCH  21  22
ATOM     22  O   UNL     1      -2.592   5.322  -5.701  0.00  0.00    -0.348 OA
BRANCH  22  23
ATOM     23  C   UNL     1      -2.181   5.721  -4.423  0.00  0.00    +0.174 C 
BRANCH  23  24
ATOM     24  C   UNL     1      -3.232   5.299  -3.406  0.00  0.00    +0.174 C 
BRANCH  24  25
ATOM     25  O   UNL     1      -2.666   5.429  -2.149  0.00  0.00    -0.348 OA
BRANCH  25  26
ATOM     26  C   UNL     1      -2.389   6.780  -1.942  0.00  0.00    +0.174 C 
BRANCH  26  27
ATOM     27  C   UNL     1      -1.997   6.989  -0.484  0.00  0.00    +0.174 C 
BRANCH  27  28
ATOM     28  O   UNL     1      -1.467   8.277  -0.356  0.00  0.00    -0.348 OA
BRANCH  28  29
ATOM     29  C   UNL     1      -0.505   8.326   0.662  0.00  0.00    +0.174 C 
BRANCH  29  30
ATOM     30  C   UNL     1       0.112   6.963   0.860  0.00  0.00    +0.174 C 
BRANCH  30  31
ATOM     31  O   UNL     1       1.475   7.103   1.096  0.00  0.00    -0.348 OA
BRANCH  31  32
ATOM     32  C   UNL     1       1.923   8.223   0.408  0.00  0.00    +0.174 C 
BRANCH  32  33
ATOM     33  C   UNL     1       3.162   7.839  -0.388  0.00  0.00    +0.174 C 
BRANCH  33  34
ATOM     34  O   UNL     1       2.756   7.064  -1.460  0.00  0.00    -0.348 OA
BRANCH  34  35
ATOM     35  C   UNL     1       3.777   6.246  -1.908  0.00  0.00    +0.174 C 
BRANCH  35  36
ATOM     36  C   UNL     1       4.295   6.693  -3.247  0.00  0.00    +0.174 C 
BRANCH  36  37
ATOM     37  O   UNL     1       4.581   5.546  -3.995  0.00  0.00    -0.348 OA
BRANCH  37  38
ATOM     38  C   UNL     1       3.679   5.556  -5.070  0.00  0.00    +0.178 C 
BRANCH  38  39
ATOM     39  C   UNL     1       3.073   6.944  -5.227  0.00  0.00    +0.214 C 
ATOM     40  O   UNL     1       3.201   7.425  -6.526  0.00  0.00    -0.218 OA
ENDBRANCH  38  39
ENDBRANCH  37  38
ENDBRANCH  36  37
ENDBRANCH  35  36
ENDBRANCH  34  35
ENDBRANCH  33  34
ENDBRANCH  32  33
ENDBRANCH  31  32
ENDBRANCH  30  31
ENDBRANCH  29  30
ENDBRANCH  28  29
ENDBRANCH  27  28
ENDBRANCH  26  27
ENDBRANCH  25  26
ENDBRANCH  24  25
ENDBRANCH  23  24
ENDBRANCH  22  23
ENDBRANCH  21  22
ENDBRANCH   1  21
TORSDOF 37
ENDMDL
MODEL 6
REMARK VINA RESULT:      -5.0      3.205      6.565
REMARK  Name = 
REMARK  37 active torsions:
REMARK  status: ('A' for Active; 'I' for Inactive)
REMARK    1  A    between atoms: C_2  and  C_3
REMARK    2  A    between atoms: C_3  and  C_4
REMARK    3  A    between atoms: C_4  and  C_5
REMARK    4  A    between atoms: C_5  and  C_6
REMARK    5  A    between atoms: C_6  and  C_7
REMARK    6  A    between atoms: C_7  and  C_8
REMARK    7  A    between atoms: C_8  and  C_9
REMARK    8  A    between atoms: C_9  and  C_10
REMARK    9  A    between atoms: C_10  and  C_11
REMARK   10  A    between atoms: C_11  and  C_12
REMARK   11  A    between atoms: C_12  and  O_13
REMARK   12  A    between atoms: O_13  and  C_14
REMARK   13  A    between atoms: C_14  and  C_15
REMARK   14  A    between atoms: C_15  and  O_16
REMARK   15  A    between atoms: O_16  and  C_17
REMARK   16  A    between atoms: C_17  and  C_18
REMARK   17  A    between atoms: C_18  and  O_19
REMARK   18  A    between atoms: O_19  and  C_20
REMARK   19  A    between atoms: C_20  and  C_21
REMARK   20  A    between atoms: C_21  and  O_22
REMARK   21  A    between atoms: O_22  and  C_23
REMARK   22  A    between atoms: C_23  and  C_24
REMARK   23  A    between atoms: C_24  and  O_25
REMARK   24  A    between atoms: O_25  and  C_26
REMARK   25  A    between atoms: C_26  and  C_27
REMARK   26  A    between atoms: C_27  and  O_28
REMARK   27  A    between atoms: O_28  and  C_29
REMARK   28  A    between atoms: C_29  and  C_30
REMARK   29  A    between atoms: C_30  and  O_31
REMARK   30  A    between atoms: O_31  and  C_32
REMARK   31  A    between atoms: C_32  and  C_33
REMARK   32  A    between atoms: C_33  and  O_34
REMARK   33  A    between atoms: O_34  and  C_35
REMARK   34  A    between atoms: C_35  and  C_36
REMARK   35  A    between atoms: C_36  and  O_37
REMARK   36  A    between atoms: O_37  and  C_38
REMARK   37  A    between atoms: C_38  and  C_39
REMARK                            x       y       z     vdW  Elec       q    Type
REMARK                         _______ _______ _______ _____ _____    ______ ____
ROOT
ATOM      1  C   UNL     1       1.440   5.525 -14.056  0.00  0.00    +0.174 C 
ENDROOT
BRANCH   1   2
ATOM      2  O   UNL     1       0.813   5.965 -15.231  0.00  0.00    -0.348 OA
BRANCH   2   3
ATOM      3  C   UNL     1       1.314   7.241 -15.483  0.00  0.00    +0.174 C 
BRANCH   3   4
ATOM      4  C   UNL     1       0.894   7.629 -16.895  0.00  0.00    +0.174 C 
BRANCH   4   5
ATOM      5  O   UNL     1       1.507   8.867 -17.145  0.00  0.00    -0.348 OA
BRANCH   5   6
ATOM      6  C   UNL     1       2.882   8.650 -16.955  0.00  0.00    +0.174 C 
BRANCH   6   7
ATOM      7  C   UNL     1       3.512  10.037 -16.890  0.00  0.00    +0.174 C 
BRANCH   7   8
ATOM      8  O   UNL     1       4.876   9.832 -16.645  0.00  0.00    -0.351 OA
BRANCH   8   9
ATOM      9  C   UNL     1       5.194   8.611 -17.261  0.00  0.00    +0.142 C 
BRANCH   9  10
ATOM     10  C   UNL     1       6.571   8.192 -16.786  0.00  0.00    +0.032 C 
BRANCH  10  11
ATOM     11  C   UNL     1       6.424   7.678 -15.364  0.00  0.00    +0.003 C 
BRANCH  11  12
ATOM     12  C   UNL     1       6.599   6.178 -15.418  0.00  0.00    +0.000 C 
BRANCH  12  13
ATOM     13  C   UNL     1       6.475   5.675 -13.985  0.00  0.00    +0.000 C 
BRANCH  13  14
ATOM     14  C   UNL     1       7.212   6.657 -13.091  0.00  0.00    +0.000 C 
BRANCH  14  15
ATOM     15  C   UNL     1       8.548   6.023 -12.746  0.00  0.00    +0.000 C 
BRANCH  15  16
ATOM     16  C   UNL     1       8.455   5.457 -11.336  0.00  0.00    +0.000 C 
BRANCH  16  17
ATOM     17  C   UNL     1       7.620   6.425 -10.531  0.00  0.00    +0.000 C 
BRANCH  17  18
ATOM     18  C   UNL     1       6.795   5.747  -9.472  0.00  0.00    +0.000 C 
BRANCH  18  20
ATOM     19  C   UNL     1       4.872   7.016 -10.474  0.00  0.00    +0.000 C 
ATOM     20  C   UNL     1       5.319   5.771  -9.760  0.00  0.00    +0.000 C 
ENDBRANCH  18  20
ENDBRANCH  17  18
ENDBRANCH  16  17
ENDBRANCH  15  16
ENDBRANCH  14  15
ENDBRANCH  13  14
ENDBRANCH  12  13
ENDBRANCH  11  12
ENDBRANCH  10  11
ENDBRANCH   9  10
ENDBRANCH   8   9
ENDBRANCH   7   8
ENDBRANCH   6   7
ENDBRANCH   5   6
ENDBRANCH   4   5
ENDBRANCH   3   4
ENDBRANCH   2   3
ENDBRANCH   1   2
BRANCH   1  21
ATOM     21  C   UNL     1       1.120   6.524 -12.958  0.00  0.00    +0.174 C 
BRANCH  21  22
ATOM     22  O   UNL     1       0.572   5.801 -11.893  0.00  0.00    -0.348 OA
BRANCH  22  23
ATOM     23  C   UNL     1       1.256   6.066 -10.699  0.00  0.00    +0.174 C 
BRANCH  23  24
ATOM     24  C   UNL     1       0.510   5.417  -9.542  0.00  0.00    +0.174 C 
BRANCH  24  25
ATOM     25  O   UNL     1       0.796   6.150  -8.403  0.00  0.00    -0.348 OA
BRANCH  25  26
ATOM     26  C   UNL     1       2.099   5.842  -8.011  0.00  0.00    +0.174 C 
BRANCH  26  27
ATOM     27  C   UNL     1       2.646   6.982  -7.162  0.00  0.00    +0.174 C 
BRANCH  27  28
ATOM     28  O   UNL     1       2.505   6.630  -5.816  0.00  0.00    -0.348 OA
BRANCH  28  29
ATOM     29  C   UNL     1       2.882   5.297  -5.602  0.00  0.00    +0.174 C 
BRANCH  29  30
ATOM     30  C   UNL     1       4.213   5.242  -4.892  0.00  0.00    +0.174 C 
BRANCH  30  31
ATOM     31  O   UNL     1       4.069   4.552  -3.693  0.00  0.00    -0.348 OA
BRANCH  31  32
ATOM     32  C   UNL     1       3.737   5.468  -2.703  0.00  0.00    +0.174 C 
BRANCH  32  33
ATOM     33  C   UNL     1       3.768   4.757  -1.357  0.00  0.00    +0.174 C 
BRANCH  33  34
ATOM     34  O   UNL     1       2.704   5.223  -0.605  0.00  0.00    -0.348 OA
BRANCH  34  35
ATOM     35  C   UNL     1       1.496   4.775  -1.108  0.00  0.00    +0.174 C 
BRANCH  35  36
ATOM     36  C   UNL     1       0.443   5.846  -1.049  0.00  0.00    +0.174 C 
BRANCH  36  37
ATOM     37  O   UNL     1       0.038   6.115  -2.361  0.00  0.00    -0.348 OA
BRANCH  37  38
ATOM     38  C   UNL     1      -1.276   6.599  -2.266  0.00  0.00    +0.178 C 
BRANCH  38  39
ATOM     39  C   UNL     1      -2.203   5.762  -3.138  0.00  0.00    +0.214 C 
ATOM     40  O   UNL     1      -2.702   4.657  -2.457  0.00  0.00    -0.218 OA
ENDBRANCH  38  39
ENDBRANCH  37  38
ENDBRANCH  36  37
ENDBRANCH  35  36
ENDBRANCH  34  35
ENDBRANCH  33  34
ENDBRANCH  32  33
ENDBRANCH  31  32
ENDBRANCH  30  31
ENDBRANCH  29  30
ENDBRANCH  28  29
ENDBRANCH  27  28
ENDBRANCH  26  27
ENDBRANCH  25  26
ENDBRANCH  24  25
ENDBRANCH  23  24
ENDBRANCH  22  23
ENDBRANCH  21  22
ENDBRANCH   1  21
TORSDOF 37
ENDMDL
MODEL 7
REMARK VINA RESULT:      -5.0      2.396     10.837
REMARK  Name = 
REMARK  37 active torsions:
REMARK  status: ('A' for Active; 'I' for Inactive)
REMARK    1  A    between atoms: C_2  and  C_3
REMARK    2  A    between atoms: C_3  and  C_4
REMARK    3  A    between atoms: C_4  and  C_5
REMARK    4  A    between atoms: C_5  and  C_6
REMARK    5  A    between atoms: C_6  and  C_7
REMARK    6  A    between atoms: C_7  and  C_8
REMARK    7  A    between atoms: C_8  and  C_9
REMARK    8  A    between atoms: C_9  and  C_10
REMARK    9  A    between atoms: C_10  and  C_11
REMARK   10  A    between atoms: C_11  and  C_12
REMARK   11  A    between atoms: C_12  and  O_13
REMARK   12  A    between atoms: O_13  and  C_14
REMARK   13  A    between atoms: C_14  and  C_15
REMARK   14  A    between atoms: C_15  and  O_16
REMARK   15  A    between atoms: O_16  and  C_17
REMARK   16  A    between atoms: C_17  and  C_18
REMARK   17  A    between atoms: C_18  and  O_19
REMARK   18  A    between atoms: O_19  and  C_20
REMARK   19  A    between atoms: C_20  and  C_21
REMARK   20  A    between atoms: C_21  and  O_22
REMARK   21  A    between atoms: O_22  and  C_23
REMARK   22  A    between atoms: C_23  and  C_24
REMARK   23  A    between atoms: C_24  and  O_25
REMARK   24  A    between atoms: O_25  and  C_26
REMARK   25  A    between atoms: C_26  and  C_27
REMARK   26  A    between atoms: C_27  and  O_28
REMARK   27  A    between atoms: O_28  and  C_29
REMARK   28  A    between atoms: C_29  and  C_30
REMARK   29  A    between atoms: C_30  and  O_31
REMARK   30  A    between atoms: O_31  and  C_32
REMARK   31  A    between atoms: C_32  and  C_33
REMARK   32  A    between atoms: C_33  and  O_34
REMARK   33  A    between atoms: O_34  and  C_35
REMARK   34  A    between atoms: C_35  and  C_36
REMARK   35  A    between atoms: C_36  and  O_37
REMARK   36  A    between atoms: O_37  and  C_38
REMARK   37  A    between atoms: C_38  and  C_39
REMARK                            x       y       z     vdW  Elec       q    Type
REMARK                         _______ _______ _______ _____ _____    ______ ____
ROOT
ATOM      1  C   UNL     1       4.758   7.623  -4.047  0.00  0.00    +0.174 C 
ENDROOT
BRANCH   1   2
ATOM      2  O   UNL     1       4.410   7.150  -2.773  0.00  0.00    -0.348 OA
BRANCH   2   3
ATOM      3  C   UNL     1       3.545   8.099  -2.232  0.00  0.00    +0.174 C 
BRANCH   3   4
ATOM      4  C   UNL     1       3.944   8.307  -0.777  0.00  0.00    +0.174 C 
BRANCH   4   5
ATOM      5  O   UNL     1       2.818   8.868  -0.153  0.00  0.00    -0.348 OA
BRANCH   5   6
ATOM      6  C   UNL     1       2.337   7.874   0.716  0.00  0.00    +0.174 C 
BRANCH   6   7
ATOM      7  C   UNL     1       0.842   7.771   0.434  0.00  0.00    +0.174 C 
BRANCH   7   8
ATOM      8  O   UNL     1       0.563   6.403   0.323  0.00  0.00    -0.351 OA
BRANCH   8   9
ATOM      9  C   UNL     1      -0.027   6.236  -0.940  0.00  0.00    +0.142 C 
BRANCH   9  10
ATOM     10  C   UNL     1      -1.509   5.993  -0.736  0.00  0.00    +0.032 C 
BRANCH  10  11
ATOM     11  C   UNL     1      -2.255   6.992  -1.604  0.00  0.00    +0.003 C 
BRANCH  11  12
ATOM     12  C   UNL     1      -2.576   6.291  -2.905  0.00  0.00    +0.000 C 
BRANCH  12  13
ATOM     13  C   UNL     1      -2.333   7.305  -4.016  0.00  0.00    +0.000 C 
BRANCH  13  14
ATOM     14  C   UNL     1      -0.905   7.121  -4.499  0.00  0.00    +0.000 C 
BRANCH  14  15
ATOM     15  C   UNL     1      -0.784   5.687  -4.984  0.00  0.00    +0.000 C 
BRANCH  15  16
ATOM     16  C   UNL     1      -1.266   5.633  -6.426  0.00  0.00    +0.000 C 
BRANCH  16  17
ATOM     17  C   UNL     1      -0.069   5.924  -7.300  0.00  0.00    +0.000 C 
BRANCH  17  18
ATOM     18  C   UNL     1      -0.146   5.254  -8.644  0.00  0.00    +0.000 C 
BRANCH  18  20
ATOM     19  C   UNL     1      -0.010   5.629 -11.125  0.00  0.00    +0.000 C 
ATOM     20  C   UNL     1       0.420   6.089  -9.759  0.00  0.00    +0.000 C 
ENDBRANCH  18  20
ENDBRANCH  17  18
ENDBRANCH  16  17
ENDBRANCH  15  16
ENDBRANCH  14  15
ENDBRANCH  13  14
ENDBRANCH  12  13
ENDBRANCH  11  12
ENDBRANCH  10  11
ENDBRANCH   9  10
ENDBRANCH   8   9
ENDBRANCH   7   8
ENDBRANCH   6   7
ENDBRANCH   5   6
ENDBRANCH   4   5
ENDBRANCH   3   4
ENDBRANCH   2   3
ENDBRANCH   1   2
BRANCH   1  21
ATOM     21  C   UNL     1       4.841   6.427  -4.980  0.00  0.00    +0.174 C 
BRANCH  21  22
ATOM     22  O   UNL     1       3.850   6.596  -5.952  0.00  0.00    -0.348 OA
BRANCH  22  23
ATOM     23  C   UNL     1       3.684   5.429  -6.710  0.00  0.00    +0.174 C 
BRANCH  23  24
ATOM     24  C   UNL     1       3.656   5.794  -8.187  0.00  0.00    +0.174 C 
BRANCH  24  25
ATOM     25  O   UNL     1       4.224   4.739  -8.883  0.00  0.00    -0.348 OA
BRANCH  25  26
ATOM     26  C   UNL     1       4.488   5.175 -10.181  0.00  0.00    +0.174 C 
BRANCH  26  27
ATOM     27  C   UNL     1       5.630   6.183 -10.144  0.00  0.00    +0.174 C 
BRANCH  27  28
ATOM     28  O   UNL     1       6.833   5.485 -10.292  0.00  0.00    -0.348 OA
BRANCH  28  29
ATOM     29  C   UNL     1       7.764   6.234 -11.024  0.00  0.00    +0.174 C 
BRANCH  29  30
ATOM     30  C   UNL     1       8.412   5.370 -12.078  0.00  0.00    +0.174 C 
BRANCH  30  31
ATOM     31  O   UNL     1       7.429   4.829 -12.901  0.00  0.00    -0.348 OA
BRANCH  31  32
ATOM     32  C   UNL     1       7.156   5.744 -13.910  0.00  0.00    +0.174 C 
BRANCH  32  33
ATOM     33  C   UNL     1       5.646   5.835 -14.084  0.00  0.00    +0.174 C 
BRANCH  33  34
ATOM     34  O   UNL     1       5.087   4.685 -13.557  0.00  0.00    -0.348 OA
BRANCH  34  35
ATOM     35  C   UNL     1       3.750   4.574 -13.892  0.00  0.00    +0.174 C 
BRANCH  35  36
ATOM     36  C   UNL     1       3.058   5.908 -13.854  0.00  0.00    +0.174 C 
BRANCH  36  37
ATOM     37  O   UNL     1       2.828   6.305 -15.175  0.00  0.00    -0.348 OA
BRANCH  37  38
ATOM     38  C   UNL     1       1.784   7.240 -15.119  0.00  0.00    +0.178 C 
BRANCH  38  39
ATOM     39  C   UNL     1       0.447   6.519 -15.000  0.00  0.00    +0.214 C 
ATOM     40  O   UNL     1      -0.103   6.234 -16.245  0.00  0.00    -0.218 OA
ENDBRANCH  38  39
ENDBRANCH  37  38
ENDBRANCH  36  37
ENDBRANCH  35  36
ENDBRANCH  34  35
ENDBRANCH  33  34
ENDBRANCH  32  33
ENDBRANCH  31  32
ENDBRANCH  30  31
ENDBRANCH  29  30
ENDBRANCH  28  29
ENDBRANCH  27  28
ENDBRANCH  26  27
ENDBRANCH  25  26
ENDBRANCH  24  25
ENDBRANCH  23  24
ENDBRANCH  22  23
ENDBRANCH  21  22
ENDBRANCH   1  21
TORSDOF 37
ENDMDL
MODEL 8
REMARK VINA RESULT:      -5.0      1.936      7.798
REMARK  Name = 
REMARK  37 active torsions:
REMARK  status: ('A' for Active; 'I' for Inactive)
REMARK    1  A    between atoms: C_2  and  C_3
REMARK    2  A    between atoms: C_3  and  C_4
REMARK    3  A    between atoms: C_4  and  C_5
REMARK    4  A    between atoms: C_5  and  C_6
REMARK    5  A    between atoms: C_6  and  C_7
REMARK    6  A    between atoms: C_7  and  C_8
REMARK    7  A    between atoms: C_8  and  C_9
REMARK    8  A    between atoms: C_9  and  C_10
REMARK    9  A    between atoms: C_10  and  C_11
REMARK   10  A    between atoms: C_11  and  C_12
REMARK   11  A    between atoms: C_12  and  O_13
REMARK   12  A    between atoms: O_13  and  C_14
REMARK   13  A    between atoms: C_14  and  C_15
REMARK   14  A    between atoms: C_15  and  O_16
REMARK   15  A    between atoms: O_16  and  C_17
REMARK   16  A    between atoms: C_17  and  C_18
REMARK   17  A    between atoms: C_18  and  O_19
REMARK   18  A    between atoms: O_19  and  C_20
REMARK   19  A    between atoms: C_20  and  C_21
REMARK   20  A    between atoms: C_21  and  O_22
REMARK   21  A    between atoms: O_22  and  C_23
REMARK   22  A    between atoms: C_23  and  C_24
REMARK   23  A    between atoms: C_24  and  O_25
REMARK   24  A    between atoms: O_25  and  C_26
REMARK   25  A    between atoms: C_26  and  C_27
REMARK   26  A    between atoms: C_27  and  O_28
REMARK   27  A    between atoms: O_28  and  C_29
REMARK   28  A    between atoms: C_29  and  C_30
REMARK   29  A    between atoms: C_30  and  O_31
REMARK   30  A    between atoms: O_31  and  C_32
REMARK   31  A    between atoms: C_32  and  C_33
REMARK   32  A    between atoms: C_33  and  O_34
REMARK   33  A    between atoms: O_34  and  C_35
REMARK   34  A    between atoms: C_35  and  C_36
REMARK   35  A    between atoms: C_36  and  O_37
REMARK   36  A    between atoms: O_37  and  C_38
REMARK   37  A    between atoms: C_38  and  C_39
REMARK                            x       y       z     vdW  Elec       q    Type
REMARK                         _______ _______ _______ _____ _____    ______ ____
ROOT
ATOM      1  C   UNL     1       0.950   9.631   1.211  0.00  0.00    +0.174 C 
ENDROOT
BRANCH   1   2
ATOM      2  O   UNL     1       2.319   9.357   1.072  0.00  0.00    -0.348 OA
BRANCH   2   3
ATOM      3  C   UNL     1       2.748   8.898   2.316  0.00  0.00    +0.174 C 
BRANCH   3   4
ATOM      4  C   UNL     1       4.089   8.202   2.111  0.00  0.00    +0.174 C 
BRANCH   4   5
ATOM      5  O   UNL     1       3.794   7.004   1.441  0.00  0.00    -0.348 OA
BRANCH   5   6
ATOM      6  C   UNL     1       4.736   6.914   0.403  0.00  0.00    +0.174 C 
BRANCH   6   7
ATOM      7  C   UNL     1       3.921   6.814  -0.882  0.00  0.00    +0.174 C 
BRANCH   7   8
ATOM      8  O   UNL     1       3.941   8.094  -1.454  0.00  0.00    -0.351 OA
BRANCH   8   9
ATOM      9  C   UNL     1       3.850   7.893  -2.840  0.00  0.00    +0.142 C 
BRANCH   9  10
ATOM     10  C   UNL     1       5.151   7.273  -3.310  0.00  0.00    +0.032 C 
BRANCH  10  11
ATOM     11  C   UNL     1       5.002   6.975  -4.792  0.00  0.00    +0.003 C 
BRANCH  11  12
ATOM     12  C   UNL     1       3.647   6.330  -4.977  0.00  0.00    +0.000 C 
BRANCH  12  13
ATOM     13  C   UNL     1       3.801   5.313  -6.101  0.00  0.00    +0.000 C 
BRANCH  13  14
ATOM     14  C   UNL     1       4.588   5.981  -7.216  0.00  0.00    +0.000 C 
BRANCH  14  15
ATOM     15  C   UNL     1       4.965   4.891  -8.205  0.00  0.00    +0.000 C 
BRANCH  15  16
ATOM     16  C   UNL     1       5.420   5.558  -9.494  0.00  0.00    +0.000 C 
BRANCH  16  17
ATOM     17  C   UNL     1       6.859   5.970  -9.289  0.00  0.00    +0.000 C 
BRANCH  17  18
ATOM     18  C   UNL     1       7.637   6.044 -10.575  0.00  0.00    +0.000 C 
BRANCH  18  20
ATOM     19  C   UNL     1       6.580   8.204 -11.303  0.00  0.00    +0.000 C 
ATOM     20  C   UNL     1       6.914   6.784 -11.667  0.00  0.00    +0.000 C 
ENDBRANCH  18  20
ENDBRANCH  17  18
ENDBRANCH  16  17
ENDBRANCH  15  16
ENDBRANCH  14  15
ENDBRANCH  13  14
ENDBRANCH  12  13
ENDBRANCH  11  12
ENDBRANCH  10  11
ENDBRANCH   9  10
ENDBRANCH   8   9
ENDBRANCH   7   8
ENDBRANCH   6   7
ENDBRANCH   5   6
ENDBRANCH   4   5
ENDBRANCH   3   4
ENDBRANCH   2   3
ENDBRANCH   1   2
BRANCH   1  21
ATOM     21  C   UNL     1       0.182   8.394   0.780  0.00  0.00    +0.174 C 
BRANCH  21  22
ATOM     22  O   UNL     1      -1.116   8.807   0.462  0.00  0.00    -0.348 OA
BRANCH  22  23
ATOM     23  C   UNL     1      -1.767   7.856  -0.334  0.00  0.00    +0.174 C 
BRANCH  23  24
ATOM     24  C   UNL     1      -1.408   6.462   0.161  0.00  0.00    +0.174 C 
BRANCH  24  25
ATOM     25  O   UNL     1      -1.200   5.669  -0.955  0.00  0.00    -0.348 OA
BRANCH  25  26
ATOM     26  C   UNL     1      -2.343   5.739  -1.751  0.00  0.00    +0.174 C 
BRANCH  26  27
ATOM     27  C   UNL     1      -1.989   5.309  -3.169  0.00  0.00    +0.174 C 
BRANCH  27  28
ATOM     28  O   UNL     1      -2.739   6.085  -4.059  0.00  0.00    -0.348 OA
BRANCH  28  29
ATOM     29  C   UNL     1      -1.974   6.452  -5.174  0.00  0.00    +0.174 C 
BRANCH  29  30
ATOM     30  C   UNL     1      -2.438   5.694  -6.394  0.00  0.00    +0.174 C 
BRANCH  30  31
ATOM     31  O   UNL     1      -1.386   4.932  -6.893  0.00  0.00    -0.348 OA
BRANCH  31  32
ATOM     32  C   UNL     1      -0.194   5.524  -6.495  0.00  0.00    +0.174 C 
BRANCH  32  33
ATOM     33  C   UNL     1       0.660   5.769  -7.732  0.00  0.00    +0.174 C 
BRANCH  33  34
ATOM     34  O   UNL     1      -0.049   5.325  -8.833  0.00  0.00    -0.348 OA
BRANCH  34  35
ATOM     35  C   UNL     1       0.195   6.114  -9.942  0.00  0.00    +0.174 C 
BRANCH  35  36
ATOM     36  C   UNL     1      -0.192   5.413 -11.215  0.00  0.00    +0.174 C 
BRANCH  36  37
ATOM     37  O   UNL     1       0.982   5.154 -11.930  0.00  0.00    -0.348 OA
BRANCH  37  38
ATOM     38  C   UNL     1       0.982   6.055 -13.006  0.00  0.00    +0.178 C 
BRANCH  38  39
ATOM     39  C   UNL     1       1.125   5.297 -14.319  0.00  0.00    +0.214 C 
ATOM     40  O   UNL     1       0.906   3.933 -14.158  0.00  0.00    -0.218 OA
ENDBRANCH  38  39
ENDBRANCH  37  38
ENDBRANCH  36  37
ENDBRANCH  35  36
ENDBRANCH  34  35
ENDBRANCH  33  34
ENDBRANCH  32  33
ENDBRANCH  31  32
ENDBRANCH  30  31
ENDBRANCH  29  30
ENDBRANCH  28  29
ENDBRANCH  27  28
ENDBRANCH  26  27
ENDBRANCH  25  26
ENDBRANCH  24  25
ENDBRANCH  23  24
ENDBRANCH  22  23
ENDBRANCH  21  22
ENDBRANCH   1  21
TORSDOF 37
ENDMDL
MODEL 9
REMARK VINA RESULT:      -4.9      2.134     10.921
REMARK  Name = 
REMARK  37 active torsions:
REMARK  status: ('A' for Active; 'I' for Inactive)
REMARK    1  A    between atoms: C_2  and  C_3
REMARK    2  A    between atoms: C_3  and  C_4
REMARK    3  A    between atoms: C_4  and  C_5
REMARK    4  A    between atoms: C_5  and  C_6
REMARK    5  A    between atoms: C_6  and  C_7
REMARK    6  A    between atoms: C_7  and  C_8
REMARK    7  A    between atoms: C_8  and  C_9
REMARK    8  A    between atoms: C_9  and  C_10
REMARK    9  A    between atoms: C_10  and  C_11
REMARK   10  A    between atoms: C_11  and  C_12
REMARK   11  A    between atoms: C_12  and  O_13
REMARK   12  A    between atoms: O_13  and  C_14
REMARK   13  A    between atoms: C_14  and  C_15
REMARK   14  A    between atoms: C_15  and  O_16
REMARK   15  A    between atoms: O_16  and  C_17
REMARK   16  A    between atoms: C_17  and  C_18
REMARK   17  A    between atoms: C_18  and  O_19
REMARK   18  A    between atoms: O_19  and  C_20
REMARK   19  A    between atoms: C_20  and  C_21
REMARK   20  A    between atoms: C_21  and  O_22
REMARK   21  A    between atoms: O_22  and  C_23
REMARK   22  A    between atoms: C_23  and  C_24
REMARK   23  A    between atoms: C_24  and  O_25
REMARK   24  A    between atoms: O_25  and  C_26
REMARK   25  A    between atoms: C_26  and  C_27
REMARK   26  A    between atoms: C_27  and  O_28
REMARK   27  A    between atoms: O_28  and  C_29
REMARK   28  A    between atoms: C_29  and  C_30
REMARK   29  A    between atoms: C_30  and  O_31
REMARK   30  A    between atoms: O_31  and  C_32
REMARK   31  A    between atoms: C_32  and  C_33
REMARK   32  A    between atoms: C_33  and  O_34
REMARK   33  A    between atoms: O_34  and  C_35
REMARK   34  A    between atoms: C_35  and  C_36
REMARK   35  A    between atoms: C_36  and  O_37
REMARK   36  A    between atoms: O_37  and  C_38
REMARK   37  A    between atoms: C_38  and  C_39
REMARK                            x       y       z     vdW  Elec       q    Type
REMARK                         _______ _______ _______ _____ _____    ______ ____
ROOT
ATOM      1  C   UNL     1       3.163   7.013  -4.464  0.00  0.00    +0.174 C 
ENDROOT
BRANCH   1   2
ATOM      2  O   UNL     1       4.302   7.452  -3.772  0.00  0.00    -0.348 OA
BRANCH   2   3
ATOM      3  C   UNL     1       3.833   8.177  -2.678  0.00  0.00    +0.174 C 
BRANCH   3   4
ATOM      4  C   UNL     1       4.654   7.759  -1.465  0.00  0.00    +0.174 C 
BRANCH   4   5
ATOM      5  O   UNL     1       3.787   6.998  -0.665  0.00  0.00    -0.348 OA
BRANCH   5   6
ATOM      6  C   UNL     1       4.462   5.790  -0.424  0.00  0.00    +0.174 C 
BRANCH   6   7
ATOM      7  C   UNL     1       3.724   4.737  -1.243  0.00  0.00    +0.174 C 
BRANCH   7   8
ATOM      8  O   UNL     1       2.400   4.747  -0.785  0.00  0.00    -0.351 OA
BRANCH   8   9
ATOM      9  C   UNL     1       1.603   4.930  -1.926  0.00  0.00    +0.142 C 
BRANCH   9  10
ATOM     10  C   UNL     1       0.159   5.038  -1.476  0.00  0.00    +0.032 C 
BRANCH  10  11
ATOM     11  C   UNL     1      -0.010   6.396  -0.819  0.00  0.00    +0.003 C 
BRANCH  11  12
ATOM     12  C   UNL     1      -1.400   6.427  -0.224  0.00  0.00    +0.000 C 
BRANCH  12  13
ATOM     13  C   UNL     1      -2.370   6.194  -1.375  0.00  0.00    +0.000 C 
BRANCH  13  14
ATOM     14  C   UNL     1      -2.374   7.448  -2.231  0.00  0.00    +0.000 C 
BRANCH  14  15
ATOM     15  C   UNL     1      -2.566   7.002  -3.670  0.00  0.00    +0.000 C 
BRANCH  15  16
ATOM     16  C   UNL     1      -1.892   8.020  -4.577  0.00  0.00    +0.000 C 
BRANCH  16  17
ATOM     17  C   UNL     1      -0.504   7.499  -4.865  0.00  0.00    +0.000 C 
BRANCH  17  18
ATOM     18  C   UNL     1      -0.452   5.999  -4.972  0.00  0.00    +0.000 C 
BRANCH  18  20
ATOM     19  C   UNL     1      -1.368   5.142  -7.150  0.00  0.00    +0.000 C 
ATOM     20  C   UNL     1      -0.142   5.511  -6.360  0.00  0.00    +0.000 C 
ENDBRANCH  18  20
ENDBRANCH  17  18
ENDBRANCH  16  17
ENDBRANCH  15  16
ENDBRANCH  14  15
ENDBRANCH  13  14
ENDBRANCH  12  13
ENDBRANCH  11  12
ENDBRANCH  10  11
ENDBRANCH   9  10
ENDBRANCH   8   9
ENDBRANCH   7   8
ENDBRANCH   6   7
ENDBRANCH   5   6
ENDBRANCH   4   5
ENDBRANCH   3   4
ENDBRANCH   2   3
ENDBRANCH   1   2
BRANCH   1  21
ATOM     21  C   UNL     1       3.557   5.796  -5.283  0.00  0.00    +0.174 C 
BRANCH  21  22
ATOM     22  O   UNL     1       4.010   6.264  -6.521  0.00  0.00    -0.348 OA
BRANCH  22  23
ATOM     23  C   UNL     1       3.517   5.475  -7.568  0.00  0.00    +0.174 C 
BRANCH  23  24
ATOM     24  C   UNL     1       4.181   5.902  -8.870  0.00  0.00    +0.174 C 
BRANCH  24  25
ATOM     25  O   UNL     1       5.223   5.022  -9.110  0.00  0.00    -0.348 OA
BRANCH  25  26
ATOM     26  C   UNL     1       6.355   5.774  -9.424  0.00  0.00    +0.174 C 
BRANCH  26  27
ATOM     27  C   UNL     1       6.667   5.605 -10.906  0.00  0.00    +0.174 C 
BRANCH  27  28
ATOM     28  O   UNL     1       8.045   5.774 -11.083  0.00  0.00    -0.348 OA
BRANCH  28  29
ATOM     29  C   UNL     1       8.390   5.710 -12.440  0.00  0.00    +0.174 C 
BRANCH  29  30
ATOM     30  C   UNL     1       7.145   5.622 -13.288  0.00  0.00    +0.174 C 
BRANCH  30  31
ATOM     31  O   UNL     1       7.237   6.530 -14.338  0.00  0.00    -0.348 OA
BRANCH  31  32
ATOM     32  C   UNL     1       6.004   6.583 -14.975  0.00  0.00    +0.174 C 
BRANCH  32  33
ATOM     33  C   UNL     1       4.959   5.962 -14.059  0.00  0.00    +0.174 C 
BRANCH  33  34
ATOM     34  O   UNL     1       3.794   5.804 -14.788  0.00  0.00    -0.348 OA
BRANCH  34  35
ATOM     35  C   UNL     1       2.699   5.634 -13.962  0.00  0.00    +0.174 C 
BRANCH  35  36
ATOM     36  C   UNL     1       1.629   6.650 -14.246  0.00  0.00    +0.174 C 
BRANCH  36  37
ATOM     37  O   UNL     1       0.943   6.891 -13.051  0.00  0.00    -0.348 OA
BRANCH  37  38
ATOM     38  C   UNL     1       1.471   5.985 -12.118  0.00  0.00    +0.178 C 
BRANCH  38  39
ATOM     39  C   UNL     1       0.854   6.233 -10.747  0.00  0.00    +0.214 C 
ATOM     40  O   UNL     1       0.750   5.062 -10.003  0.00  0.00    -0.218 OA
ENDBRANCH  38  39
ENDBRANCH  37  38
ENDBRANCH  36  37
ENDBRANCH  35  36
ENDBRANCH  34  35
ENDBRANCH  33  34
ENDBRANCH  32  33
ENDBRANCH  31  32
ENDBRANCH  30  31
ENDBRANCH  29  30
ENDBRANCH  28  29
ENDBRANCH  27  28
ENDBRANCH  26  27
ENDBRANCH  25  26
ENDBRANCH  24  25
ENDBRANCH  23  24
ENDBRANCH  22  23
ENDBRANCH  21  22
ENDBRANCH   1  21
TORSDOF 37
ENDMDL
