MODEL 1
REMARK VINA RESULT:      -8.4      0.000      0.000
REMARK  Name = 
REMARK  8 active torsions:
REMARK  status: ('A' for Active; 'I' for Inactive)
REMARK    1  A    between atoms: O_2  and  C_3
REMARK    2  A    between atoms: C_9  and  N_10
REMARK    3  A    between atoms: N_10  and  C_11
REMARK    4  A    between atoms: C_21  and  O_22
REMARK    5  A    between atoms: O_22  and  C_23
REMARK    6  A    between atoms: C_23  and  C_24
REMARK    7  A    between atoms: C_24  and  C_25
REMARK    8  A    between atoms: C_25  and  N_26
REMARK                            x       y       z     vdW  Elec       q    Type
REMARK                         _______ _______ _______ _____ _____    ______ ____
ROOT
ATOM      1  C   UNL     1       1.174   5.295  -9.844  0.00  0.00    +0.174 A 
ATOM      2  C   UNL     1       2.431   5.562  -9.314  0.00  0.00    +0.172 A 
ATOM      3  C   UNL     1       2.534   6.057  -8.021  0.00  0.00    +0.044 A 
ATOM      4  C   UNL     1       1.374   6.225  -7.274  0.00  0.00    +0.054 A 
ATOM      5  C   UNL     1       0.157   5.728  -7.724  0.00  0.00    +0.089 A 
ATOM      6  N   UNL     1      -0.750   5.214  -6.860  0.00  0.00    -0.224 NA
ATOM      7  C   UNL     1      -0.534   5.351  -5.530  0.00  0.00    +0.200 A 
ATOM      8  N   UNL     1       0.521   6.075  -5.085  0.00  0.00    -0.207 NA
ATOM      9  C   UNL     1       1.465   6.517  -5.924  0.00  0.00    +0.155 A 
ATOM     10  C   UNL     1       0.029   5.546  -9.095  0.00  0.00    +0.059 A 
ENDROOT
BRANCH   1  12
ATOM     11  C   UNL     1       1.261   6.253 -12.100  0.00  0.00    +0.253 C 
ATOM     12  O   UNL     1       1.115   5.131 -11.231  0.00  0.00    -0.468 OA
ENDBRANCH   1  12
BRANCH   2  13
ATOM     13  O   UNL     1       3.545   4.876  -9.809  0.00  0.00    -0.472 OA
BRANCH  13  14
ATOM     14  C   UNL     1       4.626   4.710  -8.930  0.00  0.00    +0.207 C 
BRANCH  14  15
ATOM     15  C   UNL     1       5.838   5.537  -9.330  0.00  0.00    +0.065 C 
BRANCH  15  16
ATOM     16  C   UNL     1       5.480   6.511 -10.445  0.00  0.00    +0.076 C 
BRANCH  16  17
ATOM     17  N   UNL     1       6.288   6.177 -11.586  0.00  0.00    -0.268 NA
ATOM     18  C   UNL     1       5.571   5.513 -12.639  0.00  0.00    +0.105 C 
ATOM     19  C   UNL     1       6.521   5.440 -13.830  0.00  0.00    +0.159 C 
ATOM     20  O   UNL     1       7.748   4.894 -13.485  0.00  0.00    -0.351 OA
ATOM     21  C   UNL     1       8.408   5.600 -12.495  0.00  0.00    +0.159 C 
ATOM     22  C   UNL     1       7.534   5.538 -11.248  0.00  0.00    +0.105 C 
ENDBRANCH  16  17
ENDBRANCH  15  16
ENDBRANCH  14  15
ENDBRANCH  13  14
ENDBRANCH   2  13
BRANCH   9  23
ATOM     23  N   UNL     1       2.533   7.373  -5.529  0.00  0.00    -0.194 NA
BRANCH  23  24
ATOM     24  C   UNL     1       3.386   6.899  -4.498  0.00  0.00    +0.073 A 
ATOM     25  C   UNL     1       3.282   7.330  -3.192  0.00  0.00    +0.030 A 
ATOM     26  C   UNL     1       3.800   6.580  -2.163  0.00  0.00    +0.086 A 
ATOM     27 CL   UNL     1       3.533   7.151  -0.532  0.00  0.00    -0.080 Cl
ATOM     28  C   UNL     1       4.362   5.330  -2.397  0.00  0.00    +0.151 A 
ATOM     29  F   UNL     1       4.322   4.435  -1.395  0.00  0.00    -0.203 F 
ATOM     30  C   UNL     1       4.641   5.023  -3.707  0.00  0.00    +0.032 A 
ATOM     31  C   UNL     1       4.198   5.823  -4.752  0.00  0.00    +0.019 A 
ENDBRANCH  23  24
ENDBRANCH   9  23
TORSDOF 8
ENDMDL
MODEL 2
REMARK VINA RESULT:      -8.2      3.334      5.290
REMARK  Name = 
REMARK  8 active torsions:
REMARK  status: ('A' for Active; 'I' for Inactive)
REMARK    1  A    between atoms: O_2  and  C_3
REMARK    2  A    between atoms: C_9  and  N_10
REMARK    3  A    between atoms: N_10  and  C_11
REMARK    4  A    between atoms: C_21  and  O_22
REMARK    5  A    between atoms: O_22  and  C_23
REMARK    6  A    between atoms: C_23  and  C_24
REMARK    7  A    between atoms: C_24  and  C_25
REMARK    8  A    between atoms: C_25  and  N_26
REMARK                            x       y       z     vdW  Elec       q    Type
REMARK                         _______ _______ _______ _____ _____    ______ ____
ROOT
ATOM      1  C   UNL     1       3.680   5.085  -7.684  0.00  0.00    +0.174 A 
ATOM      2  C   UNL     1       2.341   4.829  -7.410  0.00  0.00    +0.172 A 
ATOM      3  C   UNL     1       1.856   5.040  -6.126  0.00  0.00    +0.044 A 
ATOM      4  C   UNL     1       2.717   5.547  -5.161  0.00  0.00    +0.054 A 
ATOM      5  C   UNL     1       3.975   6.026  -5.506  0.00  0.00    +0.089 A 
ATOM      6  N   UNL     1       4.510   7.101  -4.880  0.00  0.00    -0.224 NA
ATOM      7  C   UNL     1       3.881   7.600  -3.791  0.00  0.00    +0.200 A 
ATOM      8  N   UNL     1       2.793   6.970  -3.286  0.00  0.00    -0.207 NA
ATOM      9  C   UNL     1       2.210   5.958  -3.940  0.00  0.00    +0.155 A 
ATOM     10  C   UNL     1       4.532   5.522  -6.675  0.00  0.00    +0.059 A 
ENDROOT
BRANCH   1  12
ATOM     11  C   UNL     1       4.810   5.375  -9.841  0.00  0.00    +0.253 C 
ATOM     12  O   UNL     1       4.178   4.541  -8.872  0.00  0.00    -0.468 OA
ENDBRANCH   1  12
BRANCH   2  13
ATOM     13  O   UNL     1       1.405   4.889  -8.448  0.00  0.00    -0.472 OA
BRANCH  13  14
ATOM     14  C   UNL     1       0.930   6.163  -8.795  0.00  0.00    +0.207 C 
BRANCH  14  15
ATOM     15  C   UNL     1       1.248   6.534 -10.235  0.00  0.00    +0.065 C 
BRANCH  15  16
ATOM     16  C   UNL     1      -0.033   6.752 -11.030  0.00  0.00    +0.076 C 
BRANCH  16  17
ATOM     17  N   UNL     1       0.219   6.325 -12.379  0.00  0.00    -0.268 NA
ATOM     18  C   UNL     1       0.877   5.051 -12.479  0.00  0.00    +0.105 C 
ATOM     19  C   UNL     1       0.860   4.670 -13.956  0.00  0.00    +0.159 C 
ATOM     20  O   UNL     1       1.358   5.683 -14.761  0.00  0.00    -0.351 OA
ATOM     21  C   UNL     1       0.658   6.871 -14.652  0.00  0.00    +0.159 C 
ATOM     22  C   UNL     1       0.809   7.344 -13.210  0.00  0.00    +0.105 C 
ENDBRANCH  16  17
ENDBRANCH  15  16
ENDBRANCH  14  15
ENDBRANCH  13  14
ENDBRANCH   2  13
BRANCH   9  23
ATOM     23  N   UNL     1       1.136   5.189  -3.406  0.00  0.00    -0.194 NA
BRANCH  23  24
ATOM     24  C   UNL     1      -0.063   5.887  -3.103  0.00  0.00    +0.073 A 
ATOM     25  C   UNL     1      -0.737   6.646  -4.037  0.00  0.00    +0.030 A 
ATOM     26  C   UNL     1      -2.066   6.951  -3.865  0.00  0.00    +0.086 A 
ATOM     27 CL   UNL     1      -2.866   7.830  -5.147  0.00  0.00    -0.080 Cl
ATOM     28  C   UNL     1      -2.790   6.433  -2.797  0.00  0.00    +0.151 A 
ATOM     29  F   UNL     1      -4.114   6.272  -2.966  0.00  0.00    -0.203 F 
ATOM     30  C   UNL     1      -2.057   5.864  -1.782  0.00  0.00    +0.032 A 
ATOM     31  C   UNL     1      -0.695   5.632  -1.912  0.00  0.00    +0.019 A 
ENDBRANCH  23  24
ENDBRANCH   9  23
TORSDOF 8
ENDMDL
MODEL 3
REMARK VINA RESULT:      -8.0      4.004      7.810
REMARK  Name = 
REMARK  8 active torsions:
REMARK  status: ('A' for Active; 'I' for Inactive)
REMARK    1  A    between atoms: O_2  and  C_3
REMARK    2  A    between atoms: C_9  and  N_10
REMARK    3  A    between atoms: N_10  and  C_11
REMARK    4  A    between atoms: C_21  and  O_22
REMARK    5  A    between atoms: O_22  and  C_23
REMARK    6  A    between atoms: C_23  and  C_24
REMARK    7  A    between atoms: C_24  and  C_25
REMARK    8  A    between atoms: C_25  and  N_26
REMARK                            x       y       z     vdW  Elec       q    Type
REMARK                         _______ _______ _______ _____ _____    ______ ____
ROOT
ATOM      1  C   UNL     1       0.267   5.607  -6.696  0.00  0.00    +0.174 A 
ATOM      2  C   UNL     1       1.654   5.662  -6.626  0.00  0.00    +0.172 A 
ATOM      3  C   UNL     1       2.399   5.541  -7.792  0.00  0.00    +0.044 A 
ATOM      4  C   UNL     1       1.731   5.416  -9.003  0.00  0.00    +0.054 A 
ATOM      5  C   UNL     1       0.357   5.608  -9.085  0.00  0.00    +0.089 A 
ATOM      6  N   UNL     1      -0.204   6.200 -10.165  0.00  0.00    -0.224 NA
ATOM      7  C   UNL     1       0.570   6.446 -11.248  0.00  0.00    +0.200 A 
ATOM      8  N   UNL     1       1.855   6.015 -11.277  0.00  0.00    -0.207 NA
ATOM      9  C   UNL     1       2.441   5.502 -10.189  0.00  0.00    +0.155 A 
ATOM     10  C   UNL     1      -0.368   5.406  -7.916  0.00  0.00    +0.059 A 
ENDROOT
BRANCH   1  12
ATOM     11  C   UNL     1      -1.615   6.082  -5.196  0.00  0.00    +0.253 C 
ATOM     12  O   UNL     1      -0.400   5.394  -5.485  0.00  0.00    -0.468 OA
ENDBRANCH   1  12
BRANCH   2  13
ATOM     13  O   UNL     1       2.262   6.341  -5.565  0.00  0.00    -0.472 OA
BRANCH  13  14
ATOM     14  C   UNL     1       3.489   6.965  -5.837  0.00  0.00    +0.207 C 
BRANCH  14  15
ATOM     15  C   UNL     1       4.579   6.568  -4.854  0.00  0.00    +0.065 C 
BRANCH  15  16
ATOM     16  C   UNL     1       4.696   7.596  -3.736  0.00  0.00    +0.076 C 
BRANCH  16  17
ATOM     17  N   UNL     1       4.635   6.885  -2.488  0.00  0.00    -0.268 NA
ATOM     18  C   UNL     1       3.940   5.629  -2.561  0.00  0.00    +0.105 C 
ATOM     19  C   UNL     1       4.167   4.931  -1.224  0.00  0.00    +0.159 C 
ATOM     20  O   UNL     1       3.849   5.747  -0.150  0.00  0.00    -0.351 OA
ATOM     21  C   UNL     1       4.580   6.921  -0.111  0.00  0.00    +0.159 C 
ATOM     22  C   UNL     1       4.230   7.702  -1.373  0.00  0.00    +0.105 C 
ENDBRANCH  16  17
ENDBRANCH  15  16
ENDBRANCH  14  15
ENDBRANCH  13  14
ENDBRANCH   2  13
BRANCH   9  23
ATOM     23  N   UNL     1       3.746   4.933 -10.191  0.00  0.00    -0.194 NA
BRANCH  23  24
ATOM     24  C   UNL     1       4.737   5.604 -10.955  0.00  0.00    +0.073 A 
ATOM     25  C   UNL     1       5.658   6.461 -10.389  0.00  0.00    +0.030 A 
ATOM     26  C   UNL     1       6.832   6.756 -11.039  0.00  0.00    +0.086 A 
ATOM     27 CL   UNL     1       7.986   7.769 -10.203  0.00  0.00    -0.080 Cl
ATOM     28  C   UNL     1       7.167   6.135 -12.236  0.00  0.00    +0.151 A 
ATOM     29  F   UNL     1       8.474   6.002 -12.522  0.00  0.00    -0.203 F 
ATOM     30  C   UNL     1       6.155   5.458 -12.876  0.00  0.00    +0.032 A 
ATOM     31  C   UNL     1       4.931   5.232 -12.262  0.00  0.00    +0.019 A 
ENDBRANCH  23  24
ENDBRANCH   9  23
TORSDOF 8
ENDMDL
MODEL 4
REMARK VINA RESULT:      -8.0      2.775      4.930
REMARK  Name = 
REMARK  8 active torsions:
REMARK  status: ('A' for Active; 'I' for Inactive)
REMARK    1  A    between atoms: O_2  and  C_3
REMARK    2  A    between atoms: C_9  and  N_10
REMARK    3  A    between atoms: N_10  and  C_11
REMARK    4  A    between atoms: C_21  and  O_22
REMARK    5  A    between atoms: O_22  and  C_23
REMARK    6  A    between atoms: C_23  and  C_24
REMARK    7  A    between atoms: C_24  and  C_25
REMARK    8  A    between atoms: C_25  and  N_26
REMARK                            x       y       z     vdW  Elec       q    Type
REMARK                         _______ _______ _______ _____ _____    ______ ____
ROOT
ATOM      1  C   UNL     1       4.035   5.186  -8.613  0.00  0.00    +0.174 A 
ATOM      2  C   UNL     1       2.659   4.997  -8.566  0.00  0.00    +0.172 A 
ATOM      3  C   UNL     1       2.007   5.044  -7.341  0.00  0.00    +0.044 A 
ATOM      4  C   UNL     1       2.746   5.328  -6.200  0.00  0.00    +0.054 A 
ATOM      5  C   UNL     1       4.065   5.754  -6.291  0.00  0.00    +0.089 A 
ATOM      6  N   UNL     1       4.564   6.675  -5.433  0.00  0.00    -0.224 NA
ATOM      7  C   UNL     1       3.813   7.048  -4.370  0.00  0.00    +0.200 A 
ATOM      8  N   UNL     1       2.630   6.434  -4.124  0.00  0.00    -0.207 NA
ATOM      9  C   UNL     1       2.092   5.583  -5.007  0.00  0.00    +0.155 A 
ATOM     10  C   UNL     1       4.756   5.395  -7.443  0.00  0.00    +0.059 A 
ENDROOT
BRANCH   1  12
ATOM     11  C   UNL     1       5.365   5.750 -10.595  0.00  0.00    +0.253 C 
ATOM     12  O   UNL     1       4.667   4.796  -9.798  0.00  0.00    -0.468 OA
ENDBRANCH   1  12
BRANCH   2  13
ATOM     13  O   UNL     1       1.886   5.289  -9.695  0.00  0.00    -0.472 OA
BRANCH  13  14
ATOM     14  C   UNL     1       0.494   5.316  -9.517  0.00  0.00    +0.207 C 
BRANCH  14  15
ATOM     15  C   UNL     1      -0.247   5.769 -10.765  0.00  0.00    +0.065 C 
BRANCH  15  16
ATOM     16  C   UNL     1       0.454   6.960 -11.404  0.00  0.00    +0.076 C 
BRANCH  16  17
ATOM     17  N   UNL     1       0.907   6.548 -12.705  0.00  0.00    -0.268 NA
ATOM     18  C   UNL     1       2.305   6.220 -12.764  0.00  0.00    +0.105 C 
ATOM     19  C   UNL     1       2.547   5.604 -14.138  0.00  0.00    +0.159 C 
ATOM     20  O   UNL     1       2.061   6.404 -15.161  0.00  0.00    -0.351 OA
ATOM     21  C   UNL     1       0.702   6.650 -15.072  0.00  0.00    +0.159 C 
ATOM     22  C   UNL     1       0.473   7.413 -13.772  0.00  0.00    +0.105 C 
ENDBRANCH  16  17
ENDBRANCH  15  16
ENDBRANCH  14  15
ENDBRANCH  13  14
ENDBRANCH   2  13
BRANCH   9  23
ATOM     23  N   UNL     1       0.912   4.828  -4.754  0.00  0.00    -0.194 NA
BRANCH  23  24
ATOM     24  C   UNL     1      -0.258   5.560  -4.420  0.00  0.00    +0.073 A 
ATOM     25  C   UNL     1      -0.661   5.761  -3.116  0.00  0.00    +0.030 A 
ATOM     26  C   UNL     1      -1.515   6.790  -2.797  0.00  0.00    +0.086 A 
ATOM     27 CL   UNL     1      -1.892   7.034  -1.108  0.00  0.00    -0.080 Cl
ATOM     28  C   UNL     1      -1.925   7.707  -3.758  0.00  0.00    +0.151 A 
ATOM     29  F   UNL     1      -2.249   8.942  -3.337  0.00  0.00    -0.203 F 
ATOM     30  C   UNL     1      -1.685   7.367  -5.068  0.00  0.00    +0.032 A 
ATOM     31  C   UNL     1      -0.896   6.275  -5.402  0.00  0.00    +0.019 A 
ENDBRANCH  23  24
ENDBRANCH   9  23
TORSDOF 8
ENDMDL
MODEL 5
REMARK VINA RESULT:      -7.9      4.677      7.940
REMARK  Name = 
REMARK  8 active torsions:
REMARK  status: ('A' for Active; 'I' for Inactive)
REMARK    1  A    between atoms: O_2  and  C_3
REMARK    2  A    between atoms: C_9  and  N_10
REMARK    3  A    between atoms: N_10  and  C_11
REMARK    4  A    between atoms: C_21  and  O_22
REMARK    5  A    between atoms: O_22  and  C_23
REMARK    6  A    between atoms: C_23  and  C_24
REMARK    7  A    between atoms: C_24  and  C_25
REMARK    8  A    between atoms: C_25  and  N_26
REMARK                            x       y       z     vdW  Elec       q    Type
REMARK                         _______ _______ _______ _____ _____    ______ ____
ROOT
ATOM      1  C   UNL     1      -1.186   6.412  -0.439  0.00  0.00    +0.174 A 
ATOM      2  C   UNL     1       0.030   5.887  -0.862  0.00  0.00    +0.172 A 
ATOM      3  C   UNL     1       0.249   5.686  -2.218  0.00  0.00    +0.044 A 
ATOM      4  C   UNL     1      -0.739   6.060  -3.119  0.00  0.00    +0.054 A 
ATOM      5  C   UNL     1      -1.838   6.803  -2.705  0.00  0.00    +0.089 A 
ATOM      6  N   UNL     1      -2.380   7.754  -3.503  0.00  0.00    -0.224 NA
ATOM      7  C   UNL     1      -1.949   7.855  -4.782  0.00  0.00    +0.200 A 
ATOM      8  N   UNL     1      -1.065   6.954  -5.274  0.00  0.00    -0.207 NA
ATOM      9  C   UNL     1      -0.464   6.062  -4.476  0.00  0.00    +0.155 A 
ATOM     10  C   UNL     1      -2.183   6.707  -1.363  0.00  0.00    +0.059 A 
ENDROOT
BRANCH   1  12
ATOM     11  C   UNL     1      -1.485   7.413   1.780  0.00  0.00    +0.253 C 
ATOM     12  O   UNL     1      -1.474   6.274   0.923  0.00  0.00    -0.468 OA
ENDBRANCH   1  12
BRANCH   2  13
ATOM     13  O   UNL     1       1.166   6.061  -0.065  0.00  0.00    -0.472 OA
BRANCH  13  14
ATOM     14  C   UNL     1       1.751   7.336  -0.070  0.00  0.00    +0.207 C 
BRANCH  14  15
ATOM     15  C   UNL     1       3.249   7.293  -0.323  0.00  0.00    +0.065 C 
BRANCH  15  16
ATOM     16  C   UNL     1       3.689   5.887  -0.709  0.00  0.00    +0.076 C 
BRANCH  16  17
ATOM     17  N   UNL     1       4.361   5.977  -1.977  0.00  0.00    -0.268 NA
ATOM     18  C   UNL     1       4.509   7.319  -2.468  0.00  0.00    +0.105 C 
ATOM     19  C   UNL     1       5.421   7.236  -3.687  0.00  0.00    +0.159 C 
ATOM     20  O   UNL     1       4.983   6.292  -4.603  0.00  0.00    -0.351 OA
ATOM     21  C   UNL     1       4.900   5.012  -4.082  0.00  0.00    +0.159 C 
ATOM     22  C   UNL     1       3.864   5.054  -2.965  0.00  0.00    +0.105 C 
ENDBRANCH  16  17
ENDBRANCH  15  16
ENDBRANCH  14  15
ENDBRANCH  13  14
ENDBRANCH   2  13
BRANCH   9  23
ATOM     23  N   UNL     1       0.386   5.024  -4.954  0.00  0.00    -0.194 NA
BRANCH  23  24
ATOM     24  C   UNL     1       1.500   5.419  -5.741  0.00  0.00    +0.073 A 
ATOM     25  C   UNL     1       2.084   4.584  -6.671  0.00  0.00    +0.030 A 
ATOM     26  C   UNL     1       2.851   5.098  -7.689  0.00  0.00    +0.086 A 
ATOM     27 CL   UNL     1       3.467   3.978  -8.881  0.00  0.00    -0.080 Cl
ATOM     28  C   UNL     1       2.986   6.471  -7.865  0.00  0.00    +0.151 A 
ATOM     29  F   UNL     1       3.226   6.916  -9.110  0.00  0.00    -0.203 F 
ATOM     30  C   UNL     1       2.577   7.263  -6.818  0.00  0.00    +0.032 A 
ATOM     31  C   UNL     1       1.878   6.737  -5.740  0.00  0.00    +0.019 A 
ENDBRANCH  23  24
ENDBRANCH   9  23
TORSDOF 8
ENDMDL
MODEL 6
REMARK VINA RESULT:      -7.7      3.721      7.928
REMARK  Name = 
REMARK  8 active torsions:
REMARK  status: ('A' for Active; 'I' for Inactive)
REMARK    1  A    between atoms: O_2  and  C_3
REMARK    2  A    between atoms: C_9  and  N_10
REMARK    3  A    between atoms: N_10  and  C_11
REMARK    4  A    between atoms: C_21  and  O_22
REMARK    5  A    between atoms: O_22  and  C_23
REMARK    6  A    between atoms: C_23  and  C_24
REMARK    7  A    between atoms: C_24  and  C_25
REMARK    8  A    between atoms: C_25  and  N_26
REMARK                            x       y       z     vdW  Elec       q    Type
REMARK                         _______ _______ _______ _____ _____    ______ ____
ROOT
ATOM      1  C   UNL     1       0.995   6.495 -10.233  0.00  0.00    +0.174 A 
ATOM      2  C   UNL     1       2.357   6.296 -10.038  0.00  0.00    +0.172 A 
ATOM      3  C   UNL     1       3.146   5.898 -11.109  0.00  0.00    +0.044 A 
ATOM      4  C   UNL     1       2.557   5.756 -12.359  0.00  0.00    +0.054 A 
ATOM      5  C   UNL     1       1.257   6.192 -12.589  0.00  0.00    +0.089 A 
ATOM      6  N   UNL     1       0.905   6.744 -13.774  0.00  0.00    -0.224 NA
ATOM      7  C   UNL     1       1.789   6.708 -14.799  0.00  0.00    +0.200 A 
ATOM      8  N   UNL     1       2.961   6.042 -14.661  0.00  0.00    -0.207 NA
ATOM      9  C   UNL     1       3.354   5.563 -13.474  0.00  0.00    +0.155 A 
ATOM     10  C   UNL     1       0.423   6.272 -11.481  0.00  0.00    +0.059 A 
ENDROOT
BRANCH   1  12
ATOM     11  C   UNL     1      -0.101   5.373  -8.347  0.00  0.00    +0.253 C 
ATOM     12  O   UNL     1       0.213   6.558  -9.075  0.00  0.00    -0.468 OA
ENDBRANCH   1  12
BRANCH   2  13
ATOM     13  O   UNL     1       3.008   6.971  -9.001  0.00  0.00    -0.472 OA
BRANCH  13  14
ATOM     14  C   UNL     1       3.642   6.178  -8.032  0.00  0.00    +0.207 C 
BRANCH  14  15
ATOM     15  C   UNL     1       3.277   6.584  -6.613  0.00  0.00    +0.065 C 
BRANCH  15  16
ATOM     16  C   UNL     1       3.638   5.478  -5.629  0.00  0.00    +0.076 C 
BRANCH  16  17
ATOM     17  N   UNL     1       3.787   6.085  -4.334  0.00  0.00    -0.268 NA
ATOM     18  C   UNL     1       4.397   7.386  -4.363  0.00  0.00    +0.105 C 
ATOM     19  C   UNL     1       4.271   7.954  -2.953  0.00  0.00    +0.159 C 
ATOM     20  O   UNL     1       4.747   7.074  -1.993  0.00  0.00    -0.351 OA
ATOM     21  C   UNL     1       4.094   5.854  -1.987  0.00  0.00    +0.159 C 
ATOM     22  C   UNL     1       4.354   5.206  -3.343  0.00  0.00    +0.105 C 
ENDBRANCH  16  17
ENDBRANCH  15  16
ENDBRANCH  14  15
ENDBRANCH  13  14
ENDBRANCH   2  13
BRANCH   9  23
ATOM     23  N   UNL     1       4.518   4.763 -13.293  0.00  0.00    -0.194 NA
BRANCH  23  24
ATOM     24  C   UNL     1       5.703   5.436 -12.897  0.00  0.00    +0.073 A 
ATOM     25  C   UNL     1       6.129   5.482 -11.586  0.00  0.00    +0.030 A 
ATOM     26  C   UNL     1       7.442   5.752 -11.284  0.00  0.00    +0.086 A 
ATOM     27 CL   UNL     1       7.914   5.689  -9.602  0.00  0.00    -0.080 Cl
ATOM     28  C   UNL     1       8.395   5.896 -12.286  0.00  0.00    +0.151 A 
ATOM     29  F   UNL     1       9.668   5.589 -11.981  0.00  0.00    -0.203 F 
ATOM     30  C   UNL     1       7.916   6.055 -13.565  0.00  0.00    +0.032 A 
ATOM     31  C   UNL     1       6.573   5.872 -13.865  0.00  0.00    +0.019 A 
ENDBRANCH  23  24
ENDBRANCH   9  23
TORSDOF 8
ENDMDL
MODEL 7
REMARK VINA RESULT:      -7.7      4.491      8.561
REMARK  Name = 
REMARK  8 active torsions:
REMARK  status: ('A' for Active; 'I' for Inactive)
REMARK    1  A    between atoms: O_2  and  C_3
REMARK    2  A    between atoms: C_9  and  N_10
REMARK    3  A    between atoms: N_10  and  C_11
REMARK    4  A    between atoms: C_21  and  O_22
REMARK    5  A    between atoms: O_22  and  C_23
REMARK    6  A    between atoms: C_23  and  C_24
REMARK    7  A    between atoms: C_24  and  C_25
REMARK    8  A    between atoms: C_25  and  N_26
REMARK                            x       y       z     vdW  Elec       q    Type
REMARK                         _______ _______ _______ _____ _____    ______ ____
ROOT
ATOM      1  C   UNL     1       1.666   5.320  -5.394  0.00  0.00    +0.174 A 
ATOM      2  C   UNL     1       2.902   5.955  -5.416  0.00  0.00    +0.172 A 
ATOM      3  C   UNL     1       3.712   5.828  -6.537  0.00  0.00    +0.044 A 
ATOM      4  C   UNL     1       3.239   5.106  -7.626  0.00  0.00    +0.054 A 
ATOM      5  C   UNL     1       1.915   4.688  -7.685  0.00  0.00    +0.089 A 
ATOM      6  N   UNL     1       1.240   4.670  -8.859  0.00  0.00    -0.224 NA
ATOM      7  C   UNL     1       1.921   4.896 -10.007  0.00  0.00    +0.200 A 
ATOM      8  N   UNL     1       3.268   5.039  -9.980  0.00  0.00    -0.207 NA
ATOM      9  C   UNL     1       3.934   5.139  -8.823  0.00  0.00    +0.155 A 
ATOM     10  C   UNL     1       1.254   4.544  -6.471  0.00  0.00    +0.059 A 
ENDROOT
BRANCH   1  12
ATOM     11  C   UNL     1      -0.305   5.571  -3.955  0.00  0.00    +0.253 C 
ATOM     12  O   UNL     1       1.060   5.202  -4.138  0.00  0.00    -0.468 OA
ENDBRANCH   1  12
BRANCH   2  13
ATOM     13  O   UNL     1       3.105   7.091  -4.626  0.00  0.00    -0.472 OA
BRANCH  13  14
ATOM     14  C   UNL     1       4.437   7.478  -4.410  0.00  0.00    +0.207 C 
BRANCH  14  15
ATOM     15  C   UNL     1       4.742   7.729  -2.941  0.00  0.00    +0.065 C 
BRANCH  15  16
ATOM     16  C   UNL     1       4.437   6.489  -2.110  0.00  0.00    +0.076 C 
BRANCH  16  17
ATOM     17  N   UNL     1       3.285   6.785  -1.302  0.00  0.00    -0.268 NA
ATOM     18  C   UNL     1       3.586   7.495  -0.089  0.00  0.00    +0.105 C 
ATOM     19  C   UNL     1       2.247   7.907   0.515  0.00  0.00    +0.159 C 
ATOM     20  O   UNL     1       1.376   6.835   0.631  0.00  0.00    -0.351 OA
ATOM     21  C   UNL     1       1.093   6.218  -0.576  0.00  0.00    +0.159 C 
ATOM     22  C   UNL     1       2.408   5.659  -1.107  0.00  0.00    +0.105 C 
ENDBRANCH  16  17
ENDBRANCH  15  16
ENDBRANCH  14  15
ENDBRANCH  13  14
ENDBRANCH   2  13
BRANCH   9  23
ATOM     23  N   UNL     1       5.355   5.178  -8.732  0.00  0.00    -0.194 NA
BRANCH  23  24
ATOM     24  C   UNL     1       6.033   6.013  -9.659  0.00  0.00    +0.073 A 
ATOM     25  C   UNL     1       7.270   5.692 -10.180  0.00  0.00    +0.030 A 
ATOM     26  C   UNL     1       7.706   6.262 -11.352  0.00  0.00    +0.086 A 
ATOM     27 CL   UNL     1       9.240   5.721 -11.993  0.00  0.00    -0.080 Cl
ATOM     28  C   UNL     1       6.884   7.105 -12.091  0.00  0.00    +0.151 A 
ATOM     29  F   UNL     1       7.091   7.168 -13.418  0.00  0.00    -0.203 F 
ATOM     30  C   UNL     1       5.757   7.570 -11.454  0.00  0.00    +0.032 A 
ATOM     31  C   UNL     1       5.356   7.063 -10.226  0.00  0.00    +0.019 A 
ENDBRANCH  23  24
ENDBRANCH   9  23
TORSDOF 8
ENDMDL
MODEL 8
REMARK VINA RESULT:      -7.5      5.202      8.857
REMARK  Name = 
REMARK  8 active torsions:
REMARK  status: ('A' for Active; 'I' for Inactive)
REMARK    1  A    between atoms: O_2  and  C_3
REMARK    2  A    between atoms: C_9  and  N_10
REMARK    3  A    between atoms: N_10  and  C_11
REMARK    4  A    between atoms: C_21  and  O_22
REMARK    5  A    between atoms: O_22  and  C_23
REMARK    6  A    between atoms: C_23  and  C_24
REMARK    7  A    between atoms: C_24  and  C_25
REMARK    8  A    between atoms: C_25  and  N_26
REMARK                            x       y       z     vdW  Elec       q    Type
REMARK                         _______ _______ _______ _____ _____    ______ ____
ROOT
ATOM      1  C   UNL     1       0.226   8.202   0.330  0.00  0.00    +0.174 A 
ATOM      2  C   UNL     1       0.039   6.946  -0.236  0.00  0.00    +0.172 A 
ATOM      3  C   UNL     1       1.145   6.215  -0.650  0.00  0.00    +0.044 A 
ATOM      4  C   UNL     1       2.413   6.742  -0.441  0.00  0.00    +0.054 A 
ATOM      5  C   UNL     1       2.595   7.877   0.340  0.00  0.00    +0.089 A 
ATOM      6  N   UNL     1       3.678   8.008   1.142  0.00  0.00    -0.224 NA
ATOM      7  C   UNL     1       4.676   7.098   1.043  0.00  0.00    +0.200 A 
ATOM      8  N   UNL     1       4.626   6.137   0.089  0.00  0.00    -0.207 NA
ATOM      9  C   UNL     1       3.528   5.949  -0.653  0.00  0.00    +0.155 A 
ATOM     10  C   UNL     1       1.506   8.732   0.456  0.00  0.00    +0.059 A 
ENDROOT
BRANCH   1  12
ATOM     11  C   UNL     1      -1.508   9.304   1.670  0.00  0.00    +0.253 C 
ATOM     12  O   UNL     1      -0.909   9.015   0.408  0.00  0.00    -0.468 OA
ENDBRANCH   1  12
BRANCH   2  13
ATOM     13  O   UNL     1      -1.109   6.214   0.082  0.00  0.00    -0.472 OA
BRANCH  13  14
ATOM     14  C   UNL     1      -1.948   5.861  -0.986  0.00  0.00    +0.207 C 
BRANCH  14  15
ATOM     15  C   UNL     1      -2.113   6.985  -1.997  0.00  0.00    +0.065 C 
BRANCH  15  16
ATOM     16  C   UNL     1      -2.961   6.526  -3.177  0.00  0.00    +0.076 C 
BRANCH  16  17
ATOM     17  N   UNL     1      -2.114   6.512  -4.338  0.00  0.00    -0.268 NA
ATOM     18  C   UNL     1      -2.374   5.424  -5.241  0.00  0.00    +0.105 C 
ATOM     19  C   UNL     1      -1.548   5.696  -6.494  0.00  0.00    +0.159 C 
ATOM     20  O   UNL     1      -0.217   5.942  -6.198  0.00  0.00    -0.351 OA
ATOM     21  C   UNL     1      -0.028   7.025  -5.358  0.00  0.00    +0.159 C 
ATOM     22  C   UNL     1      -0.716   6.689  -4.039  0.00  0.00    +0.105 C 
ENDBRANCH  16  17
ENDBRANCH  15  16
ENDBRANCH  14  15
ENDBRANCH  13  14
ENDBRANCH   2  13
BRANCH   9  23
ATOM     23  N   UNL     1       3.458   5.032  -1.741  0.00  0.00    -0.194 NA
BRANCH  23  24
ATOM     24  C   UNL     1       3.851   5.519  -3.016  0.00  0.00    +0.073 A 
ATOM     25  C   UNL     1       3.507   4.883  -4.191  0.00  0.00    +0.030 A 
ATOM     26  C   UNL     1       3.520   5.563  -5.385  0.00  0.00    +0.086 A 
ATOM     27 CL   UNL     1       2.972   4.709  -6.808  0.00  0.00    -0.080 Cl
ATOM     28  C   UNL     1       3.790   6.926  -5.433  0.00  0.00    +0.151 A 
ATOM     29  F   UNL     1       3.255   7.629  -6.446  0.00  0.00    -0.203 F 
ATOM     30  C   UNL     1       4.329   7.482  -4.297  0.00  0.00    +0.032 A 
ATOM     31  C   UNL     1       4.403   6.772  -3.106  0.00  0.00    +0.019 A 
ENDBRANCH  23  24
ENDBRANCH   9  23
TORSDOF 8
ENDMDL
MODEL 9
REMARK VINA RESULT:      -7.4      4.459      7.848
REMARK  Name = 
REMARK  8 active torsions:
REMARK  status: ('A' for Active; 'I' for Inactive)
REMARK    1  A    between atoms: O_2  and  C_3
REMARK    2  A    between atoms: C_9  and  N_10
REMARK    3  A    between atoms: N_10  and  C_11
REMARK    4  A    between atoms: C_21  and  O_22
REMARK    5  A    between atoms: O_22  and  C_23
REMARK    6  A    between atoms: C_23  and  C_24
REMARK    7  A    between atoms: C_24  and  C_25
REMARK    8  A    between atoms: C_25  and  N_26
REMARK                            x       y       z     vdW  Elec       q    Type
REMARK                         _______ _______ _______ _____ _____    ______ ____
ROOT
ATOM      1  C   UNL     1       3.753   7.476   0.299  0.00  0.00    +0.174 A 
ATOM      2  C   UNL     1       3.344   6.829  -0.861  0.00  0.00    +0.172 A 
ATOM      3  C   UNL     1       2.000   6.527  -1.034  0.00  0.00    +0.044 A 
ATOM      4  C   UNL     1       1.093   6.926  -0.060  0.00  0.00    +0.054 A 
ATOM      5  C   UNL     1       1.478   7.780   0.966  0.00  0.00    +0.089 A 
ATOM      6  N   UNL     1       0.632   8.722   1.446  0.00  0.00    -0.224 NA
ATOM      7  C   UNL     1      -0.659   8.709   1.036  0.00  0.00    +0.200 A 
ATOM      8  N   UNL     1      -1.107   7.710   0.239  0.00  0.00    -0.207 NA
ATOM      9  C   UNL     1      -0.265   6.822  -0.305  0.00  0.00    +0.155 A 
ATOM     10  C   UNL     1       2.829   7.795   1.288  0.00  0.00    +0.059 A 
ENDROOT
BRANCH   1  12
ATOM     11  C   UNL     1       5.628   7.892   1.824  0.00  0.00    +0.253 C 
ATOM     12  O   UNL     1       5.125   7.446   0.566  0.00  0.00    -0.468 OA
ENDBRANCH   1  12
BRANCH   2  13
ATOM     13  O   UNL     1       4.109   6.957  -2.025  0.00  0.00    -0.472 OA
BRANCH  13  14
ATOM     14  C   UNL     1       3.405   7.024  -3.238  0.00  0.00    +0.207 C 
BRANCH  14  15
ATOM     15  C   UNL     1       3.854   5.968  -4.235  0.00  0.00    +0.065 C 
BRANCH  15  16
ATOM     16  C   UNL     1       2.654   5.216  -4.798  0.00  0.00    +0.076 C 
BRANCH  16  17
ATOM     17  N   UNL     1       2.867   5.061  -6.211  0.00  0.00    -0.268 NA
ATOM     18  C   UNL     1       2.375   3.821  -6.747  0.00  0.00    +0.105 C 
ATOM     19  C   UNL     1       2.487   3.930  -8.264  0.00  0.00    +0.159 C 
ATOM     20  O   UNL     1       3.758   4.311  -8.666  0.00  0.00    -0.351 OA
ATOM     21  C   UNL     1       4.159   5.531  -8.152  0.00  0.00    +0.159 C 
ATOM     22  C   UNL     1       4.207   5.379  -6.635  0.00  0.00    +0.105 C 
ENDBRANCH  16  17
ENDBRANCH  15  16
ENDBRANCH  14  15
ENDBRANCH  13  14
ENDBRANCH   2  13
BRANCH   9  23
ATOM     23  N   UNL     1      -0.691   5.690  -1.057  0.00  0.00    -0.194 NA
BRANCH  23  24
ATOM     24  C   UNL     1      -1.395   5.950  -2.263  0.00  0.00    +0.073 A 
ATOM     25  C   UNL     1      -0.753   6.184  -3.461  0.00  0.00    +0.030 A 
ATOM     26  C   UNL     1      -1.413   6.011  -4.655  0.00  0.00    +0.086 A 
ATOM     27 CL   UNL     1      -0.494   6.230  -6.126  0.00  0.00    -0.080 Cl
ATOM     28  C   UNL     1      -2.711   5.514  -4.693  0.00  0.00    +0.151 A 
ATOM     29  F   UNL     1      -3.086   4.846  -5.798  0.00  0.00    -0.203 F 
ATOM     30  C   UNL     1      -3.391   5.491  -3.498  0.00  0.00    +0.032 A 
ATOM     31  C   UNL     1      -2.752   5.751  -2.294  0.00  0.00    +0.019 A 
ENDBRANCH  23  24
ENDBRANCH   9  23
TORSDOF 8
ENDMDL
