MODEL 1
REMARK VINA RESULT:      -8.8      0.000      0.000
REMARK  Name = 
REMARK  6 active torsions:
REMARK  status: ('A' for Active; 'I' for Inactive)
REMARK    1  A    between atoms: O_2  and  C_3
REMARK    2  A    between atoms: C_9  and  O_10
REMARK    3  A    between atoms: O_10  and  C_11
REMARK    4  A    between atoms: C_14  and  N_15
REMARK    5  A    between atoms: N_18  and  C_19
REMARK    6  A    between atoms: C_27  and  C_28
REMARK                            x       y       z     vdW  Elec       q    Type
REMARK                         _______ _______ _______ _____ _____    ______ ____
ROOT
ATOM      1  C   UNL     1      -0.052   6.017  -1.382  0.00  0.00    +0.145 A 
ATOM      2  C   UNL     1      -0.700   5.573  -2.512  0.00  0.00    +0.091 A 
ATOM      3  C   UNL     1       0.016   5.520  -3.702  0.00  0.00    +0.012 A 
ATOM      4  C   UNL     1       1.365   5.820  -3.758  0.00  0.00    +0.053 A 
ATOM      5  C   UNL     1       2.052   6.088  -2.581  0.00  0.00    +0.087 A 
ATOM      6  N   UNL     1       3.256   6.707  -2.642  0.00  0.00    -0.244 NA
ATOM      7  C   UNL     1       3.696   7.285  -3.785  0.00  0.00    +0.102 A 
ATOM      8  C   UNL     1       3.055   6.947  -4.970  0.00  0.00    +0.058 A 
ATOM      9  C   UNL     1       1.901   6.188  -4.986  0.00  0.00    +0.148 A 
ATOM     10  C   UNL     1       1.336   5.986  -1.397  0.00  0.00    +0.056 A 
ENDROOT
BRANCH   2  11
ATOM     11  C   UNL     1      -2.158   5.739  -2.567  0.00  0.00    +0.287 C 
ATOM     12  O   UNL     1      -2.846   4.698  -2.562  0.00  0.00    -0.267 OA
ATOM     13  N   UNL     1      -2.764   7.024  -2.729  0.00  0.00    -0.084 NA
ENDBRANCH   2  11
BRANCH   1  15
ATOM     14  C   UNL     1      -0.421   7.664   0.361  0.00  0.00    +0.252 C 
ATOM     15  O   UNL     1      -0.712   6.404  -0.220  0.00  0.00    -0.471 OA
ENDBRANCH   1  15
BRANCH   9  16
ATOM     16  O   UNL     1       1.528   5.406  -6.078  0.00  0.00    -0.453 OA
BRANCH  16  17
ATOM     17  C   UNL     1       2.174   5.675  -7.290  0.00  0.00    +0.146 A 
ATOM     18  C   UNL     1       1.468   6.435  -8.215  0.00  0.00    +0.050 A 
ATOM     19  C   UNL     1       1.634   6.278  -9.585  0.00  0.00    +0.076 A 
ATOM     20 CL   UNL     1       0.528   6.926 -10.760  0.00  0.00    -0.081 Cl
ATOM     21  C   UNL     1       2.672   5.492 -10.014  0.00  0.00    +0.086 A 
ATOM     22  C   UNL     1       3.282   4.602  -9.139  0.00  0.00    +0.021 A 
ATOM     23  C   UNL     1       2.925   4.632  -7.816  0.00  0.00    +0.039 A 
BRANCH  21  24
ATOM     24  N   UNL     1       3.287   5.764 -11.280  0.00  0.00    -0.160 NA
ATOM     25  C   UNL     1       4.576   6.381 -11.374  0.00  0.00    +0.343 C 
ATOM     26  N   UNL     1       5.637   5.818 -12.152  0.00  0.00    -0.189 NA
ATOM     27  O   UNL     1       4.802   7.284 -10.512  0.00  0.00    -0.249 OA
BRANCH  26  28
ATOM     28  C   UNL     1       6.845   6.582 -12.336  0.00  0.00    +0.097 C 
ATOM     29  C   UNL     1       8.061   6.336 -11.530  0.00  0.00    +0.023 C 
ATOM     30  C   UNL     1       8.004   5.786 -12.932  0.00  0.00    +0.023 C 
ENDBRANCH  26  28
ENDBRANCH  21  24
ENDBRANCH  16  17
ENDBRANCH   9  16
TORSDOF 6
ENDMDL
MODEL 2
REMARK VINA RESULT:      -8.7      2.559     10.227
REMARK  Name = 
REMARK  6 active torsions:
REMARK  status: ('A' for Active; 'I' for Inactive)
REMARK    1  A    between atoms: O_2  and  C_3
REMARK    2  A    between atoms: C_9  and  O_10
REMARK    3  A    between atoms: O_10  and  C_11
REMARK    4  A    between atoms: C_14  and  N_15
REMARK    5  A    between atoms: N_18  and  C_19
REMARK    6  A    between atoms: C_27  and  C_28
REMARK                            x       y       z     vdW  Elec       q    Type
REMARK                         _______ _______ _______ _____ _____    ______ ____
ROOT
ATOM      1  C   UNL     1       6.116   6.173 -13.245  0.00  0.00    +0.145 A 
ATOM      2  C   UNL     1       6.523   5.813 -11.981  0.00  0.00    +0.091 A 
ATOM      3  C   UNL     1       5.549   5.501 -11.040  0.00  0.00    +0.012 A 
ATOM      4  C   UNL     1       4.205   5.466 -11.364  0.00  0.00    +0.053 A 
ATOM      5  C   UNL     1       3.818   5.651 -12.685  0.00  0.00    +0.087 A 
ATOM      6  N   UNL     1       2.528   5.959 -12.960  0.00  0.00    -0.244 NA
ATOM      7  C   UNL     1       1.664   6.327 -11.983  0.00  0.00    +0.102 A 
ATOM      8  C   UNL     1       2.024   6.062 -10.668  0.00  0.00    +0.058 A 
ATOM      9  C   UNL     1       3.282   5.601 -10.334  0.00  0.00    +0.148 A 
ATOM     10  C   UNL     1       4.829   5.812 -13.621  0.00  0.00    +0.056 A 
ENDROOT
BRANCH   2  11
ATOM     11  C   UNL     1       7.823   6.316 -11.518  0.00  0.00    +0.287 C 
ATOM     12  O   UNL     1       7.806   7.283 -10.730  0.00  0.00    -0.267 OA
ATOM     13  N   UNL     1       9.055   5.799 -12.027  0.00  0.00    -0.084 NA
ENDBRANCH   2  11
BRANCH   1  15
ATOM     14  C   UNL     1       6.380   7.409 -15.317  0.00  0.00    +0.252 C 
ATOM     15  O   UNL     1       6.948   6.793 -14.172  0.00  0.00    -0.471 OA
ENDBRANCH   1  15
BRANCH   9  16
ATOM     16  O   UNL     1       3.528   4.850  -9.185  0.00  0.00    -0.453 OA
BRANCH  16  17
ATOM     17  C   UNL     1       2.797   5.194  -8.043  0.00  0.00    +0.146 A 
ATOM     18  C   UNL     1       3.312   6.218  -7.259  0.00  0.00    +0.050 A 
ATOM     19  C   UNL     1       3.123   6.266  -5.884  0.00  0.00    +0.076 A 
ATOM     20 CL   UNL     1       4.043   7.300  -4.830  0.00  0.00    -0.081 Cl
ATOM     21  C   UNL     1       2.232   5.382  -5.333  0.00  0.00    +0.086 A 
ATOM     22  C   UNL     1       1.832   4.258  -6.045  0.00  0.00    +0.021 A 
ATOM     23  C   UNL     1       2.230   4.131  -7.351  0.00  0.00    +0.039 A 
BRANCH  21  24
ATOM     24  N   UNL     1       1.527   5.743  -4.138  0.00  0.00    -0.160 NA
ATOM     25  C   UNL     1       0.206   6.295  -4.180  0.00  0.00    +0.343 C 
ATOM     26  N   UNL     1      -0.873   5.754  -3.411  0.00  0.00    -0.189 NA
ATOM     27  O   UNL     1      -0.011   7.095  -5.141  0.00  0.00    -0.249 OA
BRANCH  26  28
ATOM     28  C   UNL     1      -2.127   6.464  -3.374  0.00  0.00    +0.097 C 
ATOM     29  C   UNL     1      -3.389   5.809  -2.968  0.00  0.00    +0.023 C 
ATOM     30  C   UNL     1      -2.680   6.685  -1.968  0.00  0.00    +0.023 C 
ENDBRANCH  26  28
ENDBRANCH  21  24
ENDBRANCH  16  17
ENDBRANCH   9  16
TORSDOF 6
ENDMDL
MODEL 3
REMARK VINA RESULT:      -8.3      2.738      9.997
REMARK  Name = 
REMARK  6 active torsions:
REMARK  status: ('A' for Active; 'I' for Inactive)
REMARK    1  A    between atoms: O_2  and  C_3
REMARK    2  A    between atoms: C_9  and  O_10
REMARK    3  A    between atoms: O_10  and  C_11
REMARK    4  A    between atoms: C_14  and  N_15
REMARK    5  A    between atoms: N_18  and  C_19
REMARK    6  A    between atoms: C_27  and  C_28
REMARK                            x       y       z     vdW  Elec       q    Type
REMARK                         _______ _______ _______ _____ _____    ______ ____
ROOT
ATOM      1  C   UNL     1       5.067   5.881 -13.917  0.00  0.00    +0.145 A 
ATOM      2  C   UNL     1       5.245   5.441 -12.626  0.00  0.00    +0.091 A 
ATOM      3  C   UNL     1       4.138   5.402 -11.786  0.00  0.00    +0.012 A 
ATOM      4  C   UNL     1       2.867   5.712 -12.237  0.00  0.00    +0.053 A 
ATOM      5  C   UNL     1       2.669   5.976 -13.585  0.00  0.00    +0.087 A 
ATOM      6  N   UNL     1       1.535   6.604 -13.978  0.00  0.00    -0.244 NA
ATOM      7  C   UNL     1       0.706   7.193 -13.082  0.00  0.00    +0.102 A 
ATOM      8  C   UNL     1       0.859   6.859 -11.743  0.00  0.00    +0.058 A 
ATOM      9  C   UNL     1       1.917   6.093 -11.297  0.00  0.00    +0.148 A 
ATOM     10  C   UNL     1       3.772   5.861 -14.419  0.00  0.00    +0.056 A 
ENDROOT
BRANCH   2  11
ATOM     11  C   UNL     1       6.580   5.596 -12.034  0.00  0.00    +0.287 C 
ATOM     12  O   UNL     1       6.755   6.577 -11.283  0.00  0.00    -0.267 OA
ATOM     13  N   UNL     1       7.664   4.731 -12.384  0.00  0.00    -0.084 NA
ENDBRANCH   2  11
BRANCH   1  15
ATOM     14  C   UNL     1       6.003   7.438 -15.526  0.00  0.00    +0.252 C 
ATOM     15  O   UNL     1       6.115   6.255 -14.753  0.00  0.00    -0.471 OA
ENDBRANCH   1  15
BRANCH   9  16
ATOM     16  O   UNL     1       1.850   5.316 -10.141  0.00  0.00    -0.453 OA
BRANCH  16  17
ATOM     17  C   UNL     1       1.838   6.005  -8.923  0.00  0.00    +0.146 A 
ATOM     18  C   UNL     1       3.044   6.081  -8.239  0.00  0.00    +0.050 A 
ATOM     19  C   UNL     1       3.108   6.136  -6.853  0.00  0.00    +0.076 A 
ATOM     20 CL   UNL     1       4.571   5.858  -5.953  0.00  0.00    -0.081 Cl
ATOM     21  C   UNL     1       1.936   6.324  -6.168  0.00  0.00    +0.086 A 
ATOM     22  C   UNL     1       0.717   6.090  -6.793  0.00  0.00    +0.021 A 
ATOM     23  C   UNL     1       0.709   5.813  -8.136  0.00  0.00    +0.039 A 
BRANCH  21  24
ATOM     24  N   UNL     1       1.957   6.996  -4.902  0.00  0.00    -0.160 NA
ATOM     25  C   UNL     1       2.074   6.276  -3.669  0.00  0.00    +0.343 C 
ATOM     26  N   UNL     1       3.062   6.601  -2.686  0.00  0.00    -0.189 NA
ATOM     27  O   UNL     1       1.449   5.172  -3.632  0.00  0.00    -0.249 OA
BRANCH  26  28
ATOM     28  C   UNL     1       3.008   5.946  -1.403  0.00  0.00    +0.097 C 
ATOM     29  C   UNL     1       3.840   4.764  -1.088  0.00  0.00    +0.023 C 
ATOM     30  C   UNL     1       4.273   6.108  -0.563  0.00  0.00    +0.023 C 
ENDBRANCH  26  28
ENDBRANCH  21  24
ENDBRANCH  16  17
ENDBRANCH   9  16
TORSDOF 6
ENDMDL
MODEL 4
REMARK VINA RESULT:      -8.3      1.934      3.083
REMARK  Name = 
REMARK  6 active torsions:
REMARK  status: ('A' for Active; 'I' for Inactive)
REMARK    1  A    between atoms: O_2  and  C_3
REMARK    2  A    between atoms: C_9  and  O_10
REMARK    3  A    between atoms: O_10  and  C_11
REMARK    4  A    between atoms: C_14  and  N_15
REMARK    5  A    between atoms: N_18  and  C_19
REMARK    6  A    between atoms: C_27  and  C_28
REMARK                            x       y       z     vdW  Elec       q    Type
REMARK                         _______ _______ _______ _____ _____    ______ ____
ROOT
ATOM      1  C   UNL     1      -1.134   6.065  -1.609  0.00  0.00    +0.145 A 
ATOM      2  C   UNL     1       0.206   6.240  -1.872  0.00  0.00    +0.091 A 
ATOM      3  C   UNL     1       0.604   6.369  -3.197  0.00  0.00    +0.012 A 
ATOM      4  C   UNL     1      -0.310   6.408  -4.235  0.00  0.00    +0.053 A 
ATOM      5  C   UNL     1      -1.668   6.416  -3.945  0.00  0.00    +0.087 A 
ATOM      6  N   UNL     1      -2.556   6.111  -4.922  0.00  0.00    -0.244 NA
ATOM      7  C   UNL     1      -2.156   5.567  -6.097  0.00  0.00    +0.102 A 
ATOM      8  C   UNL     1      -0.806   5.637  -6.415  0.00  0.00    +0.058 A 
ATOM      9  C   UNL     1       0.137   6.083  -5.510  0.00  0.00    +0.148 A 
ATOM     10  C   UNL     1      -2.027   6.436  -2.605  0.00  0.00    +0.056 A 
ENDROOT
BRANCH   2  11
ATOM     11  C   UNL     1       1.164   5.715  -0.890  0.00  0.00    +0.287 C 
ATOM     12  O   UNL     1       1.387   4.488  -0.918  0.00  0.00    -0.267 OA
ATOM     13  N   UNL     1       1.734   6.548   0.123  0.00  0.00    -0.084 NA
ENDBRANCH   2  11
BRANCH   1  15
ATOM     14  C   UNL     1      -1.989   6.576   0.604  0.00  0.00    +0.252 C 
ATOM     15  O   UNL     1      -1.625   5.625  -0.384  0.00  0.00    -0.471 OA
ENDBRANCH   1  15
BRANCH   9  16
ATOM     16  O   UNL     1       1.346   6.655  -5.902  0.00  0.00    -0.453 OA
BRANCH  16  17
ATOM     17  C   UNL     1       1.876   6.225  -7.123  0.00  0.00    +0.146 A 
ATOM     18  C   UNL     1       3.050   5.485  -7.066  0.00  0.00    +0.050 A 
ATOM     19  C   UNL     1       3.999   5.520  -8.079  0.00  0.00    +0.076 A 
ATOM     20 CL   UNL     1       5.620   4.920  -7.890  0.00  0.00    -0.081 Cl
ATOM     21  C   UNL     1       3.658   6.149  -9.249  0.00  0.00    +0.086 A 
ATOM     22  C   UNL     1       2.581   7.025  -9.283  0.00  0.00    +0.021 A 
ATOM     23  C   UNL     1       1.786   7.133  -8.170  0.00  0.00    +0.039 A 
BRANCH  21  24
ATOM     24  N   UNL     1       4.249   5.715 -10.481  0.00  0.00    -0.160 NA
ATOM     25  C   UNL     1       5.363   6.400 -11.064  0.00  0.00    +0.343 C 
ATOM     26  N   UNL     1       6.559   5.718 -11.457  0.00  0.00    -0.189 NA
ATOM     27  O   UNL     1       5.337   7.664 -10.948  0.00  0.00    -0.249 OA
BRANCH  26  28
ATOM     28  C   UNL     1       7.565   6.444 -12.190  0.00  0.00    +0.097 C 
ATOM     29  C   UNL     1       8.898   5.869 -12.474  0.00  0.00    +0.023 C 
ATOM     30  C   UNL     1       7.867   5.871 -13.573  0.00  0.00    +0.023 C 
ENDBRANCH  26  28
ENDBRANCH  21  24
ENDBRANCH  16  17
ENDBRANCH   9  16
TORSDOF 6
ENDMDL
MODEL 5
REMARK VINA RESULT:      -8.2      3.116      5.489
REMARK  Name = 
REMARK  6 active torsions:
REMARK  status: ('A' for Active; 'I' for Inactive)
REMARK    1  A    between atoms: O_2  and  C_3
REMARK    2  A    between atoms: C_9  and  O_10
REMARK    3  A    between atoms: O_10  and  C_11
REMARK    4  A    between atoms: C_14  and  N_15
REMARK    5  A    between atoms: N_18  and  C_19
REMARK    6  A    between atoms: C_27  and  C_28
REMARK                            x       y       z     vdW  Elec       q    Type
REMARK                         _______ _______ _______ _____ _____    ______ ____
ROOT
ATOM      1  C   UNL     1       2.370   6.591  -4.961  0.00  0.00    +0.145 A 
ATOM      2  C   UNL     1       3.739   6.711  -5.028  0.00  0.00    +0.091 A 
ATOM      3  C   UNL     1       4.378   6.317  -6.198  0.00  0.00    +0.012 A 
ATOM      4  C   UNL     1       3.671   5.891  -7.308  0.00  0.00    +0.053 A 
ATOM      5  C   UNL     1       2.284   5.947  -7.295  0.00  0.00    +0.087 A 
ATOM      6  N   UNL     1       1.583   5.232  -8.207  0.00  0.00    -0.244 NA
ATOM      7  C   UNL     1       2.177   4.283  -8.970  0.00  0.00    +0.102 A 
ATOM      8  C   UNL     1       3.564   4.286  -9.042  0.00  0.00    +0.058 A 
ATOM      9  C   UNL     1       4.336   5.104  -8.241  0.00  0.00    +0.148 A 
ATOM     10  C   UNL     1       1.686   6.485  -6.165  0.00  0.00    +0.056 A 
ENDROOT
BRANCH   2  11
ATOM     11  C   UNL     1       4.486   6.673  -3.764  0.00  0.00    +0.287 C 
ATOM     12  O   UNL     1       4.795   5.548  -3.323  0.00  0.00    -0.267 OA
ATOM     13  N   UNL     1       4.753   7.860  -3.012  0.00  0.00    -0.084 NA
ENDBRANCH   2  11
BRANCH   1  15
ATOM     14  C   UNL     1       1.003   5.492  -3.285  0.00  0.00    +0.252 C 
ATOM     15  O   UNL     1       1.650   6.656  -3.772  0.00  0.00    -0.471 OA
ENDBRANCH   1  15
BRANCH   9  16
ATOM     16  O   UNL     1       5.612   5.530  -8.607  0.00  0.00    -0.453 OA
BRANCH  16  17
ATOM     17  C   UNL     1       5.828   5.763  -9.970  0.00  0.00    +0.146 A 
ATOM     18  C   UNL     1       7.051   5.353 -10.484  0.00  0.00    +0.050 A 
ATOM     19  C   UNL     1       7.669   6.011 -11.541  0.00  0.00    +0.076 A 
ATOM     20 CL   UNL     1       9.339   5.774 -11.966  0.00  0.00    -0.081 Cl
ATOM     21  C   UNL     1       6.943   6.960 -12.211  0.00  0.00    +0.086 A 
ATOM     22  C   UNL     1       5.802   7.503 -11.634  0.00  0.00    +0.021 A 
ATOM     23  C   UNL     1       5.342   6.969 -10.458  0.00  0.00    +0.039 A 
BRANCH  21  24
ATOM     24  N   UNL     1       7.214   7.208 -13.597  0.00  0.00    -0.160 NA
ATOM     25  C   UNL     1       6.212   7.030 -14.604  0.00  0.00    +0.343 C 
ATOM     26  N   UNL     1       5.894   8.051 -15.555  0.00  0.00    -0.189 NA
ATOM     27  O   UNL     1       5.439   6.040 -14.422  0.00  0.00    -0.249 OA
BRANCH  26  28
ATOM     28  C   UNL     1       4.999   7.738 -16.641  0.00  0.00    +0.097 C 
ATOM     29  C   UNL     1       3.549   8.019 -16.569  0.00  0.00    +0.023 C 
ATOM     30  C   UNL     1       4.426   8.961 -17.353  0.00  0.00    +0.023 C 
ENDBRANCH  26  28
ENDBRANCH  21  24
ENDBRANCH  16  17
ENDBRANCH   9  16
TORSDOF 6
ENDMDL
MODEL 6
REMARK VINA RESULT:      -8.1      2.450     10.135
REMARK  Name = 
REMARK  6 active torsions:
REMARK  status: ('A' for Active; 'I' for Inactive)
REMARK    1  A    between atoms: O_2  and  C_3
REMARK    2  A    between atoms: C_9  and  O_10
REMARK    3  A    between atoms: O_10  and  C_11
REMARK    4  A    between atoms: C_14  and  N_15
REMARK    5  A    between atoms: N_18  and  C_19
REMARK    6  A    between atoms: C_27  and  C_28
REMARK                            x       y       z     vdW  Elec       q    Type
REMARK                         _______ _______ _______ _____ _____    ______ ____
ROOT
ATOM      1  C   UNL     1       6.216   6.126 -13.774  0.00  0.00    +0.145 A 
ATOM      2  C   UNL     1       4.900   6.308 -13.419  0.00  0.00    +0.091 A 
ATOM      3  C   UNL     1       4.588   6.387 -12.066  0.00  0.00    +0.012 A 
ATOM      4  C   UNL     1       5.567   6.368 -11.089  0.00  0.00    +0.053 A 
ATOM      5  C   UNL     1       6.904   6.369 -11.464  0.00  0.00    +0.087 A 
ATOM      6  N   UNL     1       7.846   6.009 -10.560  0.00  0.00    -0.244 NA
ATOM      7  C   UNL     1       7.512   5.421  -9.386  0.00  0.00    +0.102 A 
ATOM      8  C   UNL     1       6.186   5.497  -8.979  0.00  0.00    +0.058 A 
ATOM      9  C   UNL     1       5.196   5.995  -9.802  0.00  0.00    +0.148 A 
ATOM     10  C   UNL     1       7.177   6.441 -12.822  0.00  0.00    +0.056 A 
ENDROOT
BRANCH   2  11
ATOM     11  C   UNL     1       3.872   5.840 -14.358  0.00  0.00    +0.287 C 
ATOM     12  O   UNL     1       3.463   4.671 -14.212  0.00  0.00    -0.267 OA
ATOM     13  N   UNL     1       3.436   6.643 -15.458  0.00  0.00    -0.084 NA
ENDBRANCH   2  11
BRANCH   1  15
ATOM     14  C   UNL     1       7.076   6.708 -15.967  0.00  0.00    +0.252 C 
ATOM     15  O   UNL     1       6.621   5.731 -15.046  0.00  0.00    -0.471 OA
ENDBRANCH   1  15
BRANCH   9  16
ATOM     16  O   UNL     1       4.024   6.568  -9.310  0.00  0.00    -0.453 OA
BRANCH  16  17
ATOM     17  C   UNL     1       3.377   5.881  -8.278  0.00  0.00    +0.146 A 
ATOM     18  C   UNL     1       2.042   5.557  -8.488  0.00  0.00    +0.050 A 
ATOM     19  C   UNL     1       1.127   5.473  -7.446  0.00  0.00    +0.076 A 
ATOM     20 CL   UNL     1      -0.595   5.443  -7.689  0.00  0.00    -0.081 Cl
ATOM     21  C   UNL     1       1.614   5.515  -6.166  0.00  0.00    +0.086 A 
ATOM     22  C   UNL     1       2.895   5.994  -5.921  0.00  0.00    +0.021 A 
ATOM     23  C   UNL     1       3.704   6.284  -6.990  0.00  0.00    +0.039 A 
BRANCH  21  24
ATOM     24  N   UNL     1       0.907   4.837  -5.119  0.00  0.00    -0.160 NA
ATOM     25  C   UNL     1       0.224   5.553  -4.084  0.00  0.00    +0.343 C 
ATOM     26  N   UNL     1      -1.145   5.300  -3.755  0.00  0.00    -0.189 NA
ATOM     27  O   UNL     1       0.811   6.604  -3.683  0.00  0.00    -0.249 OA
BRANCH  26  28
ATOM     28  C   UNL     1      -1.712   5.938  -2.593  0.00  0.00    +0.097 C 
ATOM     29  C   UNL     1      -2.470   7.204  -2.685  0.00  0.00    +0.023 C 
ATOM     30  C   UNL     1      -3.238   5.915  -2.548  0.00  0.00    +0.023 C 
ENDBRANCH  26  28
ENDBRANCH  21  24
ENDBRANCH  16  17
ENDBRANCH   9  16
TORSDOF 6
ENDMDL
MODEL 7
REMARK VINA RESULT:      -8.0      2.559     10.020
REMARK  Name = 
REMARK  6 active torsions:
REMARK  status: ('A' for Active; 'I' for Inactive)
REMARK    1  A    between atoms: O_2  and  C_3
REMARK    2  A    between atoms: C_9  and  O_10
REMARK    3  A    between atoms: O_10  and  C_11
REMARK    4  A    between atoms: C_14  and  N_15
REMARK    5  A    between atoms: N_18  and  C_19
REMARK    6  A    between atoms: C_27  and  C_28
REMARK                            x       y       z     vdW  Elec       q    Type
REMARK                         _______ _______ _______ _____ _____    ______ ____
ROOT
ATOM      1  C   UNL     1       5.384   5.960 -12.160  0.00  0.00    +0.145 A 
ATOM      2  C   UNL     1       5.406   5.711 -10.807  0.00  0.00    +0.091 A 
ATOM      3  C   UNL     1       4.192   5.627 -10.134  0.00  0.00    +0.012 A 
ATOM      4  C   UNL     1       2.981   5.704 -10.799  0.00  0.00    +0.053 A 
ATOM      5  C   UNL     1       2.969   5.771 -12.186  0.00  0.00    +0.087 A 
ATOM      6  N   UNL     1       1.846   6.186 -12.819  0.00  0.00    -0.244 NA
ATOM      7  C   UNL     1       0.825   6.764 -12.143  0.00  0.00    +0.102 A 
ATOM      8  C   UNL     1       0.801   6.622 -10.761  0.00  0.00    +0.058 A 
ATOM      9  C   UNL     1       1.858   6.066 -10.066  0.00  0.00    +0.148 A 
ATOM     10  C   UNL     1       4.195   5.703 -12.831  0.00  0.00    +0.056 A 
ENDROOT
BRANCH   2  11
ATOM     11  C   UNL     1       6.604   6.117 -10.061  0.00  0.00    +0.287 C 
ATOM     12  O   UNL     1       6.936   5.404  -9.093  0.00  0.00    -0.267 OA
ATOM     13  N   UNL     1       7.298   7.333 -10.357  0.00  0.00    -0.084 NA
ENDBRANCH   2  11
BRANCH   1  15
ATOM     14  C   UNL     1       7.261   5.401 -13.593  0.00  0.00    +0.252 C 
ATOM     15  O   UNL     1       6.501   6.366 -12.884  0.00  0.00    -0.471 OA
ENDBRANCH   1  15
BRANCH   9  16
ATOM     16  O   UNL     1       1.699   5.436  -8.832  0.00  0.00    -0.453 OA
BRANCH  16  17
ATOM     17  C   UNL     1       0.762   5.998  -7.958  0.00  0.00    +0.146 A 
ATOM     18  C   UNL     1       1.261   6.573  -6.797  0.00  0.00    +0.050 A 
ATOM     19  C   UNL     1       0.540   6.594  -5.610  0.00  0.00    +0.076 A 
ATOM     20 CL   UNL     1       1.253   6.958  -4.066  0.00  0.00    -0.081 Cl
ATOM     21  C   UNL     1      -0.776   6.214  -5.659  0.00  0.00    +0.086 A 
ATOM     22  C   UNL     1      -1.255   5.490  -6.743  0.00  0.00    +0.021 A 
ATOM     23  C   UNL     1      -0.427   5.293  -7.819  0.00  0.00    +0.039 A 
BRANCH  21  24
ATOM     24  N   UNL     1      -1.707   6.774  -4.723  0.00  0.00    -0.160 NA
ATOM     25  C   UNL     1      -1.759   6.338  -3.360  0.00  0.00    +0.343 C 
ATOM     26  N   UNL     1      -1.700   7.256  -2.262  0.00  0.00    -0.189 NA
ATOM     27  O   UNL     1      -1.572   5.095  -3.186  0.00  0.00    -0.249 OA
BRANCH  26  28
ATOM     28  C   UNL     1      -1.929   6.760  -0.928  0.00  0.00    +0.097 C 
ATOM     29  C   UNL     1      -0.852   6.707   0.085  0.00  0.00    +0.023 C 
ATOM     30  C   UNL     1      -1.853   7.830   0.159  0.00  0.00    +0.023 C 
ENDBRANCH  26  28
ENDBRANCH  21  24
ENDBRANCH  16  17
ENDBRANCH   9  16
TORSDOF 6
ENDMDL
MODEL 8
REMARK VINA RESULT:      -7.8      2.518      4.118
REMARK  Name = 
REMARK  6 active torsions:
REMARK  status: ('A' for Active; 'I' for Inactive)
REMARK    1  A    between atoms: O_2  and  C_3
REMARK    2  A    between atoms: C_9  and  O_10
REMARK    3  A    between atoms: O_10  and  C_11
REMARK    4  A    between atoms: C_14  and  N_15
REMARK    5  A    between atoms: N_18  and  C_19
REMARK    6  A    between atoms: C_27  and  C_28
REMARK                            x       y       z     vdW  Elec       q    Type
REMARK                         _______ _______ _______ _____ _____    ______ ____
ROOT
ATOM      1  C   UNL     1       1.646   6.119  -3.544  0.00  0.00    +0.145 A 
ATOM      2  C   UNL     1       2.608   6.593  -4.407  0.00  0.00    +0.091 A 
ATOM      3  C   UNL     1       2.276   6.733  -5.749  0.00  0.00    +0.012 A 
ATOM      4  C   UNL     1       0.997   6.489  -6.215  0.00  0.00    +0.053 A 
ATOM      5  C   UNL     1      -0.012   6.190  -5.309  0.00  0.00    +0.087 A 
ATOM      6  N   UNL     1      -1.158   5.622  -5.757  0.00  0.00    -0.244 NA
ATOM      7  C   UNL     1      -1.255   5.119  -7.011  0.00  0.00    +0.102 A 
ATOM      8  C   UNL     1      -0.286   5.491  -7.934  0.00  0.00    +0.058 A 
ATOM      9  C   UNL     1       0.838   6.203  -7.566  0.00  0.00    +0.148 A 
ATOM     10  C   UNL     1       0.325   6.205  -3.963  0.00  0.00    +0.056 A 
ENDROOT
BRANCH   2  11
ATOM     11  C   UNL     1       4.013   6.374  -4.042  0.00  0.00    +0.287 C 
ATOM     12  O   UNL     1       4.506   5.264  -4.329  0.00  0.00    -0.267 OA
ATOM     13  N   UNL     1       4.757   7.340  -3.295  0.00  0.00    -0.084 NA
ENDBRANCH   2  11
BRANCH   1  15
ATOM     14  C   UNL     1       0.943   5.765  -1.249  0.00  0.00    +0.252 C 
ATOM     15  O   UNL     1       1.926   5.650  -2.265  0.00  0.00    -0.471 OA
ENDBRANCH   1  15
BRANCH   9  16
ATOM     16  O   UNL     1       1.534   7.023  -8.453  0.00  0.00    -0.453 OA
BRANCH  16  17
ATOM     17  C   UNL     1       2.380   6.384  -9.365  0.00  0.00    +0.146 A 
ATOM     18  C   UNL     1       3.664   6.899  -9.489  0.00  0.00    +0.050 A 
ATOM     19  C   UNL     1       4.375   6.841 -10.681  0.00  0.00    +0.076 A 
ATOM     20 CL   UNL     1       5.805   7.784 -10.985  0.00  0.00    -0.081 Cl
ATOM     21  C   UNL     1       3.859   6.074 -11.693  0.00  0.00    +0.086 A 
ATOM     22  C   UNL     1       2.525   5.688 -11.666  0.00  0.00    +0.021 A 
ATOM     23  C   UNL     1       1.783   5.964 -10.547  0.00  0.00    +0.039 A 
BRANCH  21  24
ATOM     24  N   UNL     1       4.747   5.465 -12.639  0.00  0.00    -0.160 NA
ATOM     25  C   UNL     1       4.870   5.953 -13.980  0.00  0.00    +0.343 C 
ATOM     26  N   UNL     1       6.137   6.271 -14.564  0.00  0.00    -0.189 NA
ATOM     27  O   UNL     1       3.786   6.352 -14.506  0.00  0.00    -0.249 OA
BRANCH  26  28
ATOM     28  C   UNL     1       6.194   6.592 -15.969  0.00  0.00    +0.097 C 
ATOM     29  C   UNL     1       6.257   7.989 -16.452  0.00  0.00    +0.023 C 
ATOM     30  C   UNL     1       7.528   7.181 -16.422  0.00  0.00    +0.023 C 
ENDBRANCH  26  28
ENDBRANCH  21  24
ENDBRANCH  16  17
ENDBRANCH   9  16
TORSDOF 6
ENDMDL
MODEL 9
REMARK VINA RESULT:      -7.8      2.598      9.450
REMARK  Name = 
REMARK  6 active torsions:
REMARK  status: ('A' for Active; 'I' for Inactive)
REMARK    1  A    between atoms: O_2  and  C_3
REMARK    2  A    between atoms: C_9  and  O_10
REMARK    3  A    between atoms: O_10  and  C_11
REMARK    4  A    between atoms: C_14  and  N_15
REMARK    5  A    between atoms: N_18  and  C_19
REMARK    6  A    between atoms: C_27  and  C_28
REMARK                            x       y       z     vdW  Elec       q    Type
REMARK                         _______ _______ _______ _____ _____    ______ ____
ROOT
ATOM      1  C   UNL     1       2.462   5.985 -11.758  0.00  0.00    +0.145 A 
ATOM      2  C   UNL     1       1.548   6.481 -10.857  0.00  0.00    +0.091 A 
ATOM      3  C   UNL     1       1.957   6.671  -9.542  0.00  0.00    +0.012 A 
ATOM      4  C   UNL     1       3.264   6.454  -9.144  0.00  0.00    +0.053 A 
ATOM      5  C   UNL     1       4.220   6.130 -10.098  0.00  0.00    +0.087 A 
ATOM      6  N   UNL     1       5.396   5.588  -9.699  0.00  0.00    -0.244 NA
ATOM      7  C   UNL     1       5.572   5.131  -8.436  0.00  0.00    +0.102 A 
ATOM      8  C   UNL     1       4.655   5.527  -7.471  0.00  0.00    +0.058 A 
ATOM      9  C   UNL     1       3.504   6.218  -7.796  0.00  0.00    +0.148 A 
ATOM     10  C   UNL     1       3.805   6.095 -11.420  0.00  0.00    +0.056 A 
ENDROOT
BRANCH   2  11
ATOM     11  C   UNL     1       0.126   6.238 -11.130  0.00  0.00    +0.287 C 
ATOM     12  O   UNL     1      -0.273   5.059 -11.044  0.00  0.00    -0.267 OA
ATOM     13  N   UNL     1      -0.742   7.281 -11.581  0.00  0.00    -0.084 NA
ENDBRANCH   2  11
BRANCH   1  15
ATOM     14  C   UNL     1       2.587   6.100 -14.178  0.00  0.00    +0.252 C 
ATOM     15  O   UNL     1       2.113   5.468 -13.001  0.00  0.00    -0.471 OA
ENDBRANCH   1  15
BRANCH   9  16
ATOM     16  O   UNL     1       2.854   7.063  -6.898  0.00  0.00    -0.453 OA
BRANCH  16  17
ATOM     17  C   UNL     1       2.056   6.451  -5.926  0.00  0.00    +0.146 A 
ATOM     18  C   UNL     1       0.735   6.872  -5.851  0.00  0.00    +0.050 A 
ATOM     19  C   UNL     1       0.025   6.875  -4.657  0.00  0.00    +0.076 A 
ATOM     20 CL   UNL     1      -1.476   7.727  -4.442  0.00  0.00    -0.081 Cl
ATOM     21  C   UNL     1       0.594   6.253  -3.576  0.00  0.00    +0.086 A 
ATOM     22  C   UNL     1       1.954   5.973  -3.568  0.00  0.00    +0.021 A 
ATOM     23  C   UNL     1       2.679   6.197  -4.711  0.00  0.00    +0.039 A 
BRANCH  21  24
ATOM     24  N   UNL     1      -0.248   5.671  -2.573  0.00  0.00    -0.160 NA
ATOM     25  C   UNL     1      -0.270   6.164  -1.228  0.00  0.00    +0.343 C 
ATOM     26  N   UNL     1      -1.487   6.519  -0.564  0.00  0.00    -0.189 NA
ATOM     27  O   UNL     1       0.857   6.532  -0.774  0.00  0.00    -0.249 OA
BRANCH  26  28
ATOM     28  C   UNL     1      -1.444   6.843   0.840  0.00  0.00    +0.097 C 
ATOM     29  C   UNL     1      -1.229   8.226   1.320  0.00  0.00    +0.023 C 
ATOM     30  C   UNL     1      -2.631   7.672   1.327  0.00  0.00    +0.023 C 
ENDBRANCH  26  28
ENDBRANCH  21  24
ENDBRANCH  16  17
ENDBRANCH   9  16
TORSDOF 6
ENDMDL
