MODEL 1
REMARK VINA RESULT:      -6.6      0.000      0.000
REMARK  Name = 
REMARK  5 active torsions:
REMARK  status: ('A' for Active; 'I' for Inactive)
REMARK    1  A    between atoms: N_2  and  N_3
REMARK    2  A    between atoms: N_3  and  C_4
REMARK    3  A    between atoms: C_4  and  C_5
REMARK    4  A    between atoms: C_8  and  C_9
REMARK    5  A    between atoms: N_11  and  C_12
REMARK                            x       y       z     vdW  Elec       q    Type
REMARK                         _______ _______ _______ _____ _____    ______ ____
ROOT
ATOM      1  C   UNL     1      -1.905   6.130  -4.860  0.00  0.00    -0.003 A 
ATOM      2  C   UNL     1      -0.532   6.051  -4.690  0.00  0.00    -0.003 A 
ATOM      3  C   UNL     1       0.338   5.946  -5.765  0.00  0.00    +0.004 A 
ATOM      4  C   UNL     1      -0.163   5.403  -6.933  0.00  0.00    +0.055 A 
ATOM      5  C   UNL     1      -1.539   5.274  -7.065  0.00  0.00    +0.004 A 
ATOM      6  C   UNL     1      -2.401   5.524  -6.006  0.00  0.00    -0.003 A 
ENDROOT
BRANCH   4   7
ATOM      7  C   UNL     1       0.602   5.648  -8.163  0.00  0.00    +0.265 C 
ATOM      8  N   UNL     1      -0.106   5.841  -9.370  0.00  0.00    -0.203 NA
ATOM      9  O   UNL     1       1.829   5.418  -8.212  0.00  0.00    -0.268 OA
BRANCH   8  10
ATOM     10  C   UNL     1       0.526   6.001 -10.667  0.00  0.00    +0.096 C 
ATOM     11  C   UNL     1      -0.171   7.174 -11.342  0.00  0.00    +0.023 C 
ATOM     12  C   UNL     1       0.139   4.764 -11.471  0.00  0.00    +0.023 C 
ENDBRANCH   8  10
ENDBRANCH   4   7
BRANCH   1  13
ATOM     13  C   UNL     1      -2.842   6.167  -3.694  0.00  0.00    +0.136 C 
BRANCH  13  14
ATOM     14  N   UNL     1      -2.773   4.939  -2.929  0.00  0.00    -0.126 NA
BRANCH  14  16
ATOM     15  C   UNL     1      -2.194   6.476  -1.217  0.00  0.00    +0.130 C 
ATOM     16  N   UNL     1      -2.274   5.109  -1.649  0.00  0.00    -0.129 NA
ENDBRANCH  14  16
ENDBRANCH  13  14
ENDBRANCH   1  13
TORSDOF 5
ENDMDL
MODEL 2
REMARK VINA RESULT:      -6.5      5.742      9.639
REMARK  Name = 
REMARK  5 active torsions:
REMARK  status: ('A' for Active; 'I' for Inactive)
REMARK    1  A    between atoms: N_2  and  N_3
REMARK    2  A    between atoms: N_3  and  C_4
REMARK    3  A    between atoms: C_4  and  C_5
REMARK    4  A    between atoms: C_8  and  C_9
REMARK    5  A    between atoms: N_11  and  C_12
REMARK                            x       y       z     vdW  Elec       q    Type
REMARK                         _______ _______ _______ _____ _____    ______ ____
ROOT
ATOM      1  C   UNL     1       6.642   6.546 -10.537  0.00  0.00    -0.003 A 
ATOM      2  C   UNL     1       5.275   6.620 -10.752  0.00  0.00    -0.003 A 
ATOM      3  C   UNL     1       4.358   6.386  -9.737  0.00  0.00    +0.004 A 
ATOM      4  C   UNL     1       4.767   5.589  -8.686  0.00  0.00    +0.055 A 
ATOM      5  C   UNL     1       6.122   5.318  -8.550  0.00  0.00    +0.004 A 
ATOM      6  C   UNL     1       7.042   5.691  -9.520  0.00  0.00    -0.003 A 
ENDROOT
BRANCH   4   7
ATOM      7  C   UNL     1       3.977   5.659  -7.450  0.00  0.00    +0.265 C 
ATOM      8  N   UNL     1       4.604   6.123  -6.273  0.00  0.00    -0.203 NA
ATOM      9  O   UNL     1       2.877   5.071  -7.358  0.00  0.00    -0.268 OA
BRANCH   8  10
ATOM     10  C   UNL     1       3.967   6.155  -4.970  0.00  0.00    +0.096 C 
ATOM     11  C   UNL     1       4.506   7.389  -4.260  0.00  0.00    +0.023 C 
ATOM     12  C   UNL     1       4.523   4.956  -4.207  0.00  0.00    +0.023 C 
ENDBRANCH   8  10
ENDBRANCH   4   7
BRANCH   1  13
ATOM     13  C   UNL     1       7.624   6.725 -11.652  0.00  0.00    +0.136 C 
BRANCH  13  14
ATOM     14  N   UNL     1       8.280   5.475 -11.976  0.00  0.00    -0.126 NA
BRANCH  14  16
ATOM     15  C   UNL     1       7.035   5.589 -13.992  0.00  0.00    +0.130 C 
ATOM     16  N   UNL     1       7.660   4.769 -12.992  0.00  0.00    -0.129 NA
ENDBRANCH  14  16
ENDBRANCH  13  14
ENDBRANCH   1  13
TORSDOF 5
ENDMDL
MODEL 3
REMARK VINA RESULT:      -6.3      5.123      8.953
REMARK  Name = 
REMARK  5 active torsions:
REMARK  status: ('A' for Active; 'I' for Inactive)
REMARK    1  A    between atoms: N_2  and  N_3
REMARK    2  A    between atoms: N_3  and  C_4
REMARK    3  A    between atoms: C_4  and  C_5
REMARK    4  A    between atoms: C_8  and  C_9
REMARK    5  A    between atoms: N_11  and  C_12
REMARK                            x       y       z     vdW  Elec       q    Type
REMARK                         _______ _______ _______ _____ _____    ______ ____
ROOT
ATOM      1  C   UNL     1       6.358   6.052 -10.405  0.00  0.00    -0.003 A 
ATOM      2  C   UNL     1       6.493   5.525  -9.130  0.00  0.00    -0.003 A 
ATOM      3  C   UNL     1       5.403   5.076  -8.400  0.00  0.00    +0.004 A 
ATOM      4  C   UNL     1       4.170   5.619  -8.706  0.00  0.00    +0.055 A 
ATOM      5  C   UNL     1       4.039   6.336  -9.888  0.00  0.00    +0.004 A 
ATOM      6  C   UNL     1       5.136   6.652 -10.676  0.00  0.00    -0.003 A 
ENDROOT
BRANCH   4   7
ATOM      7  C   UNL     1       2.986   4.887  -8.239  0.00  0.00    +0.265 C 
ATOM      8  N   UNL     1       2.314   5.354  -7.087  0.00  0.00    -0.203 NA
ATOM      9  O   UNL     1       2.735   3.737  -8.659  0.00  0.00    -0.268 OA
BRANCH   8  10
ATOM     10  C   UNL     1       1.191   4.675  -6.468  0.00  0.00    +0.096 C 
ATOM     11  C   UNL     1      -0.065   5.338  -7.017  0.00  0.00    +0.023 C 
ATOM     12  C   UNL     1       1.247   5.044  -4.989  0.00  0.00    +0.023 C 
ENDBRANCH   8  10
ENDBRANCH   4   7
BRANCH   1  13
ATOM     13  C   UNL     1       7.528   6.604 -11.157  0.00  0.00    +0.136 C 
BRANCH  13  14
ATOM     14  N   UNL     1       8.318   5.543 -11.746  0.00  0.00    -0.126 NA
BRANCH  14  16
ATOM     15  C   UNL     1       7.178   5.539 -13.826  0.00  0.00    +0.130 C 
ATOM     16  N   UNL     1       7.630   4.794 -12.685  0.00  0.00    -0.129 NA
ENDBRANCH  14  16
ENDBRANCH  13  14
ENDBRANCH   1  13
TORSDOF 5
ENDMDL
MODEL 4
REMARK VINA RESULT:      -6.2      5.302      8.960
REMARK  Name = 
REMARK  5 active torsions:
REMARK  status: ('A' for Active; 'I' for Inactive)
REMARK    1  A    between atoms: N_2  and  N_3
REMARK    2  A    between atoms: N_3  and  C_4
REMARK    3  A    between atoms: C_4  and  C_5
REMARK    4  A    between atoms: C_8  and  C_9
REMARK    5  A    between atoms: N_11  and  C_12
REMARK                            x       y       z     vdW  Elec       q    Type
REMARK                         _______ _______ _______ _____ _____    ______ ____
ROOT
ATOM      1  C   UNL     1       6.677   6.198 -10.803  0.00  0.00    -0.003 A 
ATOM      2  C   UNL     1       6.442   5.589  -9.580  0.00  0.00    -0.003 A 
ATOM      3  C   UNL     1       5.169   5.498  -9.037  0.00  0.00    +0.004 A 
ATOM      4  C   UNL     1       4.242   6.442  -9.435  0.00  0.00    +0.055 A 
ATOM      5  C   UNL     1       4.530   7.223 -10.547  0.00  0.00    +0.004 A 
ATOM      6  C   UNL     1       5.774   7.189 -11.160  0.00  0.00    -0.003 A 
ENDROOT
BRANCH   4   7
ATOM      7  C   UNL     1       2.828   6.131  -9.191  0.00  0.00    +0.265 C 
ATOM      8  N   UNL     1       1.897   6.361 -10.228  0.00  0.00    -0.203 NA
ATOM      9  O   UNL     1       2.404   5.939  -8.031  0.00  0.00    -0.268 OA
BRANCH   8  10
ATOM     10  C   UNL     1       0.463   6.183 -10.089  0.00  0.00    +0.096 C 
ATOM     11  C   UNL     1       0.167   4.748 -10.503  0.00  0.00    +0.023 C 
ATOM     12  C   UNL     1      -0.169   7.067 -11.160  0.00  0.00    +0.023 C 
ENDBRANCH   8  10
ENDBRANCH   4   7
BRANCH   1  13
ATOM     13  C   UNL     1       8.061   6.360 -11.348  0.00  0.00    +0.136 C 
BRANCH  13  14
ATOM     14  N   UNL     1       8.438   5.224 -12.164  0.00  0.00    -0.126 NA
BRANCH  14  16
ATOM     15  C   UNL     1       7.214   5.597 -14.162  0.00  0.00    +0.130 C 
ATOM     16  N   UNL     1       7.427   4.781 -12.999  0.00  0.00    -0.129 NA
ENDBRANCH  14  16
ENDBRANCH  13  14
ENDBRANCH   1  13
TORSDOF 5
ENDMDL
MODEL 5
REMARK VINA RESULT:      -6.1      1.801      2.647
REMARK  Name = 
REMARK  5 active torsions:
REMARK  status: ('A' for Active; 'I' for Inactive)
REMARK    1  A    between atoms: N_2  and  N_3
REMARK    2  A    between atoms: N_3  and  C_4
REMARK    3  A    between atoms: C_4  and  C_5
REMARK    4  A    between atoms: C_8  and  C_9
REMARK    5  A    between atoms: N_11  and  C_12
REMARK                            x       y       z     vdW  Elec       q    Type
REMARK                         _______ _______ _______ _____ _____    ______ ____
ROOT
ATOM      1  C   UNL     1      -1.804   5.835  -4.772  0.00  0.00    -0.003 A 
ATOM      2  C   UNL     1      -2.215   5.466  -6.043  0.00  0.00    -0.003 A 
ATOM      3  C   UNL     1      -1.315   5.289  -7.084  0.00  0.00    +0.004 A 
ATOM      4  C   UNL     1      -0.115   5.968  -7.005  0.00  0.00    +0.055 A 
ATOM      5  C   UNL     1       0.246   6.534  -5.790  0.00  0.00    +0.004 A 
ATOM      6  C   UNL     1      -0.630   6.572  -4.714  0.00  0.00    -0.003 A 
ENDROOT
BRANCH   4   7
ATOM      7  C   UNL     1       0.976   5.493  -7.866  0.00  0.00    +0.265 C 
ATOM      8  N   UNL     1       2.301   5.866  -7.545  0.00  0.00    -0.203 NA
ATOM      9  O   UNL     1       0.740   5.018  -8.998  0.00  0.00    -0.268 OA
BRANCH   8  10
ATOM     10  C   UNL     1       3.457   5.543  -8.359  0.00  0.00    +0.096 C 
ATOM     11  C   UNL     1       4.643   5.462  -7.407  0.00  0.00    +0.023 C 
ATOM     12  C   UNL     1       3.704   6.769  -9.233  0.00  0.00    +0.023 C 
ENDBRANCH   8  10
ENDBRANCH   4   7
BRANCH   1  13
ATOM     13  C   UNL     1      -2.785   6.097  -3.673  0.00  0.00    +0.136 C 
BRANCH  13  14
ATOM     14  N   UNL     1      -2.838   4.988  -2.744  0.00  0.00    -0.126 NA
BRANCH  14  16
ATOM     15  C   UNL     1      -1.838   6.108  -0.907  0.00  0.00    +0.130 C 
ATOM     16  N   UNL     1      -1.815   4.993  -1.812  0.00  0.00    -0.129 NA
ENDBRANCH  14  16
ENDBRANCH  13  14
ENDBRANCH   1  13
TORSDOF 5
ENDMDL
MODEL 6
REMARK VINA RESULT:      -5.8      5.164      6.502
REMARK  Name = 
REMARK  5 active torsions:
REMARK  status: ('A' for Active; 'I' for Inactive)
REMARK    1  A    between atoms: N_2  and  N_3
REMARK    2  A    between atoms: N_3  and  C_4
REMARK    3  A    between atoms: C_4  and  C_5
REMARK    4  A    between atoms: C_8  and  C_9
REMARK    5  A    between atoms: N_11  and  C_12
REMARK                            x       y       z     vdW  Elec       q    Type
REMARK                         _______ _______ _______ _____ _____    ______ ____
ROOT
ATOM      1  C   UNL     1       3.709   5.939  -7.405  0.00  0.00    -0.003 A 
ATOM      2  C   UNL     1       4.847   5.217  -7.727  0.00  0.00    -0.003 A 
ATOM      3  C   UNL     1       5.574   5.466  -8.882  0.00  0.00    +0.004 A 
ATOM      4  C   UNL     1       4.901   6.046  -9.940  0.00  0.00    +0.055 A 
ATOM      5  C   UNL     1       3.654   6.607  -9.702  0.00  0.00    +0.004 A 
ATOM      6  C   UNL     1       3.007   6.461  -8.483  0.00  0.00    -0.003 A 
ENDROOT
BRANCH   4   7
ATOM      7  C   UNL     1       5.720   6.667 -10.989  0.00  0.00    +0.265 C 
ATOM      8  N   UNL     1       6.649   5.863 -11.686  0.00  0.00    -0.203 NA
ATOM      9  O   UNL     1       5.808   7.910 -11.082  0.00  0.00    -0.268 OA
BRANCH   8  10
ATOM     10  C   UNL     1       7.579   6.367 -12.678  0.00  0.00    +0.096 C 
ATOM     11  C   UNL     1       7.210   5.695 -13.993  0.00  0.00    +0.023 C 
ATOM     12  C   UNL     1       8.944   5.807 -12.289  0.00  0.00    +0.023 C 
ENDBRANCH   8  10
ENDBRANCH   4   7
BRANCH   1  13
ATOM     13  C   UNL     1       2.887   5.615  -6.197  0.00  0.00    +0.136 C 
BRANCH  13  14
ATOM     14  N   UNL     1       2.434   4.240  -6.226  0.00  0.00    -0.126 NA
BRANCH  14  16
ATOM     15  C   UNL     1       0.234   5.123  -6.305  0.00  0.00    +0.130 C 
ATOM     16  N   UNL     1       1.112   4.082  -5.849  0.00  0.00    -0.129 NA
ENDBRANCH  14  16
ENDBRANCH  13  14
ENDBRANCH   1  13
TORSDOF 5
ENDMDL
MODEL 7
REMARK VINA RESULT:      -5.7      4.826      5.665
REMARK  Name = 
REMARK  5 active torsions:
REMARK  status: ('A' for Active; 'I' for Inactive)
REMARK    1  A    between atoms: N_2  and  N_3
REMARK    2  A    between atoms: N_3  and  C_4
REMARK    3  A    between atoms: C_4  and  C_5
REMARK    4  A    between atoms: C_8  and  C_9
REMARK    5  A    between atoms: N_11  and  C_12
REMARK                            x       y       z     vdW  Elec       q    Type
REMARK                         _______ _______ _______ _____ _____    ______ ____
ROOT
ATOM      1  C   UNL     1       4.354   6.625  -2.104  0.00  0.00    -0.003 A 
ATOM      2  C   UNL     1       4.954   7.583  -2.906  0.00  0.00    -0.003 A 
ATOM      3  C   UNL     1       4.816   7.578  -4.286  0.00  0.00    +0.004 A 
ATOM      4  C   UNL     1       4.537   6.368  -4.890  0.00  0.00    +0.055 A 
ATOM      5  C   UNL     1       4.125   5.310  -4.090  0.00  0.00    +0.004 A 
ATOM      6  C   UNL     1       4.140   5.393  -2.705  0.00  0.00    -0.003 A 
ENDROOT
BRANCH   4   7
ATOM      7  C   UNL     1       4.005   6.412  -6.258  0.00  0.00    +0.265 C 
ATOM      8  N   UNL     1       4.600   5.590  -7.241  0.00  0.00    -0.203 NA
ATOM      9  O   UNL     1       3.249   7.338  -6.622  0.00  0.00    -0.268 OA
BRANCH   8  10
ATOM     10  C   UNL     1       4.233   5.604  -8.644  0.00  0.00    +0.096 C 
ATOM     11  C   UNL     1       3.568   4.264  -8.927  0.00  0.00    +0.023 C 
ATOM     12  C   UNL     1       5.549   5.590  -9.417  0.00  0.00    +0.023 C 
ENDBRANCH   8  10
ENDBRANCH   4   7
BRANCH   1  13
ATOM     13  C   UNL     1       4.569   6.592  -0.624  0.00  0.00    +0.136 C 
BRANCH  13  14
ATOM     14  N   UNL     1       3.405   6.067   0.061  0.00  0.00    -0.126 NA
BRANCH  14  16
ATOM     15  C   UNL     1       1.107   6.508  -0.325  0.00  0.00    +0.130 C 
ATOM     16  N   UNL     1       2.369   6.978   0.173  0.00  0.00    -0.129 NA
ENDBRANCH  14  16
ENDBRANCH  13  14
ENDBRANCH   1  13
TORSDOF 5
ENDMDL
MODEL 8
REMARK VINA RESULT:      -5.7      4.467      5.358
REMARK  Name = 
REMARK  5 active torsions:
REMARK  status: ('A' for Active; 'I' for Inactive)
REMARK    1  A    between atoms: N_2  and  N_3
REMARK    2  A    between atoms: N_3  and  C_4
REMARK    3  A    between atoms: C_4  and  C_5
REMARK    4  A    between atoms: C_8  and  C_9
REMARK    5  A    between atoms: N_11  and  C_12
REMARK                            x       y       z     vdW  Elec       q    Type
REMARK                         _______ _______ _______ _____ _____    ______ ____
ROOT
ATOM      1  C   UNL     1       3.582   6.808  -5.861  0.00  0.00    -0.003 A 
ATOM      2  C   UNL     1       4.375   5.743  -6.260  0.00  0.00    -0.003 A 
ATOM      3  C   UNL     1       4.699   5.527  -7.591  0.00  0.00    +0.004 A 
ATOM      4  C   UNL     1       3.835   6.033  -8.543  0.00  0.00    +0.055 A 
ATOM      5  C   UNL     1       2.881   6.959  -8.144  0.00  0.00    +0.004 A 
ATOM      6  C   UNL     1       2.674   7.264  -6.806  0.00  0.00    -0.003 A 
ENDROOT
BRANCH   4   7
ATOM      7  C   UNL     1       4.353   6.160  -9.911  0.00  0.00    +0.265 C 
ATOM      8  N   UNL     1       5.738   6.375 -10.092  0.00  0.00    -0.203 NA
ATOM      9  O   UNL     1       3.581   6.357 -10.874  0.00  0.00    -0.268 OA
BRANCH   8  10
ATOM     10  C   UNL     1       6.364   6.609 -11.380  0.00  0.00    +0.096 C 
ATOM     11  C   UNL     1       7.772   6.038 -11.282  0.00  0.00    +0.023 C 
ATOM     12  C   UNL     1       6.531   8.121 -11.491  0.00  0.00    +0.023 C 
ENDBRANCH   8  10
ENDBRANCH   4   7
BRANCH   1  13
ATOM     13  C   UNL     1       3.173   6.993  -4.433  0.00  0.00    +0.136 C 
BRANCH  13  14
ATOM     14  N   UNL     1       1.760   6.732  -4.256  0.00  0.00    -0.126 NA
BRANCH  14  16
ATOM     15  C   UNL     1       0.144   5.371  -3.178  0.00  0.00    +0.130 C 
ATOM     16  N   UNL     1       1.491   5.515  -3.654  0.00  0.00    -0.129 NA
ENDBRANCH  14  16
ENDBRANCH  13  14
ENDBRANCH   1  13
TORSDOF 5
ENDMDL
MODEL 9
REMARK VINA RESULT:      -5.6      3.707      7.706
REMARK  Name = 
REMARK  5 active torsions:
REMARK  status: ('A' for Active; 'I' for Inactive)
REMARK    1  A    between atoms: N_2  and  N_3
REMARK    2  A    between atoms: N_3  and  C_4
REMARK    3  A    between atoms: C_4  and  C_5
REMARK    4  A    between atoms: C_8  and  C_9
REMARK    5  A    between atoms: N_11  and  C_12
REMARK                            x       y       z     vdW  Elec       q    Type
REMARK                         _______ _______ _______ _____ _____    ______ ____
ROOT
ATOM      1  C   UNL     1       4.298   5.899  -9.329  0.00  0.00    -0.003 A 
ATOM      2  C   UNL     1       3.279   6.823  -9.161  0.00  0.00    -0.003 A 
ATOM      3  C   UNL     1       2.181   6.568  -8.354  0.00  0.00    +0.004 A 
ATOM      4  C   UNL     1       1.842   5.245  -8.146  0.00  0.00    +0.055 A 
ATOM      5  C   UNL     1       2.763   4.265  -8.493  0.00  0.00    +0.004 A 
ATOM      6  C   UNL     1       3.929   4.569  -9.181  0.00  0.00    -0.003 A 
ENDROOT
BRANCH   4   7
ATOM      7  C   UNL     1       0.960   4.954  -7.008  0.00  0.00    +0.265 C 
ATOM      8  N   UNL     1      -0.155   5.793  -6.786  0.00  0.00    -0.203 NA
ATOM      9  O   UNL     1       1.322   4.177  -6.099  0.00  0.00    -0.268 OA
BRANCH   8  10
ATOM     10  C   UNL     1      -1.050   5.672  -5.651  0.00  0.00    +0.096 C 
ATOM     11  C   UNL     1      -2.456   5.557  -6.224  0.00  0.00    +0.023 C 
ATOM     12  C   UNL     1      -0.998   7.020  -4.937  0.00  0.00    +0.023 C 
ENDBRANCH   8  10
ENDBRANCH   4   7
BRANCH   1  13
ATOM     13  C   UNL     1       5.443   6.150 -10.260  0.00  0.00    +0.136 C 
BRANCH  13  14
ATOM     14  N   UNL     1       5.357   7.470 -10.850  0.00  0.00    -0.126 NA
BRANCH  14  16
ATOM     15  C   UNL     1       6.569   7.021 -12.839  0.00  0.00    +0.130 C 
ATOM     16  N   UNL     1       6.447   7.798 -11.638  0.00  0.00    -0.129 NA
ENDBRANCH  14  16
ENDBRANCH  13  14
ENDBRANCH   1  13
TORSDOF 5
ENDMDL
