MODEL 1
REMARK VINA RESULT:      -4.5      0.000      0.000
REMARK  Name = 
REMARK  4 active torsions:
REMARK  status: ('A' for Active; 'I' for Inactive)
REMARK    1  A    between atoms: C_2  and  C_3
REMARK    2  A    between atoms: C_2  and  O_8
REMARK    3  A    between atoms: C_3  and  N_4
REMARK    4  A    between atoms: O_8  and  C_9
REMARK                            x       y       z     vdW  Elec       q    Type
REMARK                         _______ _______ _______ _____ _____    ______ ____
ROOT
ATOM      1  C   UNL     1       6.531   7.653 -11.215  0.00  0.00    +0.054 C 
ATOM      2  C   UNL     1       5.865   6.124 -11.377  0.00  0.00    +0.225 C 
ENDROOT
BRANCH   2   3
ATOM      3  O   UNL     1       7.270   5.457 -11.171  0.00  0.00    -0.430 OA
BRANCH   3   4
ATOM      4  C   UNL     1       8.073   5.560 -12.313  0.00  0.00    +0.441 C 
ATOM      5  O   UNL     1       7.720   4.649 -13.125  0.00  0.00    -0.223 OA
ATOM      6  N   UNL     1       9.452   5.874 -12.297  0.00  0.00    -0.048 NA
ENDBRANCH   3   4
ENDBRANCH   2   3
BRANCH   2   7
ATOM      7  C   UNL     1       5.482   6.092  -9.745  0.00  0.00    +0.153 C 
BRANCH   7   8
ATOM      8  N   UNL     1       4.066   5.731  -9.767  0.00  0.00    +0.313 N 
ATOM      9  C   UNL     1       3.268   6.689  -9.018  0.00  0.00    +0.171 C 
ATOM     10  C   UNL     1       3.560   5.639 -11.128  0.00  0.00    +0.171 C 
ATOM     11  C   UNL     1       3.841   4.435  -9.160  0.00  0.00    +0.171 C 
ENDBRANCH   7   8
ENDBRANCH   2   7
TORSDOF 4
ENDMDL
MODEL 2
REMARK VINA RESULT:      -4.4      8.493     10.693
REMARK  Name = 
REMARK  4 active torsions:
REMARK  status: ('A' for Active; 'I' for Inactive)
REMARK    1  A    between atoms: C_2  and  C_3
REMARK    2  A    between atoms: C_2  and  O_8
REMARK    3  A    between atoms: C_3  and  N_4
REMARK    4  A    between atoms: O_8  and  C_9
REMARK                            x       y       z     vdW  Elec       q    Type
REMARK                         _______ _______ _______ _____ _____    ______ ____
ROOT
ATOM      1  C   UNL     1      -1.694   8.173  -4.647  0.00  0.00    +0.054 C 
ATOM      2  C   UNL     1      -1.216   6.691  -4.026  0.00  0.00    +0.225 C 
ENDROOT
BRANCH   2   3
ATOM      3  O   UNL     1      -2.653   6.101  -4.249  0.00  0.00    -0.430 OA
BRANCH   3   4
ATOM      4  C   UNL     1      -3.209   5.609  -3.062  0.00  0.00    +0.441 C 
ATOM      5  O   UNL     1      -4.059   6.456  -2.646  0.00  0.00    -0.223 OA
ATOM      6  N   UNL     1      -2.485   4.918  -2.064  0.00  0.00    -0.048 NA
ENDBRANCH   3   4
ENDBRANCH   2   3
BRANCH   2   7
ATOM      7  C   UNL     1      -0.660   6.212  -5.533  0.00  0.00    +0.153 C 
BRANCH   7   8
ATOM      8  N   UNL     1       0.661   5.671  -5.216  0.00  0.00    +0.313 N 
ATOM      9  C   UNL     1       0.918   4.445  -5.956  0.00  0.00    +0.171 C 
ATOM     10  C   UNL     1       1.714   6.634  -5.497  0.00  0.00    +0.171 C 
ATOM     11  C   UNL     1       0.774   5.341  -3.810  0.00  0.00    +0.171 C 
ENDBRANCH   7   8
ENDBRANCH   2   7
TORSDOF 4
ENDMDL
MODEL 3
REMARK VINA RESULT:      -4.2      7.374      9.789
REMARK  Name = 
REMARK  4 active torsions:
REMARK  status: ('A' for Active; 'I' for Inactive)
REMARK    1  A    between atoms: C_2  and  C_3
REMARK    2  A    between atoms: C_2  and  O_8
REMARK    3  A    between atoms: C_3  and  N_4
REMARK    4  A    between atoms: O_8  and  C_9
REMARK                            x       y       z     vdW  Elec       q    Type
REMARK                         _______ _______ _______ _____ _____    ______ ____
ROOT
ATOM      1  C   UNL     1      -0.887   7.493  -4.897  0.00  0.00    +0.054 C 
ATOM      2  C   UNL     1       0.118   6.296  -4.295  0.00  0.00    +0.225 C 
ENDROOT
BRANCH   2   3
ATOM      3  O   UNL     1      -1.116   5.391  -3.950  0.00  0.00    -0.430 OA
BRANCH   3   4
ATOM      4  C   UNL     1      -1.385   5.369  -2.576  0.00  0.00    +0.441 C 
ATOM      5  O   UNL     1      -0.368   4.888  -1.985  0.00  0.00    -0.223 OA
ATOM      6  N   UNL     1      -2.639   5.048  -2.010  0.00  0.00    -0.048 NA
ENDBRANCH   3   4
ENDBRANCH   2   3
BRANCH   2   7
ATOM      7  C   UNL     1       0.308   5.650  -5.831  0.00  0.00    +0.153 C 
BRANCH   7   8
ATOM      8  N   UNL     1       1.728   5.301  -5.845  0.00  0.00    +0.313 N 
ATOM      9  C   UNL     1       2.474   6.172  -6.739  0.00  0.00    +0.171 C 
ATOM     10  C   UNL     1       2.307   5.366  -4.512  0.00  0.00    +0.171 C 
ATOM     11  C   UNL     1       1.934   3.946  -6.314  0.00  0.00    +0.171 C 
ENDBRANCH   7   8
ENDBRANCH   2   7
TORSDOF 4
ENDMDL
MODEL 4
REMARK VINA RESULT:      -4.1      8.019      9.978
REMARK  Name = 
REMARK  4 active torsions:
REMARK  status: ('A' for Active; 'I' for Inactive)
REMARK    1  A    between atoms: C_2  and  C_3
REMARK    2  A    between atoms: C_2  and  O_8
REMARK    3  A    between atoms: C_3  and  N_4
REMARK    4  A    between atoms: O_8  and  C_9
REMARK                            x       y       z     vdW  Elec       q    Type
REMARK                         _______ _______ _______ _____ _____    ______ ____
ROOT
ATOM      1  C   UNL     1      -0.229   7.096  -5.206  0.00  0.00    +0.054 C 
ATOM      2  C   UNL     1       0.473   6.391  -3.857  0.00  0.00    +0.225 C 
ENDROOT
BRANCH   2   3
ATOM      3  O   UNL     1      -0.650   5.296  -3.808  0.00  0.00    -0.430 OA
BRANCH   3   4
ATOM      4  C   UNL     1      -1.354   5.319  -2.598  0.00  0.00    +0.441 C 
ATOM      5  O   UNL     1      -0.558   4.965  -1.674  0.00  0.00    -0.223 OA
ATOM      6  N   UNL     1      -2.699   4.911  -2.446  0.00  0.00    -0.048 NA
ENDBRANCH   3   4
ENDBRANCH   2   3
BRANCH   2   7
ATOM      7  C   UNL     1       1.484   5.476  -4.831  0.00  0.00    +0.153 C 
BRANCH   7   8
ATOM      8  N   UNL     1       2.799   5.748  -4.253  0.00  0.00    +0.313 N 
ATOM      9  C   UNL     1       3.377   6.960  -4.810  0.00  0.00    +0.171 C 
ATOM     10  C   UNL     1       2.731   5.866  -2.805  0.00  0.00    +0.171 C 
ATOM     11  C   UNL     1       3.731   4.674  -4.532  0.00  0.00    +0.171 C 
ENDBRANCH   7   8
ENDBRANCH   2   7
TORSDOF 4
ENDMDL
MODEL 5
REMARK VINA RESULT:      -4.0      5.823      6.684
REMARK  Name = 
REMARK  4 active torsions:
REMARK  status: ('A' for Active; 'I' for Inactive)
REMARK    1  A    between atoms: C_2  and  C_3
REMARK    2  A    between atoms: C_2  and  O_8
REMARK    3  A    between atoms: C_3  and  N_4
REMARK    4  A    between atoms: O_8  and  C_9
REMARK                            x       y       z     vdW  Elec       q    Type
REMARK                         _______ _______ _______ _____ _____    ______ ____
ROOT
ATOM      1  C   UNL     1       2.437   7.497  -8.090  0.00  0.00    +0.054 C 
ATOM      2  C   UNL     1       2.680   6.410  -6.839  0.00  0.00    +0.225 C 
ENDROOT
BRANCH   2   3
ATOM      3  O   UNL     1       3.406   7.509  -5.986  0.00  0.00    -0.430 OA
BRANCH   3   4
ATOM      4  C   UNL     1       4.104   6.960  -4.904  0.00  0.00    +0.441 C 
ATOM      5  O   UNL     1       4.903   7.843  -4.462  0.00  0.00    -0.223 OA
ATOM      6  N   UNL     1       4.564   5.624  -4.842  0.00  0.00    -0.048 NA
ENDBRANCH   3   4
ENDBRANCH   2   3
BRANCH   2   7
ATOM      7  C   UNL     1       1.166   6.758  -6.210  0.00  0.00    +0.153 C 
BRANCH   7   8
ATOM      8  N   UNL     1       0.678   5.433  -5.831  0.00  0.00    +0.313 N 
ATOM      9  C   UNL     1       0.644   5.279  -4.385  0.00  0.00    +0.171 C 
ATOM     10  C   UNL     1      -0.646   5.176  -6.376  0.00  0.00    +0.171 C 
ATOM     11  C   UNL     1       1.540   4.386  -6.342  0.00  0.00    +0.171 C 
ENDBRANCH   7   8
ENDBRANCH   2   7
TORSDOF 4
ENDMDL
MODEL 6
REMARK VINA RESULT:      -3.9      9.585     11.049
REMARK  Name = 
REMARK  4 active torsions:
REMARK  status: ('A' for Active; 'I' for Inactive)
REMARK    1  A    between atoms: C_2  and  C_3
REMARK    2  A    between atoms: C_2  and  O_8
REMARK    3  A    between atoms: C_3  and  N_4
REMARK    4  A    between atoms: O_8  and  C_9
REMARK                            x       y       z     vdW  Elec       q    Type
REMARK                         _______ _______ _______ _____ _____    ______ ____
ROOT
ATOM      1  C   UNL     1      -3.492   6.520  -2.280  0.00  0.00    +0.054 C 
ATOM      2  C   UNL     1      -1.870   6.557  -2.698  0.00  0.00    +0.225 C 
ENDROOT
BRANCH   2   3
ATOM      3  O   UNL     1      -1.551   5.403  -1.683  0.00  0.00    -0.430 OA
BRANCH   3   4
ATOM      4  C   UNL     1      -0.232   5.460  -1.219  0.00  0.00    +0.441 C 
ATOM      5  O   UNL     1       0.202   6.638  -1.413  0.00  0.00    -0.223 OA
ATOM      6  N   UNL     1       0.715   4.420  -1.365  0.00  0.00    -0.048 NA
ENDBRANCH   3   4
ENDBRANCH   2   3
BRANCH   2   7
ATOM      7  C   UNL     1      -2.150   5.511  -3.977  0.00  0.00    +0.153 C 
BRANCH   7   8
ATOM      8  N   UNL     1      -1.212   6.000  -4.986  0.00  0.00    +0.313 N 
ATOM      9  C   UNL     1      -0.978   7.427  -4.839  0.00  0.00    +0.171 C 
ATOM     10  C   UNL     1       0.058   5.293  -4.921  0.00  0.00    +0.171 C 
ATOM     11  C   UNL     1      -1.723   5.796  -6.327  0.00  0.00    +0.171 C 
ENDBRANCH   7   8
ENDBRANCH   2   7
TORSDOF 4
ENDMDL
MODEL 7
REMARK VINA RESULT:      -3.9      6.995      8.981
REMARK  Name = 
REMARK  4 active torsions:
REMARK  status: ('A' for Active; 'I' for Inactive)
REMARK    1  A    between atoms: C_2  and  C_3
REMARK    2  A    between atoms: C_2  and  O_8
REMARK    3  A    between atoms: C_3  and  N_4
REMARK    4  A    between atoms: O_8  and  C_9
REMARK                            x       y       z     vdW  Elec       q    Type
REMARK                         _______ _______ _______ _____ _____    ______ ____
ROOT
ATOM      1  C   UNL     1      -1.075   5.244  -6.814  0.00  0.00    +0.054 C 
ATOM      2  C   UNL     1      -0.310   5.683  -5.390  0.00  0.00    +0.225 C 
ENDROOT
BRANCH   2   3
ATOM      3  O   UNL     1       0.438   6.855  -6.118  0.00  0.00    -0.430 OA
BRANCH   3   4
ATOM      4  C   UNL     1       1.825   6.783  -5.942  0.00  0.00    +0.441 C 
ATOM      5  O   UNL     1       2.065   6.804  -4.695  0.00  0.00    -0.223 OA
ATOM      6  N   UNL     1       2.772   7.436  -6.765  0.00  0.00    -0.048 NA
ENDBRANCH   3   4
ENDBRANCH   2   3
BRANCH   2   7
ATOM      7  C   UNL     1      -1.618   6.636  -4.952  0.00  0.00    +0.153 C 
BRANCH   7   8
ATOM      8  N   UNL     1      -1.878   6.192  -3.584  0.00  0.00    +0.313 N 
ATOM      9  C   UNL     1      -3.009   5.279  -3.534  0.00  0.00    +0.171 C 
ATOM     10  C   UNL     1      -0.711   5.550  -3.000  0.00  0.00    +0.171 C 
ATOM     11  C   UNL     1      -2.205   7.308  -2.719  0.00  0.00    +0.171 C 
ENDBRANCH   7   8
ENDBRANCH   2   7
TORSDOF 4
ENDMDL
MODEL 8
REMARK VINA RESULT:      -3.8      4.367      6.425
REMARK  Name = 
REMARK  4 active torsions:
REMARK  status: ('A' for Active; 'I' for Inactive)
REMARK    1  A    between atoms: C_2  and  C_3
REMARK    2  A    between atoms: C_2  and  O_8
REMARK    3  A    between atoms: C_3  and  N_4
REMARK    4  A    between atoms: O_8  and  C_9
REMARK                            x       y       z     vdW  Elec       q    Type
REMARK                         _______ _______ _______ _____ _____    ______ ____
ROOT
ATOM      1  C   UNL     1       0.175   6.880 -10.833  0.00  0.00    +0.054 C 
ATOM      2  C   UNL     1       1.166   6.517  -9.531  0.00  0.00    +0.225 C 
ENDROOT
BRANCH   2   3
ATOM      3  O   UNL     1       0.113   5.494  -8.976  0.00  0.00    -0.430 OA
BRANCH   3   4
ATOM      4  C   UNL     1       0.057   5.505  -7.578  0.00  0.00    +0.441 C 
ATOM      5  O   UNL     1      -1.159   5.369  -7.233  0.00  0.00    -0.223 OA
ATOM      6  N   UNL     1       0.845   6.336  -6.750  0.00  0.00    -0.048 NA
ENDBRANCH   3   4
ENDBRANCH   2   3
BRANCH   2   7
ATOM      7  C   UNL     1       1.978   5.366 -10.439  0.00  0.00    +0.153 C 
BRANCH   7   8
ATOM      8  N   UNL     1       3.318   5.401  -9.854  0.00  0.00    +0.313 N 
ATOM      9  C   UNL     1       3.511   4.304  -8.920  0.00  0.00    +0.171 C 
ATOM     10  C   UNL     1       4.349   5.351 -10.879  0.00  0.00    +0.171 C 
ATOM     11  C   UNL     1       3.539   6.626  -9.113  0.00  0.00    +0.171 C 
ENDBRANCH   7   8
ENDBRANCH   2   7
TORSDOF 4
ENDMDL
MODEL 9
REMARK VINA RESULT:      -3.8      6.021      7.985
REMARK  Name = 
REMARK  4 active torsions:
REMARK  status: ('A' for Active; 'I' for Inactive)
REMARK    1  A    between atoms: C_2  and  C_3
REMARK    2  A    between atoms: C_2  and  O_8
REMARK    3  A    between atoms: C_3  and  N_4
REMARK    4  A    between atoms: O_8  and  C_9
REMARK                            x       y       z     vdW  Elec       q    Type
REMARK                         _______ _______ _______ _____ _____    ______ ____
ROOT
ATOM      1  C   UNL     1       1.686   6.590  -4.407  0.00  0.00    +0.054 C 
ATOM      2  C   UNL     1       0.405   7.026  -5.395  0.00  0.00    +0.225 C 
ENDROOT
BRANCH   2   3
ATOM      3  O   UNL     1       1.129   6.421  -6.650  0.00  0.00    -0.430 OA
BRANCH   3   4
ATOM      4  C   UNL     1       2.287   7.133  -6.983  0.00  0.00    +0.441 C 
ATOM      5  O   UNL     1       1.942   8.152  -7.658  0.00  0.00    -0.223 OA
ATOM      6  N   UNL     1       3.516   6.538  -7.347  0.00  0.00    -0.048 NA
ENDBRANCH   3   4
ENDBRANCH   2   3
BRANCH   2   7
ATOM      7  C   UNL     1      -0.396   5.601  -5.026  0.00  0.00    +0.153 C 
BRANCH   7   8
ATOM      8  N   UNL     1      -1.795   6.024  -5.030  0.00  0.00    +0.313 N 
ATOM      9  C   UNL     1      -2.453   5.655  -6.273  0.00  0.00    +0.171 C 
ATOM     10  C   UNL     1      -2.527   5.456  -3.908  0.00  0.00    +0.171 C 
ATOM     11  C   UNL     1      -1.913   7.463  -4.906  0.00  0.00    +0.171 C 
ENDBRANCH   7   8
ENDBRANCH   2   7
TORSDOF 4
ENDMDL
