MODEL 1
REMARK VINA RESULT:      -5.4      0.000      0.000
REMARK  Name = 
REMARK  3 active torsions:
REMARK  status: ('A' for Active; 'I' for Inactive)
REMARK    1  A    between atoms: N_2  and  C_3
REMARK    2  A    between atoms: C_3  and  C_4
REMARK    3  A    between atoms: C_4  and  C_6
REMARK                            x       y       z     vdW  Elec       q    Type
REMARK                         _______ _______ _______ _____ _____    ______ ____
ROOT
ATOM      1  C   UNL     1       4.647   6.395 -11.411  0.00  0.00    +0.012 A 
ATOM      2  C   UNL     1       5.450   5.395 -11.965  0.00  0.00    +0.040 A 
ATOM      3  C   UNL     1       6.813   5.545 -12.108  0.00  0.00    +0.196 A 
ATOM      4  O   UNL     1       7.637   4.663 -12.769  0.00  0.00    -0.287 OA
ATOM      5  C   UNL     1       7.406   6.735 -11.704  0.00  0.00    +0.042 A 
ATOM      6  C   UNL     1       6.622   7.751 -11.190  0.00  0.00    +0.003 A 
ATOM      7  C   UNL     1       5.342   7.406 -10.845  0.00  0.00    -0.002 A 
ENDROOT
BRANCH   1   8
ATOM      8  C   UNL     1       3.379   5.777 -10.613  0.00  0.00    +0.192 C 
ATOM      9  O   UNL     1       4.179   4.715  -9.866  0.00  0.00    -0.217 OA
BRANCH   8  10
ATOM     10  C   UNL     1       3.577   6.836  -9.356  0.00  0.00    +0.126 C 
BRANCH  10  12
ATOM     11  C   UNL     1       2.292   7.554  -7.838  0.00  0.00    +0.108 C 
ATOM     12  N   UNL     1       2.219   7.071  -8.901  0.00  0.00    -0.213 NA
ENDBRANCH  10  12
ENDBRANCH   8  10
ENDBRANCH   1   8
TORSDOF 3
ENDMDL
MODEL 2
REMARK VINA RESULT:      -5.2      5.096      8.331
REMARK  Name = 
REMARK  3 active torsions:
REMARK  status: ('A' for Active; 'I' for Inactive)
REMARK    1  A    between atoms: N_2  and  C_3
REMARK    2  A    between atoms: C_3  and  C_4
REMARK    3  A    between atoms: C_4  and  C_6
REMARK                            x       y       z     vdW  Elec       q    Type
REMARK                         _______ _______ _______ _____ _____    ______ ____
ROOT
ATOM      1  C   UNL     1       0.035   6.121  -6.237  0.00  0.00    +0.012 A 
ATOM      2  C   UNL     1      -0.237   7.088  -5.266  0.00  0.00    +0.040 A 
ATOM      3  C   UNL     1      -1.519   7.356  -4.837  0.00  0.00    +0.196 A 
ATOM      4  O   UNL     1      -1.868   8.385  -3.993  0.00  0.00    -0.287 OA
ATOM      5  C   UNL     1      -2.578   6.653  -5.400  0.00  0.00    +0.042 A 
ATOM      6  C   UNL     1      -2.332   5.721  -6.390  0.00  0.00    +0.003 A 
ATOM      7  C   UNL     1      -1.026   5.343  -6.549  0.00  0.00    -0.002 A 
ENDROOT
BRANCH   1   8
ATOM      8  C   UNL     1       1.476   5.417  -6.000  0.00  0.00    +0.192 C 
ATOM      9  O   UNL     1       0.924   4.006  -5.826  0.00  0.00    -0.217 OA
BRANCH   8  10
ATOM     10  C   UNL     1       1.681   5.155  -7.622  0.00  0.00    +0.126 C 
BRANCH  10  12
ATOM     11  C   UNL     1       3.000   3.911  -8.709  0.00  0.00    +0.108 C 
ATOM     12  N   UNL     1       2.474   3.940  -7.665  0.00  0.00    -0.213 NA
ENDBRANCH  10  12
ENDBRANCH   8  10
ENDBRANCH   1   8
TORSDOF 3
ENDMDL
MODEL 3
REMARK VINA RESULT:      -5.2      5.244      9.042
REMARK  Name = 
REMARK  3 active torsions:
REMARK  status: ('A' for Active; 'I' for Inactive)
REMARK    1  A    between atoms: N_2  and  C_3
REMARK    2  A    between atoms: C_3  and  C_4
REMARK    3  A    between atoms: C_4  and  C_6
REMARK                            x       y       z     vdW  Elec       q    Type
REMARK                         _______ _______ _______ _____ _____    ______ ____
ROOT
ATOM      1  C   UNL     1       0.071   6.595  -4.245  0.00  0.00    +0.012 A 
ATOM      2  C   UNL     1      -0.590   5.593  -3.531  0.00  0.00    +0.040 A 
ATOM      3  C   UNL     1      -1.962   5.574  -3.395  0.00  0.00    +0.196 A 
ATOM      4  O   UNL     1      -2.661   4.702  -2.593  0.00  0.00    -0.287 OA
ATOM      5  C   UNL     1      -2.710   6.593  -3.973  0.00  0.00    +0.042 A 
ATOM      6  C   UNL     1      -2.071   7.614  -4.649  0.00  0.00    +0.003 A 
ATOM      7  C   UNL     1      -0.753   7.400  -4.953  0.00  0.00    -0.002 A 
ENDROOT
BRANCH   1   8
ATOM      8  C   UNL     1       1.420   6.041  -4.953  0.00  0.00    +0.192 C 
ATOM      9  O   UNL     1       0.777   4.783  -5.529  0.00  0.00    -0.217 OA
BRANCH   8  10
ATOM     10  C   UNL     1       1.096   6.867  -6.351  0.00  0.00    +0.126 C 
BRANCH  10  12
ATOM     11  C   UNL     1       2.361   7.583  -7.887  0.00  0.00    +0.108 C 
ATOM     12  N   UNL     1       2.393   7.395  -6.733  0.00  0.00    -0.213 NA
ENDBRANCH  10  12
ENDBRANCH   8  10
ENDBRANCH   1   8
TORSDOF 3
ENDMDL
MODEL 4
REMARK VINA RESULT:      -5.2      1.678      1.928
REMARK  Name = 
REMARK  3 active torsions:
REMARK  status: ('A' for Active; 'I' for Inactive)
REMARK    1  A    between atoms: N_2  and  C_3
REMARK    2  A    between atoms: C_3  and  C_4
REMARK    3  A    between atoms: C_4  and  C_6
REMARK                            x       y       z     vdW  Elec       q    Type
REMARK                         _______ _______ _______ _____ _____    ______ ____
ROOT
ATOM      1  C   UNL     1       5.449   6.479 -10.829  0.00  0.00    +0.012 A 
ATOM      2  C   UNL     1       5.837   5.875 -12.027  0.00  0.00    +0.040 A 
ATOM      3  C   UNL     1       7.069   5.274 -12.180  0.00  0.00    +0.196 A 
ATOM      4  O   UNL     1       7.566   4.788 -13.367  0.00  0.00    -0.287 OA
ATOM      5  C   UNL     1       7.959   5.281 -11.112  0.00  0.00    +0.042 A 
ATOM      6  C   UNL     1       7.607   5.908  -9.932  0.00  0.00    +0.003 A 
ATOM      7  C   UNL     1       6.284   6.233  -9.795  0.00  0.00    -0.002 A 
ENDROOT
BRANCH   1   8
ATOM      8  C   UNL     1       3.851   6.363 -10.586  0.00  0.00    +0.192 C 
ATOM      9  O   UNL     1       3.569   5.551 -11.846  0.00  0.00    -0.217 OA
BRANCH   8  10
ATOM     10  C   UNL     1       4.024   4.971  -9.706  0.00  0.00    +0.126 C 
BRANCH  10  12
ATOM     11  C   UNL     1       2.722   3.768  -8.555  0.00  0.00    +0.108 C 
ATOM     12  N   UNL     1       2.662   4.649  -9.322  0.00  0.00    -0.213 NA
ENDBRANCH  10  12
ENDBRANCH   8  10
ENDBRANCH   1   8
TORSDOF 3
ENDMDL
MODEL 5
REMARK VINA RESULT:      -5.1      6.847      8.743
REMARK  Name = 
REMARK  3 active torsions:
REMARK  status: ('A' for Active; 'I' for Inactive)
REMARK    1  A    between atoms: N_2  and  C_3
REMARK    2  A    between atoms: C_3  and  C_4
REMARK    3  A    between atoms: C_4  and  C_6
REMARK                            x       y       z     vdW  Elec       q    Type
REMARK                         _______ _______ _______ _____ _____    ______ ____
ROOT
ATOM      1  C   UNL     1      -1.266   5.623  -4.860  0.00  0.00    +0.012 A 
ATOM      2  C   UNL     1       0.084   5.327  -4.659  0.00  0.00    +0.040 A 
ATOM      3  C   UNL     1       0.941   5.068  -5.708  0.00  0.00    +0.196 A 
ATOM      4  O   UNL     1       2.240   4.634  -5.574  0.00  0.00    -0.287 OA
ATOM      5  C   UNL     1       0.443   5.087  -7.005  0.00  0.00    +0.042 A 
ATOM      6  C   UNL     1      -0.898   5.340  -7.220  0.00  0.00    +0.003 A 
ATOM      7  C   UNL     1      -1.594   5.841  -6.153  0.00  0.00    -0.002 A 
ENDROOT
BRANCH   1   8
ATOM      8  C   UNL     1      -1.836   6.635  -3.729  0.00  0.00    +0.192 C 
ATOM      9  O   UNL     1      -2.731   7.426  -4.677  0.00  0.00    -0.217 OA
BRANCH   8  10
ATOM     10  C   UNL     1      -3.090   5.617  -3.365  0.00  0.00    +0.126 C 
BRANCH  10  12
ATOM     11  C   UNL     1      -2.158   5.725  -1.470  0.00  0.00    +0.108 C 
ATOM     12  N   UNL     1      -2.620   4.920  -2.182  0.00  0.00    -0.213 NA
ENDBRANCH  10  12
ENDBRANCH   8  10
ENDBRANCH   1   8
TORSDOF 3
ENDMDL
MODEL 6
REMARK VINA RESULT:      -4.9      2.128      2.533
REMARK  Name = 
REMARK  3 active torsions:
REMARK  status: ('A' for Active; 'I' for Inactive)
REMARK    1  A    between atoms: N_2  and  C_3
REMARK    2  A    between atoms: C_3  and  C_4
REMARK    3  A    between atoms: C_4  and  C_6
REMARK                            x       y       z     vdW  Elec       q    Type
REMARK                         _______ _______ _______ _____ _____    ______ ____
ROOT
ATOM      1  C   UNL     1       5.077   6.015  -9.628  0.00  0.00    +0.012 A 
ATOM      2  C   UNL     1       5.149   7.013 -10.602  0.00  0.00    +0.040 A 
ATOM      3  C   UNL     1       6.352   7.524 -11.041  0.00  0.00    +0.196 A 
ATOM      4  O   UNL     1       6.488   8.598 -11.889  0.00  0.00    -0.287 OA
ATOM      5  C   UNL     1       7.531   7.041 -10.486  0.00  0.00    +0.042 A 
ATOM      6  C   UNL     1       7.478   6.081  -9.493  0.00  0.00    +0.003 A 
ATOM      7  C   UNL     1       6.270   5.459  -9.323  0.00  0.00    -0.002 A 
ENDROOT
BRANCH   1   8
ATOM      8  C   UNL     1       3.797   5.045  -9.852  0.00  0.00    +0.192 C 
ATOM      9  O   UNL     1       3.032   5.525  -8.623  0.00  0.00    -0.217 OA
BRANCH   8  10
ATOM     10  C   UNL     1       3.031   6.173 -10.791  0.00  0.00    +0.126 C 
BRANCH  10  12
ATOM     11  C   UNL     1       1.112   6.294 -11.670  0.00  0.00    +0.108 C 
ATOM     12  N   UNL     1       1.658   5.703 -10.821  0.00  0.00    -0.213 NA
ENDBRANCH  10  12
ENDBRANCH   8  10
ENDBRANCH   1   8
TORSDOF 3
ENDMDL
MODEL 7
REMARK VINA RESULT:      -4.9      2.068      2.144
REMARK  Name = 
REMARK  3 active torsions:
REMARK  status: ('A' for Active; 'I' for Inactive)
REMARK    1  A    between atoms: N_2  and  C_3
REMARK    2  A    between atoms: C_3  and  C_4
REMARK    3  A    between atoms: C_4  and  C_6
REMARK                            x       y       z     vdW  Elec       q    Type
REMARK                         _______ _______ _______ _____ _____    ______ ____
ROOT
ATOM      1  C   UNL     1       4.775   6.431 -10.280  0.00  0.00    +0.012 A 
ATOM      2  C   UNL     1       5.762   5.651  -9.672  0.00  0.00    +0.040 A 
ATOM      3  C   UNL     1       7.106   5.913  -9.834  0.00  0.00    +0.196 A 
ATOM      4  O   UNL     1       8.125   5.107  -9.381  0.00  0.00    -0.287 OA
ATOM      5  C   UNL     1       7.493   6.977 -10.640  0.00  0.00    +0.042 A 
ATOM      6  C   UNL     1       6.532   7.736 -11.280  0.00  0.00    +0.003 A 
ATOM      7  C   UNL     1       5.244   7.565 -10.848  0.00  0.00    -0.002 A 
ENDROOT
BRANCH   1   8
ATOM      8  C   UNL     1       3.428   6.507  -9.382  0.00  0.00    +0.192 C 
ATOM      9  O   UNL     1       2.490   6.020 -10.482  0.00  0.00    -0.217 OA
BRANCH   8  10
ATOM     10  C   UNL     1       3.628   4.955  -8.842  0.00  0.00    +0.126 C 
BRANCH  10  12
ATOM     11  C   UNL     1       2.333   4.112  -7.400  0.00  0.00    +0.108 C 
ATOM     12  N   UNL     1       3.089   4.999  -7.495  0.00  0.00    -0.213 NA
ENDBRANCH  10  12
ENDBRANCH   8  10
ENDBRANCH   1   8
TORSDOF 3
ENDMDL
MODEL 8
REMARK VINA RESULT:      -4.8      2.544      2.846
REMARK  Name = 
REMARK  3 active torsions:
REMARK  status: ('A' for Active; 'I' for Inactive)
REMARK    1  A    between atoms: N_2  and  C_3
REMARK    2  A    between atoms: C_3  and  C_4
REMARK    3  A    between atoms: C_4  and  C_6
REMARK                            x       y       z     vdW  Elec       q    Type
REMARK                         _______ _______ _______ _____ _____    ______ ____
ROOT
ATOM      1  C   UNL     1       4.329   5.829  -8.951  0.00  0.00    +0.012 A 
ATOM      2  C   UNL     1       5.638   5.376  -8.772  0.00  0.00    +0.040 A 
ATOM      3  C   UNL     1       6.672   5.783  -9.587  0.00  0.00    +0.196 A 
ATOM      4  O   UNL     1       7.949   5.270  -9.554  0.00  0.00    -0.287 OA
ATOM      5  C   UNL     1       6.402   6.660 -10.631  0.00  0.00    +0.042 A 
ATOM      6  C   UNL     1       5.107   7.089 -10.847  0.00  0.00    +0.003 A 
ATOM      7  C   UNL     1       4.216   6.844  -9.837  0.00  0.00    -0.002 A 
ENDROOT
BRANCH   1   8
ATOM      8  C   UNL     1       3.527   5.926  -7.546  0.00  0.00    +0.192 C 
ATOM      9  O   UNL     1       2.883   7.278  -7.837  0.00  0.00    -0.217 OA
BRANCH   8  10
ATOM     10  C   UNL     1       2.210   5.145  -8.174  0.00  0.00    +0.126 C 
BRANCH  10  12
ATOM     11  C   UNL     1       2.098   3.873  -6.489  0.00  0.00    +0.108 C 
ATOM     12  N   UNL     1       2.330   3.803  -7.634  0.00  0.00    -0.213 NA
ENDBRANCH  10  12
ENDBRANCH   8  10
ENDBRANCH   1   8
TORSDOF 3
ENDMDL
MODEL 9
REMARK VINA RESULT:      -4.7      2.750      5.023
REMARK  Name = 
REMARK  3 active torsions:
REMARK  status: ('A' for Active; 'I' for Inactive)
REMARK    1  A    between atoms: N_2  and  C_3
REMARK    2  A    between atoms: C_3  and  C_4
REMARK    3  A    between atoms: C_4  and  C_6
REMARK                            x       y       z     vdW  Elec       q    Type
REMARK                         _______ _______ _______ _____ _____    ______ ____
ROOT
ATOM      1  C   UNL     1       4.366   5.917  -9.565  0.00  0.00    +0.012 A 
ATOM      2  C   UNL     1       3.447   6.949  -9.361  0.00  0.00    +0.040 A 
ATOM      3  C   UNL     1       3.040   7.329  -8.100  0.00  0.00    +0.196 A 
ATOM      4  O   UNL     1       2.040   8.236  -7.835  0.00  0.00    -0.287 OA
ATOM      5  C   UNL     1       3.547   6.653  -6.996  0.00  0.00    +0.042 A 
ATOM      6  C   UNL     1       4.428   5.604  -7.181  0.00  0.00    +0.003 A 
ATOM      7  C   UNL     1       4.966   5.485  -8.434  0.00  0.00    -0.002 A 
ENDROOT
BRANCH   1   8
ATOM      8  C   UNL     1       5.275   6.172 -10.883  0.00  0.00    +0.192 C 
ATOM      9  O   UNL     1       5.325   7.689 -10.737  0.00  0.00    -0.217 OA
BRANCH   8  10
ATOM     10  C   UNL     1       6.679   6.025 -10.017  0.00  0.00    +0.126 C 
BRANCH  10  12
ATOM     11  C   UNL     1       7.964   5.175 -11.464  0.00  0.00    +0.108 C 
ATOM     12  N   UNL     1       7.710   6.226 -11.018  0.00  0.00    -0.213 NA
ENDBRANCH  10  12
ENDBRANCH   8  10
ENDBRANCH   1   8
TORSDOF 3
ENDMDL
