MODEL 1
REMARK VINA RESULT:      -3.1      0.000      0.000
REMARK  Name = 
REMARK  1 active torsions:
REMARK  status: ('A' for Active; 'I' for Inactive)
REMARK    1  A    between atoms: C_2  and  C_3
REMARK                            x       y       z     vdW  Elec       q    Type
REMARK                         _______ _______ _______ _____ _____    ______ ____
ROOT
ATOM      1  C   UNL     1       7.560   6.220 -13.032  0.00  0.00    +0.161 C 
ATOM      2  O   UNL     1       7.803   4.671 -12.650  0.00  0.00    -0.350 OA
ATOM      3  C   UNL     1       8.929   5.747 -12.256  0.00  0.00    +0.173 C 
ENDROOT
BRANCH   1   5
ATOM      4 CL   UNL     1       6.430   8.196 -11.478  0.00  0.00    -0.111 Cl
ATOM      5  C   UNL     1       6.667   6.532 -11.643  0.00  0.00    +0.127 C 
ENDBRANCH   1   5
TORSDOF 1
ENDMDL
MODEL 2
REMARK VINA RESULT:      -2.9      1.743      1.972
REMARK  Name = 
REMARK  1 active torsions:
REMARK  status: ('A' for Active; 'I' for Inactive)
REMARK    1  A    between atoms: C_2  and  C_3
REMARK                            x       y       z     vdW  Elec       q    Type
REMARK                         _______ _______ _______ _____ _____    ______ ____
ROOT
ATOM      1  C   UNL     1       6.724   5.432 -12.039  0.00  0.00    +0.161 C 
ATOM      2  O   UNL     1       7.762   4.618 -12.968  0.00  0.00    -0.350 OA
ATOM      3  C   UNL     1       7.371   6.120 -13.383  0.00  0.00    +0.173 C 
ENDROOT
BRANCH   1   5
ATOM      4 CL   UNL     1       7.366   5.828  -9.388  0.00  0.00    -0.111 Cl
ATOM      5  C   UNL     1       7.918   5.956 -10.979  0.00  0.00    +0.127 C 
ENDBRANCH   1   5
TORSDOF 1
ENDMDL
MODEL 3
REMARK VINA RESULT:      -2.9     12.992     13.374
REMARK  Name = 
REMARK  1 active torsions:
REMARK  status: ('A' for Active; 'I' for Inactive)
REMARK    1  A    between atoms: C_2  and  C_3
REMARK                            x       y       z     vdW  Elec       q    Type
REMARK                         _______ _______ _______ _____ _____    ______ ____
ROOT
ATOM      1  C   UNL     1      -1.635   5.626  -3.226  0.00  0.00    +0.161 C 
ATOM      2  O   UNL     1      -2.814   4.645  -2.723  0.00  0.00    -0.350 OA
ATOM      3  C   UNL     1      -2.180   5.687  -1.677  0.00  0.00    +0.173 C 
ENDROOT
BRANCH   1   5
ATOM      4 CL   UNL     1      -1.841   8.088  -4.446  0.00  0.00    -0.111 Cl
ATOM      5  C   UNL     1      -2.703   6.771  -3.835  0.00  0.00    +0.127 C 
ENDBRANCH   1   5
TORSDOF 1
ENDMDL
MODEL 4
REMARK VINA RESULT:      -2.7     13.897     14.259
REMARK  Name = 
REMARK  1 active torsions:
REMARK  status: ('A' for Active; 'I' for Inactive)
REMARK    1  A    between atoms: C_2  and  C_3
REMARK                            x       y       z     vdW  Elec       q    Type
REMARK                         _______ _______ _______ _____ _____    ______ ____
ROOT
ATOM      1  C   UNL     1      -3.444   6.293  -2.622  0.00  0.00    +0.161 C 
ATOM      2  O   UNL     1      -2.758   4.906  -2.163  0.00  0.00    -0.350 OA
ATOM      3  C   UNL     1      -2.683   5.327  -3.712  0.00  0.00    +0.173 C 
ENDROOT
BRANCH   1   5
ATOM      4 CL   UNL     1      -2.061   7.495  -0.563  0.00  0.00    -0.111 Cl
ATOM      5  C   UNL     1      -2.094   7.213  -2.227  0.00  0.00    +0.127 C 
ENDBRANCH   1   5
TORSDOF 1
ENDMDL
MODEL 5
REMARK VINA RESULT:      -2.6      1.619      2.188
REMARK  Name = 
REMARK  1 active torsions:
REMARK  status: ('A' for Active; 'I' for Inactive)
REMARK    1  A    between atoms: C_2  and  C_3
REMARK                            x       y       z     vdW  Elec       q    Type
REMARK                         _______ _______ _______ _____ _____    ______ ____
ROOT
ATOM      1  C   UNL     1       6.291   5.523 -12.041  0.00  0.00    +0.161 C 
ATOM      2  O   UNL     1       6.368   4.827 -13.495  0.00  0.00    -0.350 OA
ATOM      3  C   UNL     1       4.926   5.207 -12.898  0.00  0.00    +0.173 C 
ENDROOT
BRANCH   1   5
ATOM      4 CL   UNL     1       6.431   8.200 -11.402  0.00  0.00    -0.111 Cl
ATOM      5  C   UNL     1       6.530   7.070 -12.652  0.00  0.00    +0.127 C 
ENDBRANCH   1   5
TORSDOF 1
ENDMDL
MODEL 6
REMARK VINA RESULT:      -2.5      2.612      3.132
REMARK  Name = 
REMARK  1 active torsions:
REMARK  status: ('A' for Active; 'I' for Inactive)
REMARK    1  A    between atoms: C_2  and  C_3
REMARK                            x       y       z     vdW  Elec       q    Type
REMARK                         _______ _______ _______ _____ _____    ______ ____
ROOT
ATOM      1  C   UNL     1       7.019   6.705 -10.731  0.00  0.00    +0.161 C 
ATOM      2  O   UNL     1       7.521   6.071  -9.335  0.00  0.00    -0.350 OA
ATOM      3  C   UNL     1       6.016   5.781  -9.815  0.00  0.00    +0.173 C 
ENDROOT
BRANCH   1   5
ATOM      4 CL   UNL     1       9.175   5.842 -12.216  0.00  0.00    -0.111 Cl
ATOM      5  C   UNL     1       7.636   5.440 -11.649  0.00  0.00    +0.127 C 
ENDBRANCH   1   5
TORSDOF 1
ENDMDL
MODEL 7
REMARK VINA RESULT:      -2.4     10.544     10.939
REMARK  Name = 
REMARK  1 active torsions:
REMARK  status: ('A' for Active; 'I' for Inactive)
REMARK    1  A    between atoms: C_2  and  C_3
REMARK                            x       y       z     vdW  Elec       q    Type
REMARK                         _______ _______ _______ _____ _____    ______ ____
ROOT
ATOM      1  C   UNL     1      -1.325   5.715  -5.078  0.00  0.00    +0.161 C 
ATOM      2  O   UNL     1       0.071   5.031  -5.511  0.00  0.00    -0.350 OA
ATOM      3  C   UNL     1      -0.972   5.445  -6.660  0.00  0.00    +0.173 C 
ENDROOT
BRANCH   1   5
ATOM      4 CL   UNL     1      -1.844   8.358  -4.497  0.00  0.00    -0.111 Cl
ATOM      5  C   UNL     1      -0.669   7.260  -5.011  0.00  0.00    +0.127 C 
ENDBRANCH   1   5
TORSDOF 1
ENDMDL
MODEL 8
REMARK VINA RESULT:      -2.4      9.521      9.686
REMARK  Name = 
REMARK  1 active torsions:
REMARK  status: ('A' for Active; 'I' for Inactive)
REMARK    1  A    between atoms: C_2  and  C_3
REMARK                            x       y       z     vdW  Elec       q    Type
REMARK                         _______ _______ _______ _____ _____    ______ ____
ROOT
ATOM      1  C   UNL     1       0.253   5.866  -6.384  0.00  0.00    +0.161 C 
ATOM      2  O   UNL     1       1.224   5.080  -7.405  0.00  0.00    -0.350 OA
ATOM      3  C   UNL     1       0.962   4.448  -5.951  0.00  0.00    +0.173 C 
ENDROOT
BRANCH   1   5
ATOM      4 CL   UNL     1      -2.502   5.922  -6.344  0.00  0.00    -0.111 Cl
ATOM      5  C   UNL     1      -1.144   5.180  -7.018  0.00  0.00    +0.127 C 
ENDBRANCH   1   5
TORSDOF 1
ENDMDL
MODEL 9
REMARK VINA RESULT:      -2.3      4.423      4.870
REMARK  Name = 
REMARK  1 active torsions:
REMARK  status: ('A' for Active; 'I' for Inactive)
REMARK    1  A    between atoms: C_2  and  C_3
REMARK                            x       y       z     vdW  Elec       q    Type
REMARK                         _______ _______ _______ _____ _____    ______ ____
ROOT
ATOM      1  C   UNL     1       4.502   5.087  -9.891  0.00  0.00    +0.161 C 
ATOM      2  O   UNL     1       3.338   5.822  -9.048  0.00  0.00    -0.350 OA
ATOM      3  C   UNL     1       3.493   4.228  -8.920  0.00  0.00    +0.173 C 
ENDROOT
BRANCH   1   5
ATOM      4 CL   UNL     1       7.114   5.854  -9.462  0.00  0.00    -0.111 Cl
ATOM      5  C   UNL     1       5.675   5.370  -8.723  0.00  0.00    +0.127 C 
ENDBRANCH   1   5
TORSDOF 1
ENDMDL
