MODEL 1
REMARK VINA RESULT:      -8.8      0.000      0.000
REMARK  Name = 
REMARK  6 active torsions:
REMARK  status: ('A' for Active; 'I' for Inactive)
REMARK    1  A    between atoms: C_9  and  C_10
REMARK    2  A    between atoms: C_10  and  O_12
REMARK    3  A    between atoms: O_12  and  C_13
REMARK    4  A    between atoms: C_13  and  C_14
REMARK    5  A    between atoms: C_14  and  N_15
REMARK    6  A    between atoms: C_23  and  C_24
REMARK                            x       y       z     vdW  Elec       q    Type
REMARK                         _______ _______ _______ _____ _____    ______ ____
ROOT
ATOM      1  C   UNL     1       1.496   4.628  -1.021  0.00  0.00    +0.038 C 
ATOM      2  C   UNL     1       0.784   5.176  -2.191  0.00  0.00    +0.052 A 
ATOM      3  C   UNL     1       1.562   5.503  -3.295  0.00  0.00    +0.144 A 
ATOM      4  O   UNL     1       0.889   5.751  -4.404  0.00  0.00    -0.453 OA
ATOM      5  C   UNL     1      -0.415   5.963  -4.361  0.00  0.00    +0.154 A 
ATOM      6  C   UNL     1      -1.094   6.177  -3.172  0.00  0.00    +0.073 A 
ATOM      7  C   UNL     1      -2.117   7.104  -3.087  0.00  0.00    +0.006 A 
ATOM      8  C   UNL     1      -2.630   7.620  -4.272  0.00  0.00    +0.001 A 
ATOM      9  C   UNL     1      -2.208   7.055  -5.469  0.00  0.00    +0.010 A 
ATOM     10  C   UNL     1      -1.045   6.308  -5.550  0.00  0.00    +0.110 A 
ATOM     11  C   UNL     1      -0.507   5.638  -2.034  0.00  0.00    +0.197 A 
ATOM     12  O   UNL     1      -1.132   5.649  -0.956  0.00  0.00    -0.287 OA
ENDROOT
BRANCH   3  13
ATOM     13  C   UNL     1       2.943   5.984  -3.156  0.00  0.00    +0.034 A 
ATOM     14  C   UNL     1       3.172   7.308  -2.878  0.00  0.00    +0.003 A 
ATOM     15  C   UNL     1       4.284   7.997  -3.345  0.00  0.00    +0.000 A 
ATOM     16  C   UNL     1       5.178   7.335  -4.173  0.00  0.00    +0.000 A 
ATOM     17  C   UNL     1       5.144   5.947  -4.108  0.00  0.00    +0.000 A 
ATOM     18  C   UNL     1       4.023   5.264  -3.651  0.00  0.00    +0.003 A 
ENDBRANCH   3  13
BRANCH  10  19
ATOM     19  C   UNL     1      -0.674   5.559  -6.753  0.00  0.00    +0.344 C 
ATOM     20  O   UNL     1      -1.446   4.625  -7.125  0.00  0.00    -0.245 OA
BRANCH  19  21
ATOM     21  O   UNL     1       0.147   6.106  -7.714  0.00  0.00    -0.444 OA
BRANCH  21  22
ATOM     22  C   UNL     1       0.501   5.362  -8.866  0.00  0.00    +0.226 C 
BRANCH  22  23
ATOM     23  C   UNL     1       1.933   4.864  -8.802  0.00  0.00    +0.120 C 
BRANCH  23  24
ATOM     24  N   UNL     1       2.786   5.729  -9.611  0.00  0.00    -0.270 NA
ATOM     25  C   UNL     1       3.983   5.001  -9.944  0.00  0.00    +0.072 C 
ATOM     26  C   UNL     1       5.124   5.390  -9.045  0.00  0.00    +0.017 C 
ATOM     27  C   UNL     1       4.606   5.358  -7.623  0.00  0.00    +0.003 C 
ATOM     28  C   UNL     1       3.629   6.502  -7.430  0.00  0.00    +0.017 C 
ATOM     29  C   UNL     1       3.103   6.883  -8.785  0.00  0.00    +0.072 C 
ENDBRANCH  23  24
ENDBRANCH  22  23
ENDBRANCH  21  22
ENDBRANCH  19  21
ENDBRANCH  10  19
TORSDOF 6
ENDMDL
MODEL 2
REMARK VINA RESULT:      -8.5      3.420      7.794
REMARK  Name = 
REMARK  6 active torsions:
REMARK  status: ('A' for Active; 'I' for Inactive)
REMARK    1  A    between atoms: C_9  and  C_10
REMARK    2  A    between atoms: C_10  and  O_12
REMARK    3  A    between atoms: O_12  and  C_13
REMARK    4  A    between atoms: C_13  and  C_14
REMARK    5  A    between atoms: C_14  and  N_15
REMARK    6  A    between atoms: C_23  and  C_24
REMARK                            x       y       z     vdW  Elec       q    Type
REMARK                         _______ _______ _______ _____ _____    ______ ____
ROOT
ATOM      1  C   UNL     1       0.913   4.254  -6.183  0.00  0.00    +0.038 C 
ATOM      2  C   UNL     1       1.729   4.962  -5.178  0.00  0.00    +0.052 A 
ATOM      3  C   UNL     1       1.060   5.437  -4.056  0.00  0.00    +0.144 A 
ATOM      4  O   UNL     1       1.836   5.840  -3.067  0.00  0.00    -0.453 OA
ATOM      5  C   UNL     1       3.125   6.050  -3.271  0.00  0.00    +0.154 A 
ATOM      6  C   UNL     1       3.677   6.099  -4.542  0.00  0.00    +0.073 A 
ATOM      7  C   UNL     1       4.668   7.010  -4.858  0.00  0.00    +0.006 A 
ATOM      8  C   UNL     1       5.288   7.689  -3.815  0.00  0.00    +0.001 A 
ATOM      9  C   UNL     1       5.000   7.294  -2.514  0.00  0.00    +0.010 A 
ATOM     10  C   UNL     1       3.865   6.561  -2.213  0.00  0.00    +0.110 A 
ATOM     11  C   UNL     1       2.989   5.404  -5.529  0.00  0.00    +0.197 A 
ATOM     12  O   UNL     1       3.502   5.268  -6.656  0.00  0.00    -0.287 OA
ENDROOT
BRANCH   3  13
ATOM     13  C   UNL     1      -0.337   5.887  -4.119  0.00  0.00    +0.034 A 
ATOM     14  C   UNL     1      -0.641   7.056  -4.771  0.00  0.00    +0.003 A 
ATOM     15  C   UNL     1      -1.680   7.891  -4.380  0.00  0.00    +0.000 A 
ATOM     16  C   UNL     1      -2.410   7.560  -3.249  0.00  0.00    +0.000 A 
ATOM     17  C   UNL     1      -2.353   6.226  -2.864  0.00  0.00    +0.000 A 
ATOM     18  C   UNL     1      -1.304   5.400  -3.249  0.00  0.00    +0.003 A 
ENDBRANCH   3  13
BRANCH  10  19
ATOM     19  C   UNL     1       3.631   5.984  -0.886  0.00  0.00    +0.344 C 
ATOM     20  O   UNL     1       4.199   4.885  -0.614  0.00  0.00    -0.245 OA
BRANCH  19  21
ATOM     21  O   UNL     1       3.255   6.770   0.182  0.00  0.00    -0.444 OA
BRANCH  21  22
ATOM     22  C   UNL     1       2.325   7.823   0.008  0.00  0.00    +0.226 C 
BRANCH  22  23
ATOM     23  C   UNL     1       1.494   8.057   1.255  0.00  0.00    +0.120 C 
BRANCH  23  24
ATOM     24  N   UNL     1       0.564   6.946   1.436  0.00  0.00    -0.270 NA
ATOM     25  C   UNL     1      -0.270   6.858   0.265  0.00  0.00    +0.072 C 
ATOM     26  C   UNL     1      -1.611   7.495   0.503  0.00  0.00    +0.017 C 
ATOM     27  C   UNL     1      -1.360   8.846   1.138  0.00  0.00    +0.003 C 
ATOM     28  C   UNL     1      -0.838   8.638   2.546  0.00  0.00    +0.017 C 
ATOM     29  C   UNL     1      -0.234   7.264   2.609  0.00  0.00    +0.072 C 
ENDBRANCH  23  24
ENDBRANCH  22  23
ENDBRANCH  21  22
ENDBRANCH  19  21
ENDBRANCH  10  19
TORSDOF 6
ENDMDL
MODEL 3
REMARK VINA RESULT:      -8.4      4.248      7.242
REMARK  Name = 
REMARK  6 active torsions:
REMARK  status: ('A' for Active; 'I' for Inactive)
REMARK    1  A    between atoms: C_9  and  C_10
REMARK    2  A    between atoms: C_10  and  O_12
REMARK    3  A    between atoms: O_12  and  C_13
REMARK    4  A    between atoms: C_13  and  C_14
REMARK    5  A    between atoms: C_14  and  N_15
REMARK    6  A    between atoms: C_23  and  C_24
REMARK                            x       y       z     vdW  Elec       q    Type
REMARK                         _______ _______ _______ _____ _____    ______ ____
ROOT
ATOM      1  C   UNL     1      -0.172   5.726  -8.782  0.00  0.00    +0.038 C 
ATOM      2  C   UNL     1       0.487   5.869 -10.093  0.00  0.00    +0.052 A 
ATOM      3  C   UNL     1       1.866   5.698 -10.119  0.00  0.00    +0.144 A 
ATOM      4  O   UNL     1       2.396   5.582 -11.323  0.00  0.00    -0.453 OA
ATOM      5  C   UNL     1       1.698   5.913 -12.395  0.00  0.00    +0.154 A 
ATOM      6  C   UNL     1       0.502   6.608 -12.317  0.00  0.00    +0.073 A 
ATOM      7  C   UNL     1       0.183   7.592 -13.237  0.00  0.00    +0.006 A 
ATOM      8  C   UNL     1       0.954   7.683 -14.389  0.00  0.00    +0.001 A 
ATOM      9  C   UNL     1       1.887   6.683 -14.633  0.00  0.00    +0.010 A 
ATOM     10  C   UNL     1       2.346   5.855 -13.622  0.00  0.00    +0.110 A 
ATOM     11  C   UNL     1      -0.202   6.473 -11.127  0.00  0.00    +0.197 A 
ATOM     12  O   UNL     1      -1.355   6.935 -11.038  0.00  0.00    -0.287 OA
ENDROOT
BRANCH   3  13
ATOM     13  C   UNL     1       2.715   6.067  -8.979  0.00  0.00    +0.034 A 
ATOM     14  C   UNL     1       3.356   5.083  -8.269  0.00  0.00    +0.003 A 
ATOM     15  C   UNL     1       3.607   5.177  -6.905  0.00  0.00    +0.000 A 
ATOM     16  C   UNL     1       3.144   6.289  -6.218  0.00  0.00    +0.000 A 
ATOM     17  C   UNL     1       2.872   7.408  -6.996  0.00  0.00    +0.000 A 
ATOM     18  C   UNL     1       2.609   7.305  -8.357  0.00  0.00    +0.003 A 
ENDBRANCH   3  13
BRANCH  10  19
ATOM     19  C   UNL     1       3.191   4.687 -13.885  0.00  0.00    +0.344 C 
ATOM     20  O   UNL     1       2.712   3.768 -14.614  0.00  0.00    -0.245 OA
BRANCH  19  21
ATOM     21  O   UNL     1       4.564   4.760 -13.801  0.00  0.00    -0.444 OA
BRANCH  21  22
ATOM     22  C   UNL     1       5.236   5.980 -14.054  0.00  0.00    +0.226 C 
BRANCH  22  23
ATOM     23  C   UNL     1       6.104   6.403 -12.885  0.00  0.00    +0.120 C 
BRANCH  23  24
ATOM     24  N   UNL     1       6.348   5.254 -12.018  0.00  0.00    -0.270 NA
ATOM     25  C   UNL     1       5.835   5.559 -10.707  0.00  0.00    +0.072 C 
ATOM     26  C   UNL     1       6.936   5.987  -9.777  0.00  0.00    +0.017 C 
ATOM     27  C   UNL     1       7.765   7.020 -10.510  0.00  0.00    +0.003 C 
ATOM     28  C   UNL     1       8.526   6.336 -11.629  0.00  0.00    +0.017 C 
ATOM     29  C   UNL     1       7.789   5.071 -11.972  0.00  0.00    +0.072 C 
ENDBRANCH  23  24
ENDBRANCH  22  23
ENDBRANCH  21  22
ENDBRANCH  19  21
ENDBRANCH  10  19
TORSDOF 6
ENDMDL
MODEL 4
REMARK VINA RESULT:      -8.2      5.538      8.119
REMARK  Name = 
REMARK  6 active torsions:
REMARK  status: ('A' for Active; 'I' for Inactive)
REMARK    1  A    between atoms: C_9  and  C_10
REMARK    2  A    between atoms: C_10  and  O_12
REMARK    3  A    between atoms: O_12  and  C_13
REMARK    4  A    between atoms: C_13  and  C_14
REMARK    5  A    between atoms: C_14  and  N_15
REMARK    6  A    between atoms: C_23  and  C_24
REMARK                            x       y       z     vdW  Elec       q    Type
REMARK                         _______ _______ _______ _____ _____    ______ ____
ROOT
ATOM      1  C   UNL     1       3.735   4.394  -8.911  0.00  0.00    +0.038 C 
ATOM      2  C   UNL     1       3.032   5.092 -10.004  0.00  0.00    +0.052 A 
ATOM      3  C   UNL     1       3.827   5.649 -10.999  0.00  0.00    +0.144 A 
ATOM      4  O   UNL     1       3.180   6.044 -12.080  0.00  0.00    -0.453 OA
ATOM      5  C   UNL     1       1.865   6.170 -12.064  0.00  0.00    +0.154 A 
ATOM      6  C   UNL     1       1.130   6.136 -10.889  0.00  0.00    +0.073 A 
ATOM      7  C   UNL     1       0.046   6.974 -10.697  0.00  0.00    +0.006 A 
ATOM      8  C   UNL     1      -0.456   7.656 -11.800  0.00  0.00    +0.001 A 
ATOM      9  C   UNL     1       0.046   7.330 -13.054  0.00  0.00    +0.010 A 
ATOM     10  C   UNL     1       1.257   6.677 -13.205  0.00  0.00    +0.110 A 
ATOM     11  C   UNL     1       1.708   5.445  -9.832  0.00  0.00    +0.197 A 
ATOM     12  O   UNL     1       1.045   5.234  -8.799  0.00  0.00    -0.287 OA
ENDROOT
BRANCH   3  13
ATOM     13  C   UNL     1       5.168   6.178 -10.715  0.00  0.00    +0.034 A 
ATOM     14  C   UNL     1       5.415   7.517 -10.888  0.00  0.00    +0.003 A 
ATOM     15  C   UNL     1       6.650   8.011 -11.291  0.00  0.00    +0.000 A 
ATOM     16  C   UNL     1       7.664   7.111 -11.582  0.00  0.00    +0.000 A 
ATOM     17  C   UNL     1       7.522   5.844 -11.031  0.00  0.00    +0.000 A 
ATOM     18  C   UNL     1       6.281   5.351 -10.642  0.00  0.00    +0.003 A 
ENDBRANCH   3  13
BRANCH  10  19
ATOM     19  C   UNL     1       1.720   6.169 -14.499  0.00  0.00    +0.344 C 
ATOM     20  O   UNL     1       0.843   5.897 -15.372  0.00  0.00    -0.245 OA
BRANCH  19  21
ATOM     21  O   UNL     1       2.993   6.428 -14.958  0.00  0.00    -0.444 OA
BRANCH  21  22
ATOM     22  C   UNL     1       3.243   7.543 -15.795  0.00  0.00    +0.226 C 
BRANCH  22  23
ATOM     23  C   UNL     1       4.551   7.404 -16.550  0.00  0.00    +0.120 C 
BRANCH  23  24
ATOM     24  N   UNL     1       5.519   8.365 -16.030  0.00  0.00    -0.270 NA
ATOM     25  C   UNL     1       6.325   8.834 -17.126  0.00  0.00    +0.072 C 
ATOM     26  C   UNL     1       7.652   8.127 -17.168  0.00  0.00    +0.017 C 
ATOM     27  C   UNL     1       7.375   6.646 -17.029  0.00  0.00    +0.003 C 
ATOM     28  C   UNL     1       6.895   6.365 -15.618  0.00  0.00    +0.017 C 
ATOM     29  C   UNL     1       6.335   7.646 -15.066  0.00  0.00    +0.072 C 
ENDBRANCH  23  24
ENDBRANCH  22  23
ENDBRANCH  21  22
ENDBRANCH  19  21
ENDBRANCH  10  19
TORSDOF 6
ENDMDL
MODEL 5
REMARK VINA RESULT:      -8.2      1.399      2.145
REMARK  Name = 
REMARK  6 active torsions:
REMARK  status: ('A' for Active; 'I' for Inactive)
REMARK    1  A    between atoms: C_9  and  C_10
REMARK    2  A    between atoms: C_10  and  O_12
REMARK    3  A    between atoms: O_12  and  C_13
REMARK    4  A    between atoms: C_13  and  C_14
REMARK    5  A    between atoms: C_14  and  N_15
REMARK    6  A    between atoms: C_23  and  C_24
REMARK                            x       y       z     vdW  Elec       q    Type
REMARK                         _______ _______ _______ _____ _____    ______ ____
ROOT
ATOM      1  C   UNL     1       1.643   4.469  -1.021  0.00  0.00    +0.038 C 
ATOM      2  C   UNL     1       0.914   5.055  -2.162  0.00  0.00    +0.052 A 
ATOM      3  C   UNL     1       1.683   5.473  -3.242  0.00  0.00    +0.144 A 
ATOM      4  O   UNL     1       1.004   5.758  -4.338  0.00  0.00    -0.453 OA
ATOM      5  C   UNL     1      -0.307   5.919  -4.290  0.00  0.00    +0.154 A 
ATOM      6  C   UNL     1      -0.996   6.041  -3.094  0.00  0.00    +0.073 A 
ATOM      7  C   UNL     1      -2.053   6.924  -2.962  0.00  0.00    +0.006 A 
ATOM      8  C   UNL     1      -2.582   7.487  -4.118  0.00  0.00    +0.001 A 
ATOM      9  C   UNL     1      -2.137   7.006  -5.343  0.00  0.00    +0.010 A 
ATOM     10  C   UNL     1      -0.947   6.308  -5.460  0.00  0.00    +0.110 A 
ATOM     11  C   UNL     1      -0.394   5.461  -1.985  0.00  0.00    +0.197 A 
ATOM     12  O   UNL     1      -1.021   5.388  -0.911  0.00  0.00    -0.287 OA
ENDROOT
BRANCH   3  13
ATOM     13  C   UNL     1       3.045   5.995  -3.070  0.00  0.00    +0.034 A 
ATOM     14  C   UNL     1       3.224   7.259  -2.566  0.00  0.00    +0.003 A 
ATOM     15  C   UNL     1       4.280   8.079  -2.942  0.00  0.00    +0.000 A 
ATOM     16  C   UNL     1       5.165   7.624  -3.908  0.00  0.00    +0.000 A 
ATOM     17  C   UNL     1       5.199   6.248  -4.093  0.00  0.00    +0.000 A 
ATOM     18  C   UNL     1       4.133   5.435  -3.726  0.00  0.00    +0.003 A 
ENDBRANCH   3  13
BRANCH  10  19
ATOM     19  C   UNL     1      -0.545   5.641  -6.702  0.00  0.00    +0.344 C 
ATOM     20  O   UNL     1      -1.326   4.764  -7.177  0.00  0.00    -0.245 OA
BRANCH  19  21
ATOM     21  O   UNL     1       0.332   6.234  -7.583  0.00  0.00    -0.444 OA
BRANCH  21  22
ATOM     22  C   UNL     1       1.244   5.448  -8.329  0.00  0.00    +0.226 C 
BRANCH  22  23
ATOM     23  C   UNL     1       1.700   6.154  -9.592  0.00  0.00    +0.120 C 
BRANCH  23  24
ATOM     24  N   UNL     1       1.612   5.234 -10.723  0.00  0.00    -0.270 NA
ATOM     25  C   UNL     1       2.260   5.845 -11.854  0.00  0.00    +0.072 C 
ATOM     26  C   UNL     1       1.256   6.459 -12.790  0.00  0.00    +0.017 C 
ATOM     27  C   UNL     1       0.301   7.278 -11.949  0.00  0.00    +0.003 C 
ATOM     28  C   UNL     1      -0.553   6.339 -11.120  0.00  0.00    +0.017 C 
ATOM     29  C   UNL     1       0.196   5.042 -10.987  0.00  0.00    +0.072 C 
ENDBRANCH  23  24
ENDBRANCH  22  23
ENDBRANCH  21  22
ENDBRANCH  19  21
ENDBRANCH  10  19
TORSDOF 6
ENDMDL
MODEL 6
REMARK VINA RESULT:      -8.1      2.329      6.373
REMARK  Name = 
REMARK  6 active torsions:
REMARK  status: ('A' for Active; 'I' for Inactive)
REMARK    1  A    between atoms: C_9  and  C_10
REMARK    2  A    between atoms: C_10  and  O_12
REMARK    3  A    between atoms: O_12  and  C_13
REMARK    4  A    between atoms: C_13  and  C_14
REMARK    5  A    between atoms: C_14  and  N_15
REMARK    6  A    between atoms: C_23  and  C_24
REMARK                            x       y       z     vdW  Elec       q    Type
REMARK                         _______ _______ _______ _____ _____    ______ ____
ROOT
ATOM      1  C   UNL     1       5.067   5.768  -6.361  0.00  0.00    +0.038 C 
ATOM      2  C   UNL     1       4.389   5.893  -5.057  0.00  0.00    +0.052 A 
ATOM      3  C   UNL     1       3.037   5.575  -5.025  0.00  0.00    +0.144 A 
ATOM      4  O   UNL     1       2.516   5.452  -3.818  0.00  0.00    -0.453 OA
ATOM      5  C   UNL     1       3.168   5.900  -2.760  0.00  0.00    +0.154 A 
ATOM      6  C   UNL     1       4.283   6.717  -2.865  0.00  0.00    +0.073 A 
ATOM      7  C   UNL     1       4.489   7.765  -1.987  0.00  0.00    +0.006 A 
ATOM      8  C   UNL     1       3.706   7.820  -0.840  0.00  0.00    +0.001 A 
ATOM      9  C   UNL     1       2.885   6.736  -0.556  0.00  0.00    +0.010 A 
ATOM     10  C   UNL     1       2.523   5.823  -1.532  0.00  0.00    +0.110 A 
ATOM     11  C   UNL     1       5.003   6.609  -4.048  0.00  0.00    +0.197 A 
ATOM     12  O   UNL     1       6.101   7.189  -4.155  0.00  0.00    -0.287 OA
ENDROOT
BRANCH   3  13
ATOM     13  C   UNL     1       2.159   5.804  -6.180  0.00  0.00    +0.034 A 
ATOM     14  C   UNL     1       1.869   4.760  -7.024  0.00  0.00    +0.003 A 
ATOM     15  C   UNL     1       1.652   4.928  -8.386  0.00  0.00    +0.000 A 
ATOM     16  C   UNL     1       1.786   6.197  -8.930  0.00  0.00    +0.000 A 
ATOM     17  C   UNL     1       1.681   7.252  -8.032  0.00  0.00    +0.000 A 
ATOM     18  C   UNL     1       1.912   7.079  -6.672  0.00  0.00    +0.003 A 
ENDBRANCH   3  13
BRANCH  10  19
ATOM     19  C   UNL     1       1.808   4.582  -1.222  0.00  0.00    +0.344 C 
ATOM     20  O   UNL     1       2.350   3.781  -0.404  0.00  0.00    -0.245 OA
BRANCH  19  21
ATOM     21  O   UNL     1       0.443   4.483  -1.377  0.00  0.00    -0.444 OA
BRANCH  21  22
ATOM     22  C   UNL     1      -0.388   5.610  -1.173  0.00  0.00    +0.226 C 
BRANCH  22  23
ATOM     23  C   UNL     1      -0.773   6.276  -2.480  0.00  0.00    +0.120 C 
BRANCH  23  24
ATOM     24  N   UNL     1      -1.311   5.276  -3.397  0.00  0.00    -0.270 NA
ATOM     25  C   UNL     1      -0.972   5.665  -4.742  0.00  0.00    +0.072 C 
ATOM     26  C   UNL     1      -2.133   6.332  -5.424  0.00  0.00    +0.017 C 
ATOM     27  C   UNL     1      -2.682   7.367  -4.466  0.00  0.00    +0.003 C 
ATOM     28  C   UNL     1      -3.346   6.658  -3.303  0.00  0.00    +0.017 C 
ATOM     29  C   UNL     1      -2.752   5.280  -3.212  0.00  0.00    +0.072 C 
ENDBRANCH  23  24
ENDBRANCH  22  23
ENDBRANCH  21  22
ENDBRANCH  19  21
ENDBRANCH  10  19
TORSDOF 6
ENDMDL
MODEL 7
REMARK VINA RESULT:      -8.0      5.649      8.399
REMARK  Name = 
REMARK  6 active torsions:
REMARK  status: ('A' for Active; 'I' for Inactive)
REMARK    1  A    between atoms: C_9  and  C_10
REMARK    2  A    between atoms: C_10  and  O_12
REMARK    3  A    between atoms: O_12  and  C_13
REMARK    4  A    between atoms: C_13  and  C_14
REMARK    5  A    between atoms: C_14  and  N_15
REMARK    6  A    between atoms: C_23  and  C_24
REMARK                            x       y       z     vdW  Elec       q    Type
REMARK                         _______ _______ _______ _____ _____    ______ ____
ROOT
ATOM      1  C   UNL     1       3.651   4.503  -8.604  0.00  0.00    +0.038 C 
ATOM      2  C   UNL     1       2.997   5.154  -9.754  0.00  0.00    +0.052 A 
ATOM      3  C   UNL     1       3.833   5.755 -10.688  0.00  0.00    +0.144 A 
ATOM      4  O   UNL     1       3.251   6.106 -11.820  0.00  0.00    -0.453 OA
ATOM      5  C   UNL     1       1.933   6.152 -11.908  0.00  0.00    +0.154 A 
ATOM      6  C   UNL     1       1.112   6.078 -10.795  0.00  0.00    +0.073 A 
ATOM      7  C   UNL     1      -0.032   6.850 -10.695  0.00  0.00    +0.006 A 
ATOM      8  C   UNL     1      -0.485   7.497 -11.839  0.00  0.00    +0.001 A 
ATOM      9  C   UNL     1       0.131   7.198 -13.047  0.00  0.00    +0.010 A 
ATOM     10  C   UNL     1       1.388   6.618 -13.098  0.00  0.00    +0.110 A 
ATOM     11  C   UNL     1       1.645   5.427  -9.690  0.00  0.00    +0.197 A 
ATOM     12  O   UNL     1       0.916   5.180  -8.710  0.00  0.00    -0.287 OA
ENDROOT
BRANCH   3  13
ATOM     13  C   UNL     1       5.113   6.364 -10.305  0.00  0.00    +0.034 A 
ATOM     14  C   UNL     1       5.515   7.528 -10.912  0.00  0.00    +0.003 A 
ATOM     15  C   UNL     1       6.849   7.833 -11.151  0.00  0.00    +0.000 A 
ATOM     16  C   UNL     1       7.817   6.900 -10.811  0.00  0.00    +0.000 A 
ATOM     17  C   UNL     1       7.436   5.952  -9.869  0.00  0.00    +0.000 A 
ATOM     18  C   UNL     1       6.099   5.642  -9.644  0.00  0.00    +0.003 A 
ENDBRANCH   3  13
BRANCH  10  19
ATOM     19  C   UNL     1       1.981   6.134 -14.347  0.00  0.00    +0.344 C 
ATOM     20  O   UNL     1       2.435   4.951 -14.363  0.00  0.00    -0.245 OA
BRANCH  19  21
ATOM     21  O   UNL     1       1.642   6.685 -15.563  0.00  0.00    -0.444 OA
BRANCH  21  22
ATOM     22  C   UNL     1       2.258   7.878 -16.011  0.00  0.00    +0.226 C 
BRANCH  22  23
ATOM     23  C   UNL     1       1.245   8.975 -16.278  0.00  0.00    +0.120 C 
BRANCH  23  24
ATOM     24  N   UNL     1       1.877  10.278 -16.090  0.00  0.00    -0.270 NA
ATOM     25  C   UNL     1       1.008  11.089 -15.277  0.00  0.00    +0.072 C 
ATOM     26  C   UNL     1       0.211  12.045 -16.120  0.00  0.00    +0.017 C 
ATOM     27  C   UNL     1      -0.373  11.251 -17.269  0.00  0.00    +0.003 C 
ATOM     28  C   UNL     1       0.749  10.842 -18.204  0.00  0.00    +0.017 C 
ATOM     29  C   UNL     1       2.027  10.857 -17.414  0.00  0.00    +0.072 C 
ENDBRANCH  23  24
ENDBRANCH  22  23
ENDBRANCH  21  22
ENDBRANCH  19  21
ENDBRANCH  10  19
TORSDOF 6
ENDMDL
MODEL 8
REMARK VINA RESULT:      -7.9      3.276      6.697
REMARK  Name = 
REMARK  6 active torsions:
REMARK  status: ('A' for Active; 'I' for Inactive)
REMARK    1  A    between atoms: C_9  and  C_10
REMARK    2  A    between atoms: C_10  and  O_12
REMARK    3  A    between atoms: O_12  and  C_13
REMARK    4  A    between atoms: C_13  and  C_14
REMARK    5  A    between atoms: C_14  and  N_15
REMARK    6  A    between atoms: C_23  and  C_24
REMARK                            x       y       z     vdW  Elec       q    Type
REMARK                         _______ _______ _______ _____ _____    ______ ____
ROOT
ATOM      1  C   UNL     1       3.691   6.962  -6.581  0.00  0.00    +0.038 C 
ATOM      2  C   UNL     1       2.303   6.820  -6.105  0.00  0.00    +0.052 A 
ATOM      3  C   UNL     1       2.103   6.916  -4.732  0.00  0.00    +0.144 A 
ATOM      4  O   UNL     1       0.844   7.037  -4.355  0.00  0.00    -0.453 OA
ATOM      5  C   UNL     1      -0.137   6.777  -5.202  0.00  0.00    +0.154 A 
ATOM      6  C   UNL     1       0.080   6.147  -6.418  0.00  0.00    +0.073 A 
ATOM      7  C   UNL     1      -0.812   5.211  -6.910  0.00  0.00    +0.006 A 
ATOM      8  C   UNL     1      -2.056   5.111  -6.298  0.00  0.00    +0.001 A 
ATOM      9  C   UNL     1      -2.397   6.064  -5.347  0.00  0.00    +0.010 A 
ATOM     10  C   UNL     1      -1.436   6.834  -4.714  0.00  0.00    +0.110 A 
ATOM     11  C   UNL     1       1.354   6.287  -6.954  0.00  0.00    +0.197 A 
ATOM     12  O   UNL     1       1.581   5.887  -8.112  0.00  0.00    -0.287 OA
ENDROOT
BRANCH   3  13
ATOM     13  C   UNL     1       3.115   6.466  -3.768  0.00  0.00    +0.034 A 
ATOM     14  C   UNL     1       3.099   5.165  -3.332  0.00  0.00    +0.003 A 
ATOM     15  C   UNL     1       3.496   4.792  -2.053  0.00  0.00    +0.000 A 
ATOM     16  C   UNL     1       3.876   5.782  -1.159  0.00  0.00    +0.000 A 
ATOM     17  C   UNL     1       4.258   6.992  -1.726  0.00  0.00    +0.000 A 
ATOM     18  C   UNL     1       3.846   7.363  -3.001  0.00  0.00    +0.003 A 
ENDBRANCH   3  13
BRANCH  10  19
ATOM     19  C   UNL     1      -1.780   7.961  -3.843  0.00  0.00    +0.344 C 
ATOM     20  O   UNL     1      -1.993   9.084  -4.390  0.00  0.00    -0.245 OA
BRANCH  19  21
ATOM     21  O   UNL     1      -2.335   7.762  -2.598  0.00  0.00    -0.444 OA
BRANCH  21  22
ATOM     22  C   UNL     1      -1.618   7.069  -1.593  0.00  0.00    +0.226 C 
BRANCH  22  23
ATOM     23  C   UNL     1      -2.090   7.442  -0.200  0.00  0.00    +0.120 C 
BRANCH  23  24
ATOM     24  N   UNL     1      -1.328   8.590   0.282  0.00  0.00    -0.270 NA
ATOM     25  C   UNL     1       0.012   8.152   0.577  0.00  0.00    +0.072 C 
ATOM     26  C   UNL     1       0.196   7.919   2.051  0.00  0.00    +0.017 C 
ATOM     27  C   UNL     1      -0.979   7.089   2.524  0.00  0.00    +0.003 C 
ATOM     28  C   UNL     1      -2.232   7.941   2.479  0.00  0.00    +0.017 C 
ATOM     29  C   UNL     1      -1.994   9.048   1.490  0.00  0.00    +0.072 C 
ENDBRANCH  23  24
ENDBRANCH  22  23
ENDBRANCH  21  22
ENDBRANCH  19  21
ENDBRANCH  10  19
TORSDOF 6
ENDMDL
MODEL 9
REMARK VINA RESULT:      -7.7      5.645      8.362
REMARK  Name = 
REMARK  6 active torsions:
REMARK  status: ('A' for Active; 'I' for Inactive)
REMARK    1  A    between atoms: C_9  and  C_10
REMARK    2  A    between atoms: C_10  and  O_12
REMARK    3  A    between atoms: O_12  and  C_13
REMARK    4  A    between atoms: C_13  and  C_14
REMARK    5  A    between atoms: C_14  and  N_15
REMARK    6  A    between atoms: C_23  and  C_24
REMARK                            x       y       z     vdW  Elec       q    Type
REMARK                         _______ _______ _______ _____ _____    ______ ____
ROOT
ATOM      1  C   UNL     1       4.765   4.789  -9.237  0.00  0.00    +0.038 C 
ATOM      2  C   UNL     1       3.717   5.236 -10.173  0.00  0.00    +0.052 A 
ATOM      3  C   UNL     1       4.133   5.580 -11.454  0.00  0.00    +0.144 A 
ATOM      4  O   UNL     1       3.164   5.734 -12.337  0.00  0.00    -0.453 OA
ATOM      5  C   UNL     1       1.908   5.848 -11.940  0.00  0.00    +0.154 A 
ATOM      6  C   UNL     1       1.566   6.054 -10.613  0.00  0.00    +0.073 A 
ATOM      7  C   UNL     1       0.531   6.903 -10.263  0.00  0.00    +0.006 A 
ATOM      8  C   UNL     1      -0.328   7.334 -11.268  0.00  0.00    +0.001 A 
ATOM      9  C   UNL     1      -0.204   6.758 -12.526  0.00  0.00    +0.010 A 
ATOM     10  C   UNL     1       0.950   6.099 -12.913  0.00  0.00    +0.110 A 
ATOM     11  C   UNL     1       2.484   5.605  -9.673  0.00  0.00    +0.197 A 
ATOM     12  O   UNL     1       2.180   5.609  -8.464  0.00  0.00    -0.287 OA
ENDROOT
BRANCH   3  13
ATOM     13  C   UNL     1       5.454   6.169 -11.709  0.00  0.00    +0.034 A 
ATOM     14  C   UNL     1       6.463   5.376 -12.198  0.00  0.00    +0.003 A 
ATOM     15  C   UNL     1       7.801   5.573 -11.879  0.00  0.00    +0.000 A 
ATOM     16  C   UNL     1       8.130   6.581 -10.985  0.00  0.00    +0.000 A 
ATOM     17  C   UNL     1       7.181   7.583 -10.831  0.00  0.00    +0.000 A 
ATOM     18  C   UNL     1       5.842   7.375 -11.140  0.00  0.00    +0.003 A 
ENDBRANCH   3  13
BRANCH  10  19
ATOM     19  C   UNL     1       1.039   5.335 -14.161  0.00  0.00    +0.344 C 
ATOM     20  O   UNL     1       0.565   4.160 -14.165  0.00  0.00    -0.245 OA
BRANCH  19  21
ATOM     21  O   UNL     1       1.149   5.964 -15.381  0.00  0.00    -0.444 OA
BRANCH  21  22
ATOM     22  C   UNL     1       0.539   7.222 -15.600  0.00  0.00    +0.226 C 
BRANCH  22  23
ATOM     23  C   UNL     1       1.540   8.268 -16.055  0.00  0.00    +0.120 C 
BRANCH  23  24
ATOM     24  N   UNL     1       2.449   7.678 -17.032  0.00  0.00    -0.270 NA
ATOM     25  C   UNL     1       3.795   7.812 -16.537  0.00  0.00    +0.072 C 
ATOM     26  C   UNL     1       4.499   8.974 -17.179  0.00  0.00    +0.017 C 
ATOM     27  C   UNL     1       3.560  10.160 -17.111  0.00  0.00    +0.003 C 
ATOM     28  C   UNL     1       2.395   9.919 -18.051  0.00  0.00    +0.017 C 
ATOM     29  C   UNL     1       2.280   8.435 -18.261  0.00  0.00    +0.072 C 
ENDBRANCH  23  24
ENDBRANCH  22  23
ENDBRANCH  21  22
ENDBRANCH  19  21
ENDBRANCH  10  19
TORSDOF 6
ENDMDL
