MODEL 1
REMARK VINA RESULT:      -7.4      0.000      0.000
REMARK  Name = 
REMARK  5 active torsions:
REMARK  status: ('A' for Active; 'I' for Inactive)
REMARK    1  A    between atoms: C_2  and  C_3
REMARK    2  A    between atoms: C_3  and  C_4
REMARK    3  A    between atoms: C_4  and  C_5
REMARK    4  A    between atoms: C_4  and  N_10
REMARK    5  A    between atoms: C_12  and  C_13
REMARK                            x       y       z     vdW  Elec       q    Type
REMARK                         _______ _______ _______ _____ _____    ______ ____
ROOT
ATOM      1  N   UNL     1       1.339   5.930  -7.506  0.00  0.00    -0.250 N 
ATOM      2  N   UNL     1       1.517   7.183  -7.149  0.00  0.00    -0.168 NA
ATOM      3  C   UNL     1       1.027   7.336  -5.903  0.00  0.00    +0.123 A 
ATOM      4  C   UNL     1       0.606   6.076  -5.491  0.00  0.00    +0.057 A 
ATOM      5  C   UNL     1       1.195   5.219  -6.415  0.00  0.00    +0.098 A 
ENDROOT
BRANCH   4   6
ATOM      6  C   UNL     1       0.292   5.810  -4.099  0.00  0.00    +0.089 A 
ATOM      7  C   UNL     1      -1.007   5.644  -3.707  0.00  0.00    +0.055 A 
ATOM      8  C   UNL     1      -1.281   5.250  -2.408  0.00  0.00    +0.166 A 
ATOM      9  N   UNL     1      -2.621   5.084  -2.298  0.00  0.00    -0.225 NA
ATOM     10  C   UNL     1      -3.159   5.303  -3.507  0.00  0.00    +0.101 A 
ATOM     11  N   UNL     1      -0.259   4.918  -1.581  0.00  0.00    -0.205 NA
ATOM     12  C   UNL     1       1.010   5.127  -2.007  0.00  0.00    +0.200 A 
ATOM     13  C   UNL     1      -2.178   5.611  -4.409  0.00  0.00    +0.025 A 
ATOM     14  N   UNL     1       1.263   5.732  -3.168  0.00  0.00    -0.224 NA
ENDBRANCH   4   6
BRANCH   1  15
ATOM     15  C   UNL     1       2.048   5.456  -8.826  0.00  0.00    +0.120 C 
BRANCH  15  16
ATOM     16  C   UNL     1       1.213   6.507  -9.780  0.00  0.00    +0.024 C 
ATOM     17  C   UNL     1      -0.143   5.831  -9.902  0.00  0.00    +0.002 C 
ATOM     18  C   UNL     1       0.229   4.581 -10.685  0.00  0.00    +0.000 C 
ATOM     19  C   UNL     1       1.076   5.181 -11.801  0.00  0.00    +0.000 C 
ATOM     20  C   UNL     1       1.877   6.268 -11.104  0.00  0.00    +0.002 C 
ENDBRANCH  15  16
BRANCH  15  21
ATOM     21  C   UNL     1       3.306   6.503  -8.634  0.00  0.00    +0.130 C 
BRANCH  21  23
ATOM     22  N   UNL     1       5.453   5.003  -8.404  0.00  0.00    -0.196 NA
ATOM     23  C   UNL     1       4.439   5.570  -8.488  0.00  0.00    +0.075 C 
ENDBRANCH  21  23
ENDBRANCH  15  21
ENDBRANCH   1  15
TORSDOF 5
ENDMDL
MODEL 2
REMARK VINA RESULT:      -7.3      2.949      7.814
REMARK  Name = 
REMARK  5 active torsions:
REMARK  status: ('A' for Active; 'I' for Inactive)
REMARK    1  A    between atoms: C_2  and  C_3
REMARK    2  A    between atoms: C_3  and  C_4
REMARK    3  A    between atoms: C_4  and  C_5
REMARK    4  A    between atoms: C_4  and  N_10
REMARK    5  A    between atoms: C_12  and  C_13
REMARK                            x       y       z     vdW  Elec       q    Type
REMARK                         _______ _______ _______ _____ _____    ______ ____
ROOT
ATOM      1  N   UNL     1       2.333   5.640  -7.719  0.00  0.00    -0.250 N 
ATOM      2  N   UNL     1       2.653   4.365  -7.702  0.00  0.00    -0.168 NA
ATOM      3  C   UNL     1       3.311   4.084  -8.845  0.00  0.00    +0.123 A 
ATOM      4  C   UNL     1       3.439   5.288  -9.528  0.00  0.00    +0.057 A 
ATOM      5  C   UNL     1       3.133   6.243  -8.564  0.00  0.00    +0.098 A 
ENDROOT
BRANCH   4   6
ATOM      6  C   UNL     1       4.344   5.416 -10.656  0.00  0.00    +0.089 A 
ATOM      7  C   UNL     1       5.684   5.583 -10.445  0.00  0.00    +0.055 A 
ATOM      8  C   UNL     1       6.551   5.560 -11.525  0.00  0.00    +0.166 A 
ATOM      9  N   UNL     1       7.814   5.667 -11.047  0.00  0.00    -0.225 NA
ATOM     10  C   UNL     1       7.742   5.691  -9.708  0.00  0.00    +0.101 A 
ATOM     11  N   UNL     1       6.075   5.252 -12.757  0.00  0.00    -0.205 NA
ATOM     12  C   UNL     1       4.736   5.124 -12.918  0.00  0.00    +0.200 A 
ATOM     13  C   UNL     1       6.438   5.598  -9.306  0.00  0.00    +0.025 A 
ATOM     14  N   UNL     1       3.887   5.385 -11.923  0.00  0.00    -0.224 NA
ENDBRANCH   4   6
BRANCH   1  15
ATOM     15  C   UNL     1       1.771   6.253  -6.386  0.00  0.00    +0.120 C 
BRANCH  15  16
ATOM     16  C   UNL     1       0.810   4.955  -6.067  0.00  0.00    +0.024 C 
ATOM     17  C   UNL     1      -0.546   5.419  -6.579  0.00  0.00    +0.002 C 
ATOM     18  C   UNL     1      -0.844   6.554  -5.612  0.00  0.00    +0.000 C 
ATOM     19  C   UNL     1      -0.529   5.888  -4.277  0.00  0.00    +0.000 C 
ATOM     20  C   UNL     1       0.703   5.048  -4.573  0.00  0.00    +0.002 C 
ENDBRANCH  15  16
BRANCH  15  21
ATOM     21  C   UNL     1       3.013   5.657  -5.482  0.00  0.00    +0.130 C 
BRANCH  21  23
ATOM     22  N   UNL     1       4.394   7.762  -4.722  0.00  0.00    -0.196 NA
ATOM     23  C   UNL     1       3.688   6.900  -5.061  0.00  0.00    +0.075 C 
ENDBRANCH  21  23
ENDBRANCH  15  21
ENDBRANCH   1  15
TORSDOF 5
ENDMDL
MODEL 3
REMARK VINA RESULT:      -7.3      3.107      8.473
REMARK  Name = 
REMARK  5 active torsions:
REMARK  status: ('A' for Active; 'I' for Inactive)
REMARK    1  A    between atoms: C_2  and  C_3
REMARK    2  A    between atoms: C_3  and  C_4
REMARK    3  A    between atoms: C_4  and  C_5
REMARK    4  A    between atoms: C_4  and  N_10
REMARK    5  A    between atoms: C_12  and  C_13
REMARK                            x       y       z     vdW  Elec       q    Type
REMARK                         _______ _______ _______ _____ _____    ______ ____
ROOT
ATOM      1  N   UNL     1       3.308   6.180  -7.850  0.00  0.00    -0.250 N 
ATOM      2  N   UNL     1       2.862   7.286  -8.404  0.00  0.00    -0.168 NA
ATOM      3  C   UNL     1       3.413   7.391  -9.629  0.00  0.00    +0.123 A 
ATOM      4  C   UNL     1       4.166   6.237  -9.819  0.00  0.00    +0.057 A 
ATOM      5  C   UNL     1       3.723   5.389  -8.810  0.00  0.00    +0.098 A 
ENDROOT
BRANCH   4   6
ATOM      6  C   UNL     1       4.663   5.876 -11.135  0.00  0.00    +0.089 A 
ATOM      7  C   UNL     1       6.002   5.685 -11.334  0.00  0.00    +0.055 A 
ATOM      8  C   UNL     1       6.445   5.203 -12.555  0.00  0.00    +0.166 A 
ATOM      9  N   UNL     1       7.787   5.031 -12.471  0.00  0.00    -0.225 NA
ATOM     10  C   UNL     1       8.158   5.333 -11.218  0.00  0.00    +0.101 A 
ATOM     11  N   UNL     1       5.542   4.814 -13.488  0.00  0.00    -0.205 NA
ATOM     12  C   UNL     1       4.229   5.050 -13.252  0.00  0.00    +0.200 A 
ATOM     13  C   UNL     1       7.067   5.702 -10.481  0.00  0.00    +0.025 A 
ATOM     14  N   UNL     1       3.826   5.733 -12.181  0.00  0.00    -0.224 NA
ENDBRANCH   4   6
BRANCH   1  15
ATOM     15  C   UNL     1       2.619   5.721  -6.514  0.00  0.00    +0.120 C 
BRANCH  15  16
ATOM     16  C   UNL     1       3.387   6.857  -5.601  0.00  0.00    +0.024 C 
ATOM     17  C   UNL     1       4.753   6.226  -5.377  0.00  0.00    +0.002 C 
ATOM     18  C   UNL     1       4.377   5.023  -4.526  0.00  0.00    +0.000 C 
ATOM     19  C   UNL     1       3.468   5.674  -3.489  0.00  0.00    +0.000 C 
ATOM     20  C   UNL     1       2.673   6.691  -4.292  0.00  0.00    +0.002 C 
ENDBRANCH  15  16
BRANCH  15  21
ATOM     21  C   UNL     1       1.306   6.687  -6.754  0.00  0.00    +0.130 C 
BRANCH  21  23
ATOM     22  N   UNL     1      -0.771   5.074  -6.798  0.00  0.00    -0.196 NA
ATOM     23  C   UNL     1       0.212   5.696  -6.742  0.00  0.00    +0.075 C 
ENDBRANCH  21  23
ENDBRANCH  15  21
ENDBRANCH   1  15
TORSDOF 5
ENDMDL
MODEL 4
REMARK VINA RESULT:      -7.2      1.929      6.934
REMARK  Name = 
REMARK  5 active torsions:
REMARK  status: ('A' for Active; 'I' for Inactive)
REMARK    1  A    between atoms: C_2  and  C_3
REMARK    2  A    between atoms: C_3  and  C_4
REMARK    3  A    between atoms: C_4  and  C_5
REMARK    4  A    between atoms: C_4  and  N_10
REMARK    5  A    between atoms: C_12  and  C_13
REMARK                            x       y       z     vdW  Elec       q    Type
REMARK                         _______ _______ _______ _____ _____    ______ ____
ROOT
ATOM      1  N   UNL     1       1.049   5.763  -5.698  0.00  0.00    -0.250 N 
ATOM      2  N   UNL     1       1.220   4.462  -5.607  0.00  0.00    -0.168 NA
ATOM      3  C   UNL     1       1.998   4.071  -6.637  0.00  0.00    +0.123 A 
ATOM      4  C   UNL     1       2.354   5.228  -7.320  0.00  0.00    +0.057 A 
ATOM      5  C   UNL     1       2.023   6.245  -6.430  0.00  0.00    +0.098 A 
ENDROOT
BRANCH   4   6
ATOM      6  C   UNL     1       3.418   5.217  -8.307  0.00  0.00    +0.089 A 
ATOM      7  C   UNL     1       3.127   5.382  -9.632  0.00  0.00    +0.055 A 
ATOM      8  C   UNL     1       4.161   5.512 -10.545  0.00  0.00    +0.166 A 
ATOM      9  N   UNL     1       3.613   5.739 -11.763  0.00  0.00    -0.225 NA
ATOM     10  C   UNL     1       2.283   5.813 -11.605  0.00  0.00    +0.101 A 
ATOM     11  N   UNL     1       5.438   5.596 -10.100  0.00  0.00    -0.205 NA
ATOM     12  C   UNL     1       5.676   5.399  -8.780  0.00  0.00    +0.200 A 
ATOM     13  C   UNL     1       1.957   5.637 -10.288  0.00  0.00    +0.025 A 
ATOM     14  N   UNL     1       4.703   5.035  -7.945  0.00  0.00    -0.224 NA
ENDBRANCH   4   6
BRANCH   1  15
ATOM     15  C   UNL     1       0.375   6.481  -4.473  0.00  0.00    +0.120 C 
BRANCH  15  16
ATOM     16  C   UNL     1      -1.021   5.616  -4.595  0.00  0.00    +0.024 C 
ATOM     17  C   UNL     1      -1.863   6.483  -5.518  0.00  0.00    +0.002 C 
ATOM     18  C   UNL     1      -2.071   7.712  -4.646  0.00  0.00    +0.000 C 
ATOM     19  C   UNL     1      -2.493   7.065  -3.331  0.00  0.00    +0.000 C 
ATOM     20  C   UNL     1      -1.604   5.836  -3.230  0.00  0.00    +0.002 C 
ENDBRANCH  15  16
BRANCH  15  21
ATOM     21  C   UNL     1       1.025   5.430  -3.383  0.00  0.00    +0.130 C 
BRANCH  21  23
ATOM     22  N   UNL     1       2.904   7.010  -2.439  0.00  0.00    -0.196 NA
ATOM     23  C   UNL     1       2.055   6.273  -2.747  0.00  0.00    +0.075 C 
ENDBRANCH  21  23
ENDBRANCH  15  21
ENDBRANCH   1  15
TORSDOF 5
ENDMDL
MODEL 5
REMARK VINA RESULT:      -7.1      2.849      4.898
REMARK  Name = 
REMARK  5 active torsions:
REMARK  status: ('A' for Active; 'I' for Inactive)
REMARK    1  A    between atoms: C_2  and  C_3
REMARK    2  A    between atoms: C_3  and  C_4
REMARK    3  A    between atoms: C_4  and  C_5
REMARK    4  A    between atoms: C_4  and  N_10
REMARK    5  A    between atoms: C_12  and  C_13
REMARK                            x       y       z     vdW  Elec       q    Type
REMARK                         _______ _______ _______ _____ _____    ______ ____
ROOT
ATOM      1  N   UNL     1       4.048   6.229  -9.401  0.00  0.00    -0.250 N 
ATOM      2  N   UNL     1       3.943   4.928  -9.240  0.00  0.00    -0.168 NA
ATOM      3  C   UNL     1       3.550   4.695  -7.972  0.00  0.00    +0.123 A 
ATOM      4  C   UNL     1       3.348   5.942  -7.389  0.00  0.00    +0.057 A 
ATOM      5  C   UNL     1       3.320   6.808  -8.478  0.00  0.00    +0.098 A 
ENDROOT
BRANCH   4   6
ATOM      6  C   UNL     1       2.646   6.072  -6.126  0.00  0.00    +0.089 A 
ATOM      7  C   UNL     1       3.264   6.654  -5.054  0.00  0.00    +0.055 A 
ATOM      8  C   UNL     1       2.536   6.901  -3.901  0.00  0.00    +0.166 A 
ATOM      9  N   UNL     1       3.347   7.546  -3.029  0.00  0.00    -0.225 NA
ATOM     10  C   UNL     1       4.523   7.753  -3.642  0.00  0.00    +0.101 A 
ATOM     11  N   UNL     1       1.200   6.675  -3.893  0.00  0.00    -0.205 NA
ATOM     12  C   UNL     1       0.641   6.072  -4.970  0.00  0.00    +0.200 A 
ATOM     13  C   UNL     1       4.485   7.248  -4.912  0.00  0.00    +0.025 A 
ATOM     14  N   UNL     1       1.386   5.617  -5.978  0.00  0.00    -0.224 NA
ENDBRANCH   4   6
BRANCH   1  15
ATOM     15  C   UNL     1       4.259   6.752 -10.868  0.00  0.00    +0.120 C 
BRANCH  15  16
ATOM     16  C   UNL     1       5.666   5.923 -11.076  0.00  0.00    +0.024 C 
ATOM     17  C   UNL     1       6.705   6.906 -10.559  0.00  0.00    +0.002 C 
ATOM     18  C   UNL     1       6.585   8.018 -11.589  0.00  0.00    +0.000 C 
ATOM     19  C   UNL     1       6.623   7.217 -12.886  0.00  0.00    +0.000 C 
ATOM     20  C   UNL     1       5.803   5.977 -12.570  0.00  0.00    +0.002 C 
ENDBRANCH  15  16
BRANCH  15  21
ATOM     21  C   UNL     1       3.355   5.543 -11.526  0.00  0.00    +0.130 C 
BRANCH  21  23
ATOM     22  N   UNL     1       1.165   6.760 -12.327  0.00  0.00    -0.196 NA
ATOM     23  C   UNL     1       2.195   6.296 -12.040  0.00  0.00    +0.075 C 
ENDBRANCH  21  23
ENDBRANCH  15  21
ENDBRANCH   1  15
TORSDOF 5
ENDMDL
MODEL 6
REMARK VINA RESULT:      -7.0      2.637      4.194
REMARK  Name = 
REMARK  5 active torsions:
REMARK  status: ('A' for Active; 'I' for Inactive)
REMARK    1  A    between atoms: C_2  and  C_3
REMARK    2  A    between atoms: C_3  and  C_4
REMARK    3  A    between atoms: C_4  and  C_5
REMARK    4  A    between atoms: C_4  and  N_10
REMARK    5  A    between atoms: C_12  and  C_13
REMARK                            x       y       z     vdW  Elec       q    Type
REMARK                         _______ _______ _______ _____ _____    ______ ____
ROOT
ATOM      1  N   UNL     1       3.882   6.326  -9.381  0.00  0.00    -0.250 N 
ATOM      2  N   UNL     1       3.811   5.039  -9.122  0.00  0.00    -0.168 NA
ATOM      3  C   UNL     1       3.267   4.889  -7.898  0.00  0.00    +0.123 A 
ATOM      4  C   UNL     1       2.939   6.166  -7.456  0.00  0.00    +0.057 A 
ATOM      5  C   UNL     1       3.016   6.939  -8.611  0.00  0.00    +0.098 A 
ENDROOT
BRANCH   4   6
ATOM      6  C   UNL     1       2.073   6.361  -6.307  0.00  0.00    +0.089 A 
ATOM      7  C   UNL     1       0.741   6.066  -6.394  0.00  0.00    +0.055 A 
ATOM      8  C   UNL     1      -0.043   6.121  -5.253  0.00  0.00    +0.166 A 
ATOM      9  N   UNL     1      -1.291   5.714  -5.587  0.00  0.00    -0.225 NA
ATOM     10  C   UNL     1      -1.270   5.354  -6.879  0.00  0.00    +0.101 A 
ATOM     11  N   UNL     1       0.541   6.347  -4.051  0.00  0.00    -0.205 NA
ATOM     12  C   UNL     1       1.859   6.661  -4.023  0.00  0.00    +0.200 A 
ATOM     13  C   UNL     1      -0.014   5.523  -7.393  0.00  0.00    +0.025 A 
ATOM     14  N   UNL     1       2.555   6.844  -5.145  0.00  0.00    -0.224 NA
ENDBRANCH   4   6
BRANCH   1  15
ATOM     15  C   UNL     1       4.260   6.739 -10.849  0.00  0.00    +0.120 C 
BRANCH  15  16
ATOM     16  C   UNL     1       5.639   5.838 -10.863  0.00  0.00    +0.024 C 
ATOM     17  C   UNL     1       6.687   6.837 -10.396  0.00  0.00    +0.002 C 
ATOM     18  C   UNL     1       6.681   7.820 -11.556  0.00  0.00    +0.000 C 
ATOM     19  C   UNL     1       6.764   6.868 -12.744  0.00  0.00    +0.000 C 
ATOM     20  C   UNL     1       5.870   5.706 -12.339  0.00  0.00    +0.002 C 
ENDBRANCH  15  16
BRANCH  15  21
ATOM     21  C   UNL     1       3.366   5.528 -11.517  0.00  0.00    +0.130 C 
BRANCH  21  23
ATOM     22  N   UNL     1       1.281   6.788 -12.507  0.00  0.00    -0.196 NA
ATOM     23  C   UNL     1       2.270   6.289 -12.146  0.00  0.00    +0.075 C 
ENDBRANCH  21  23
ENDBRANCH  15  21
ENDBRANCH   1  15
TORSDOF 5
ENDMDL
MODEL 7
REMARK VINA RESULT:      -7.0      2.056      3.344
REMARK  Name = 
REMARK  5 active torsions:
REMARK  status: ('A' for Active; 'I' for Inactive)
REMARK    1  A    between atoms: C_2  and  C_3
REMARK    2  A    between atoms: C_3  and  C_4
REMARK    3  A    between atoms: C_4  and  C_5
REMARK    4  A    between atoms: C_4  and  N_10
REMARK    5  A    between atoms: C_12  and  C_13
REMARK                            x       y       z     vdW  Elec       q    Type
REMARK                         _______ _______ _______ _____ _____    ______ ____
ROOT
ATOM      1  N   UNL     1       2.769   5.877  -8.664  0.00  0.00    -0.250 N 
ATOM      2  N   UNL     1       2.611   4.576  -8.563  0.00  0.00    -0.168 NA
ATOM      3  C   UNL     1       2.084   4.312  -7.351  0.00  0.00    +0.123 A 
ATOM      4  C   UNL     1       1.858   5.543  -6.746  0.00  0.00    +0.057 A 
ATOM      5  C   UNL     1       1.966   6.447  -7.799  0.00  0.00    +0.098 A 
ENDROOT
BRANCH   4   6
ATOM      6  C   UNL     1       1.033   5.653  -5.557  0.00  0.00    +0.089 A 
ATOM      7  C   UNL     1      -0.330   5.674  -5.666  0.00  0.00    +0.055 A 
ATOM      8  C   UNL     1      -1.105   5.634  -4.519  0.00  0.00    +0.166 A 
ATOM      9  N   UNL     1      -2.405   5.587  -4.897  0.00  0.00    -0.225 NA
ATOM     10  C   UNL     1      -2.438   5.532  -6.238  0.00  0.00    +0.101 A 
ATOM     11  N   UNL     1      -0.508   5.453  -3.315  0.00  0.00    -0.205 NA
ATOM     12  C   UNL     1       0.846   5.467  -3.258  0.00  0.00    +0.200 A 
ATOM     13  C   UNL     1      -1.165   5.543  -6.738  0.00  0.00    +0.025 A 
ATOM     14  N   UNL     1       1.585   5.747  -4.332  0.00  0.00    -0.224 NA
ENDBRANCH   4   6
BRANCH   1  15
ATOM     15  C   UNL     1       3.146   6.443 -10.080  0.00  0.00    +0.120 C 
BRANCH  15  16
ATOM     16  C   UNL     1       4.338   5.334 -10.326  0.00  0.00    +0.024 C 
ATOM     17  C   UNL     1       5.572   6.063  -9.817  0.00  0.00    +0.002 C 
ATOM     18  C   UNL     1       5.677   7.192 -10.830  0.00  0.00    +0.000 C 
ATOM     19  C   UNL     1       5.522   6.424 -12.137  0.00  0.00    +0.000 C 
ATOM     20  C   UNL     1       4.459   5.383 -11.821  0.00  0.00    +0.002 C 
ENDBRANCH  15  16
BRANCH  15  21
ATOM     21  C   UNL     1       2.018   5.521 -10.849  0.00  0.00    +0.130 C 
BRANCH  21  23
ATOM     22  N   UNL     1       0.036   7.161 -11.392  0.00  0.00    -0.196 NA
ATOM     23  C   UNL     1       0.986   6.527 -11.163  0.00  0.00    +0.075 C 
ENDBRANCH  21  23
ENDBRANCH  15  21
ENDBRANCH   1  15
TORSDOF 5
ENDMDL
MODEL 8
REMARK VINA RESULT:      -7.0      2.080      7.158
REMARK  Name = 
REMARK  5 active torsions:
REMARK  status: ('A' for Active; 'I' for Inactive)
REMARK    1  A    between atoms: C_2  and  C_3
REMARK    2  A    between atoms: C_3  and  C_4
REMARK    3  A    between atoms: C_4  and  C_5
REMARK    4  A    between atoms: C_4  and  N_10
REMARK    5  A    between atoms: C_12  and  C_13
REMARK                            x       y       z     vdW  Elec       q    Type
REMARK                         _______ _______ _______ _____ _____    ______ ____
ROOT
ATOM      1  N   UNL     1       0.726   6.256  -6.105  0.00  0.00    -0.250 N 
ATOM      2  N   UNL     1       0.956   4.965  -6.198  0.00  0.00    -0.168 NA
ATOM      3  C   UNL     1       1.457   4.716  -7.424  0.00  0.00    +0.123 A 
ATOM      4  C   UNL     1       1.590   5.951  -8.050  0.00  0.00    +0.057 A 
ATOM      5  C   UNL     1       1.465   6.860  -7.004  0.00  0.00    +0.098 A 
ENDROOT
BRANCH   4   6
ATOM      6  C   UNL     1       2.366   6.093  -9.268  0.00  0.00    +0.089 A 
ATOM      7  C   UNL     1       3.721   5.911  -9.244  0.00  0.00    +0.055 A 
ATOM      8  C   UNL     1       4.428   5.908 -10.435  0.00  0.00    +0.166 A 
ATOM      9  N   UNL     1       5.724   5.633 -10.148  0.00  0.00    -0.225 NA
ATOM     10  C   UNL     1       5.810   5.407  -8.828  0.00  0.00    +0.101 A 
ATOM     11  N   UNL     1       3.757   5.964 -11.611  0.00  0.00    -0.205 NA
ATOM     12  C   UNL     1       2.418   6.173 -11.580  0.00  0.00    +0.200 A 
ATOM     13  C   UNL     1       4.577   5.531  -8.250  0.00  0.00    +0.025 A 
ATOM     14  N   UNL     1       1.778   6.416 -10.436  0.00  0.00    -0.224 NA
ENDBRANCH   4   6
BRANCH   1  15
ATOM     15  C   UNL     1       0.366   6.818  -4.683  0.00  0.00    +0.120 C 
BRANCH  15  16
ATOM     16  C   UNL     1      -1.009   5.920  -4.558  0.00  0.00    +0.024 C 
ATOM     17  C   UNL     1      -2.026   6.774  -5.300  0.00  0.00    +0.002 C 
ATOM     18  C   UNL     1      -2.098   7.990  -4.390  0.00  0.00    +0.000 C 
ATOM     19  C   UNL     1      -2.258   7.323  -3.029  0.00  0.00    +0.000 C 
ATOM     20  C   UNL     1      -1.338   6.115  -3.107  0.00  0.00    +0.002 C 
ENDBRANCH  15  16
BRANCH  15  21
ATOM     21  C   UNL     1       1.273   5.683  -3.905  0.00  0.00    +0.130 C 
BRANCH  21  23
ATOM     22  N   UNL     1       3.176   7.294  -3.070  0.00  0.00    -0.196 NA
ATOM     23  C   UNL     1       2.359   6.512  -3.348  0.00  0.00    +0.075 C 
ENDBRANCH  21  23
ENDBRANCH  15  21
ENDBRANCH   1  15
TORSDOF 5
ENDMDL
MODEL 9
REMARK VINA RESULT:      -6.9      2.450      7.790
REMARK  Name = 
REMARK  5 active torsions:
REMARK  status: ('A' for Active; 'I' for Inactive)
REMARK    1  A    between atoms: C_2  and  C_3
REMARK    2  A    between atoms: C_3  and  C_4
REMARK    3  A    between atoms: C_4  and  C_5
REMARK    4  A    between atoms: C_4  and  N_10
REMARK    5  A    between atoms: C_12  and  C_13
REMARK                            x       y       z     vdW  Elec       q    Type
REMARK                         _______ _______ _______ _____ _____    ______ ____
ROOT
ATOM      1  N   UNL     1       2.226   5.108  -6.091  0.00  0.00    -0.250 N 
ATOM      2  N   UNL     1       2.268   3.878  -6.554  0.00  0.00    -0.168 NA
ATOM      3  C   UNL     1       2.528   3.937  -7.875  0.00  0.00    +0.123 A 
ATOM      4  C   UNL     1       2.718   5.281  -8.176  0.00  0.00    +0.057 A 
ATOM      5  C   UNL     1       2.882   5.874  -6.928  0.00  0.00    +0.098 A 
ENDROOT
BRANCH   4   6
ATOM      6  C   UNL     1       3.300   5.690  -9.442  0.00  0.00    +0.089 A 
ATOM      7  C   UNL     1       4.658   5.761  -9.582  0.00  0.00    +0.055 A 
ATOM      8  C   UNL     1       5.200   6.012 -10.832  0.00  0.00    +0.166 A 
ATOM      9  N   UNL     1       6.549   5.955 -10.718  0.00  0.00    -0.225 NA
ATOM     10  C   UNL     1       6.837   5.614  -9.453  0.00  0.00    +0.101 A 
ATOM     11  N   UNL     1       4.387   6.063 -11.915  0.00  0.00    -0.205 NA
ATOM     12  C   UNL     1       3.047   6.016 -11.719  0.00  0.00    +0.200 A 
ATOM     13  C   UNL     1       5.684   5.447  -8.738  0.00  0.00    +0.025 A 
ATOM     14  N   UNL     1       2.523   6.016 -10.493  0.00  0.00    -0.224 NA
ENDBRANCH   4   6
BRANCH   1  15
ATOM     15  C   UNL     1       2.175   5.283  -4.531  0.00  0.00    +0.120 C 
BRANCH  15  16
ATOM     16  C   UNL     1       3.558   6.176  -4.477  0.00  0.00    +0.024 C 
ATOM     17  C   UNL     1       4.566   5.184  -3.918  0.00  0.00    +0.002 C 
ATOM     18  C   UNL     1       4.014   4.972  -2.517  0.00  0.00    +0.000 C 
ATOM     19  C   UNL     1       3.781   6.413  -2.077  0.00  0.00    +0.000 C 
ATOM     20  C   UNL     1       3.252   7.093  -3.329  0.00  0.00    +0.002 C 
ENDBRANCH  15  16
BRANCH  15  21
ATOM     21  C   UNL     1       1.219   6.621  -4.620  0.00  0.00    +0.130 C 
BRANCH  21  23
ATOM     22  N   UNL     1      -1.254   5.731  -4.715  0.00  0.00    -0.196 NA
ATOM     23  C   UNL     1      -0.124   6.014  -4.685  0.00  0.00    +0.075 C 
ENDBRANCH  21  23
ENDBRANCH  15  21
ENDBRANCH   1  15
TORSDOF 5
ENDMDL
