MODEL 1
REMARK VINA RESULT:      -7.8      0.000      0.000
REMARK  Name = 
REMARK  5 active torsions:
REMARK  status: ('A' for Active; 'I' for Inactive)
REMARK    1  A    between atoms: C_2  and  C_3
REMARK    2  A    between atoms: C_2  and  C_11
REMARK    3  A    between atoms: C_2  and  C_17
REMARK    4  A    between atoms: C_3  and  C_4
REMARK    5  A    between atoms: C_4  and  N_5
REMARK                            x       y       z     vdW  Elec       q    Type
REMARK                         _______ _______ _______ _____ _____    ______ ____
ROOT
ATOM      1  O   UNL     1       3.031   4.107  -6.824  0.00  0.00    -0.221 OA
ATOM      2  C   UNL     1       3.247   5.359  -6.909  0.00  0.00    +0.147 C 
ENDROOT
BRANCH   2   3
ATOM      3  C   UNL     1       1.910   6.090  -6.814  0.00  0.00    +0.032 C 
ATOM      4  C   UNL     1       1.492   6.383  -8.250  0.00  0.00    +0.003 C 
ATOM      5  C   UNL     1       0.504   5.321  -8.677  0.00  0.00    +0.000 C 
ATOM      6  C   UNL     1      -0.786   5.595  -7.922  0.00  0.00    +0.000 C 
ATOM      7  C   UNL     1      -0.495   5.549  -6.439  0.00  0.00    +0.000 C 
ATOM      8  C   UNL     1       0.930   5.155  -6.155  0.00  0.00    +0.003 C 
ENDBRANCH   2   3
BRANCH   2   9
ATOM      9  C   UNL     1       4.048   5.803  -5.750  0.00  0.00    +0.005 A 
ATOM     10  C   UNL     1       4.187   4.934  -4.674  0.00  0.00    -0.002 A 
ATOM     11  C   UNL     1       4.876   5.409  -3.565  0.00  0.00    -0.000 A 
ATOM     12  C   UNL     1       5.159   6.754  -3.447  0.00  0.00    -0.000 A 
ATOM     13  C   UNL     1       4.414   7.635  -4.220  0.00  0.00    -0.000 A 
ATOM     14  C   UNL     1       3.938   7.146  -5.412  0.00  0.00    -0.002 A 
ENDBRANCH   2   9
BRANCH   2  15
ATOM     15  C   UNL     1       3.840   5.739  -8.234  0.00  0.00    +0.052 C 
BRANCH  15  16
ATOM     16  C   UNL     1       5.285   5.374  -8.384  0.00  0.00    +0.075 C 
BRANCH  16  17
ATOM     17  N   UNL     1       5.675   5.541  -9.747  0.00  0.00    -0.273 NA
ATOM     18  C   UNL     1       4.841   6.352 -10.550  0.00  0.00    +0.072 C 
ATOM     19  C   UNL     1       5.423   7.658 -10.992  0.00  0.00    +0.017 C 
ATOM     20  C   UNL     1       6.878   7.541 -11.424  0.00  0.00    +0.003 C 
ATOM     21  C   UNL     1       7.614   6.990 -10.208  0.00  0.00    +0.017 C 
ATOM     22  C   UNL     1       7.074   5.599  -9.992  0.00  0.00    +0.072 C 
ENDBRANCH  16  17
ENDBRANCH  15  16
ENDBRANCH   2  15
TORSDOF 5
ENDMDL
MODEL 2
REMARK VINA RESULT:      -7.8      1.151      1.838
REMARK  Name = 
REMARK  5 active torsions:
REMARK  status: ('A' for Active; 'I' for Inactive)
REMARK    1  A    between atoms: C_2  and  C_3
REMARK    2  A    between atoms: C_2  and  C_11
REMARK    3  A    between atoms: C_2  and  C_17
REMARK    4  A    between atoms: C_3  and  C_4
REMARK    5  A    between atoms: C_4  and  N_5
REMARK                            x       y       z     vdW  Elec       q    Type
REMARK                         _______ _______ _______ _____ _____    ______ ____
ROOT
ATOM      1  O   UNL     1       1.683   3.770  -6.019  0.00  0.00    -0.221 OA
ATOM      2  C   UNL     1       2.019   4.914  -6.465  0.00  0.00    +0.147 C 
ENDROOT
BRANCH   2   3
ATOM      3  C   UNL     1       0.898   5.903  -6.157  0.00  0.00    +0.032 C 
ATOM      4  C   UNL     1       0.025   5.947  -7.406  0.00  0.00    +0.003 C 
ATOM      5  C   UNL     1      -1.163   5.040  -7.180  0.00  0.00    +0.000 C 
ATOM      6  C   UNL     1      -2.053   5.732  -6.162  0.00  0.00    +0.000 C 
ATOM      7  C   UNL     1      -1.254   5.960  -4.900  0.00  0.00    +0.000 C 
ATOM      8  C   UNL     1       0.123   5.359  -4.987  0.00  0.00    +0.003 C 
ENDBRANCH   2   3
BRANCH   2   9
ATOM      9  C   UNL     1       3.212   5.397  -5.740  0.00  0.00    +0.005 A 
ATOM     10  C   UNL     1       3.698   4.631  -4.687  0.00  0.00    -0.002 A 
ATOM     11  C   UNL     1       4.769   5.150  -3.972  0.00  0.00    -0.000 A 
ATOM     12  C   UNL     1       5.140   6.469  -4.135  0.00  0.00    -0.000 A 
ATOM     13  C   UNL     1       4.205   7.332  -4.692  0.00  0.00    -0.000 A 
ATOM     14  C   UNL     1       3.299   6.771  -5.558  0.00  0.00    -0.002 A 
ENDBRANCH   2   9
BRANCH   2  15
ATOM     15  C   UNL     1       2.179   4.911  -7.958  0.00  0.00    +0.052 C 
BRANCH  15  16
ATOM     16  C   UNL     1       3.542   4.503  -8.426  0.00  0.00    +0.075 C 
BRANCH  16  17
ATOM     17  N   UNL     1       4.324   5.670  -8.676  0.00  0.00    -0.273 NA
ATOM     18  C   UNL     1       5.714   5.477  -8.853  0.00  0.00    +0.072 C 
ATOM     19  C   UNL     1       6.241   5.725 -10.232  0.00  0.00    +0.017 C 
ATOM     20  C   UNL     1       5.638   6.963 -10.881  0.00  0.00    +0.003 C 
ATOM     21  C   UNL     1       4.134   6.714 -10.900  0.00  0.00    +0.017 C 
ATOM     22  C   UNL     1       3.701   6.682  -9.457  0.00  0.00    +0.072 C 
ENDBRANCH  16  17
ENDBRANCH  15  16
ENDBRANCH   2  15
TORSDOF 5
ENDMDL
MODEL 3
REMARK VINA RESULT:      -7.8      1.909      5.336
REMARK  Name = 
REMARK  5 active torsions:
REMARK  status: ('A' for Active; 'I' for Inactive)
REMARK    1  A    between atoms: C_2  and  C_3
REMARK    2  A    between atoms: C_2  and  C_11
REMARK    3  A    between atoms: C_2  and  C_17
REMARK    4  A    between atoms: C_3  and  C_4
REMARK    5  A    between atoms: C_4  and  N_5
REMARK                            x       y       z     vdW  Elec       q    Type
REMARK                         _______ _______ _______ _____ _____    ______ ____
ROOT
ATOM      1  O   UNL     1       3.182   7.379  -9.417  0.00  0.00    -0.221 OA
ATOM      2  C   UNL     1       3.721   6.236  -9.264  0.00  0.00    +0.147 C 
ENDROOT
BRANCH   2   3
ATOM      3  C   UNL     1       2.892   5.202 -10.022  0.00  0.00    +0.032 C 
ATOM      4  C   UNL     1       1.917   4.621  -9.005  0.00  0.00    +0.003 C 
ATOM      5  C   UNL     1       0.589   5.323  -9.173  0.00  0.00    +0.000 C 
ATOM      6  C   UNL     1      -0.004   4.827 -10.481  0.00  0.00    +0.000 C 
ATOM      7  C   UNL     1       0.962   5.144 -11.599  0.00  0.00    +0.000 C 
ATOM      8  C   UNL     1       2.151   5.929 -11.113  0.00  0.00    +0.003 C 
ENDBRANCH   2   3
BRANCH   2   9
ATOM      9  C   UNL     1       5.060   6.234  -9.887  0.00  0.00    +0.005 A 
ATOM     10  C   UNL     1       6.120   5.690  -9.170  0.00  0.00    -0.002 A 
ATOM     11  C   UNL     1       7.381   5.777  -9.745  0.00  0.00    -0.000 A 
ATOM     12  C   UNL     1       7.593   6.598 -10.833  0.00  0.00    -0.000 A 
ATOM     13  C   UNL     1       6.661   7.600 -11.069  0.00  0.00    -0.000 A 
ATOM     14  C   UNL     1       5.378   7.349 -10.651  0.00  0.00    -0.002 A 
ENDBRANCH   2   9
BRANCH   2  15
ATOM     15  C   UNL     1       3.722   5.802  -7.828  0.00  0.00    +0.052 C 
BRANCH  15  16
ATOM     16  C   UNL     1       3.376   6.891  -6.859  0.00  0.00    +0.075 C 
BRANCH  16  17
ATOM     17  N   UNL     1       3.075   6.316  -5.589  0.00  0.00    -0.273 NA
ATOM     18  C   UNL     1       3.395   4.949  -5.420  0.00  0.00    +0.072 C 
ATOM     19  C   UNL     1       4.511   4.648  -4.469  0.00  0.00    +0.017 C 
ATOM     20  C   UNL     1       4.454   5.494  -3.205  0.00  0.00    +0.003 C 
ATOM     21  C   UNL     1       4.512   6.940  -3.686  0.00  0.00    +0.017 C 
ATOM     22  C   UNL     1       3.241   7.169  -4.463  0.00  0.00    +0.072 C 
ENDBRANCH  16  17
ENDBRANCH  15  16
ENDBRANCH   2  15
TORSDOF 5
ENDMDL
MODEL 4
REMARK VINA RESULT:      -7.8      2.047      5.568
REMARK  Name = 
REMARK  5 active torsions:
REMARK  status: ('A' for Active; 'I' for Inactive)
REMARK    1  A    between atoms: C_2  and  C_3
REMARK    2  A    between atoms: C_2  and  C_11
REMARK    3  A    between atoms: C_2  and  C_17
REMARK    4  A    between atoms: C_3  and  C_4
REMARK    5  A    between atoms: C_4  and  N_5
REMARK                            x       y       z     vdW  Elec       q    Type
REMARK                         _______ _______ _______ _____ _____    ______ ____
ROOT
ATOM      1  O   UNL     1       3.237   7.304  -9.408  0.00  0.00    -0.221 OA
ATOM      2  C   UNL     1       3.766   6.148  -9.345  0.00  0.00    +0.147 C 
ENDROOT
BRANCH   2   3
ATOM      3  C   UNL     1       2.952   5.192 -10.212  0.00  0.00    +0.032 C 
ATOM      4  C   UNL     1       1.955   4.523  -9.273  0.00  0.00    +0.003 C 
ATOM      5  C   UNL     1       0.631   5.242  -9.403  0.00  0.00    +0.000 C 
ATOM      6  C   UNL     1       0.065   4.871 -10.764  0.00  0.00    +0.000 C 
ATOM      7  C   UNL     1       1.055   5.287 -11.827  0.00  0.00    +0.000 C 
ATOM      8  C   UNL     1       2.234   6.019 -11.246  0.00  0.00    +0.003 C 
ENDBRANCH   2   3
BRANCH   2   9
ATOM      9  C   UNL     1       5.121   6.192  -9.932  0.00  0.00    +0.005 A 
ATOM     10  C   UNL     1       6.177   5.672  -9.194  0.00  0.00    -0.002 A 
ATOM     11  C   UNL     1       7.450   5.802  -9.735  0.00  0.00    -0.000 A 
ATOM     12  C   UNL     1       7.665   6.641 -10.809  0.00  0.00    -0.000 A 
ATOM     13  C   UNL     1       6.710   7.618 -11.059  0.00  0.00    -0.000 A 
ATOM     14  C   UNL     1       5.425   7.325 -10.677  0.00  0.00    -0.002 A 
ENDBRANCH   2   9
BRANCH   2  15
ATOM     15  C   UNL     1       3.729   5.588  -7.953  0.00  0.00    +0.052 C 
BRANCH  15  16
ATOM     16  C   UNL     1       3.452   6.606  -6.891  0.00  0.00    +0.075 C 
BRANCH  16  17
ATOM     17  N   UNL     1       3.100   5.941  -5.679  0.00  0.00    -0.273 NA
ATOM     18  C   UNL     1       2.645   6.756  -4.616  0.00  0.00    +0.072 C 
ATOM     19  C   UNL     1       1.201   6.613  -4.251  0.00  0.00    +0.017 C 
ATOM     20  C   UNL     1       0.733   5.165  -4.245  0.00  0.00    +0.003 C 
ATOM     21  C   UNL     1       1.000   4.651  -5.656  0.00  0.00    +0.017 C 
ATOM     22  C   UNL     1       2.498   4.661  -5.823  0.00  0.00    +0.072 C 
ENDBRANCH  16  17
ENDBRANCH  15  16
ENDBRANCH   2  15
TORSDOF 5
ENDMDL
MODEL 5
REMARK VINA RESULT:      -7.7      1.583      4.361
REMARK  Name = 
REMARK  5 active torsions:
REMARK  status: ('A' for Active; 'I' for Inactive)
REMARK    1  A    between atoms: C_2  and  C_3
REMARK    2  A    between atoms: C_2  and  C_11
REMARK    3  A    between atoms: C_2  and  C_17
REMARK    4  A    between atoms: C_3  and  C_4
REMARK    5  A    between atoms: C_4  and  N_5
REMARK                            x       y       z     vdW  Elec       q    Type
REMARK                         _______ _______ _______ _____ _____    ______ ____
ROOT
ATOM      1  O   UNL     1       1.594   7.912  -6.938  0.00  0.00    -0.221 OA
ATOM      2  C   UNL     1       1.622   6.730  -6.464  0.00  0.00    +0.147 C 
ENDROOT
BRANCH   2   3
ATOM      3  C   UNL     1       2.480   6.734  -5.202  0.00  0.00    +0.032 C 
ATOM      4  C   UNL     1       2.355   5.335  -4.609  0.00  0.00    +0.003 C 
ATOM      5  C   UNL     1       3.568   4.536  -5.032  0.00  0.00    +0.000 C 
ATOM      6  C   UNL     1       4.749   5.093  -4.255  0.00  0.00    +0.000 C 
ATOM      7  C   UNL     1       4.887   6.563  -4.576  0.00  0.00    +0.000 C 
ATOM      8  C   UNL     1       3.900   7.009  -5.621  0.00  0.00    +0.003 C 
ENDBRANCH   2   3
BRANCH   2   9
ATOM      9  C   UNL     1       0.263   6.335  -6.043  0.00  0.00    +0.005 A 
ATOM     10  C   UNL     1      -0.526   5.626  -6.942  0.00  0.00    -0.002 A 
ATOM     11  C   UNL     1      -1.827   5.340  -6.550  0.00  0.00    -0.000 A 
ATOM     12  C   UNL     1      -2.374   5.965  -5.448  0.00  0.00    -0.000 A 
ATOM     13  C   UNL     1      -1.768   7.135  -5.010  0.00  0.00    -0.000 A 
ATOM     14  C   UNL     1      -0.422   7.251  -5.255  0.00  0.00    -0.002 A 
ENDBRANCH   2   9
BRANCH   2  15
ATOM     15  C   UNL     1       2.268   5.760  -7.409  0.00  0.00    +0.052 C 
BRANCH  15  16
ATOM     16  C   UNL     1       2.250   6.197  -8.842  0.00  0.00    +0.075 C 
BRANCH  16  17
ATOM     17  N   UNL     1       3.298   5.538  -9.550  0.00  0.00    -0.273 NA
ATOM     18  C   UNL     1       3.879   6.247 -10.627  0.00  0.00    +0.072 C 
ATOM     19  C   UNL     1       5.293   6.698 -10.430  0.00  0.00    +0.017 C 
ATOM     20  C   UNL     1       6.163   5.642  -9.763  0.00  0.00    +0.003 C 
ATOM     21  C   UNL     1       5.485   5.347  -8.429  0.00  0.00    +0.017 C 
ATOM     22  C   UNL     1       4.158   4.718  -8.768  0.00  0.00    +0.072 C 
ENDBRANCH  16  17
ENDBRANCH  15  16
ENDBRANCH   2  15
TORSDOF 5
ENDMDL
MODEL 6
REMARK VINA RESULT:      -7.7      2.222      3.675
REMARK  Name = 
REMARK  5 active torsions:
REMARK  status: ('A' for Active; 'I' for Inactive)
REMARK    1  A    between atoms: C_2  and  C_3
REMARK    2  A    between atoms: C_2  and  C_11
REMARK    3  A    between atoms: C_2  and  C_17
REMARK    4  A    between atoms: C_3  and  C_4
REMARK    5  A    between atoms: C_4  and  N_5
REMARK                            x       y       z     vdW  Elec       q    Type
REMARK                         _______ _______ _______ _____ _____    ______ ____
ROOT
ATOM      1  O   UNL     1       0.695   4.643  -5.321  0.00  0.00    -0.221 OA
ATOM      2  C   UNL     1       1.043   5.864  -5.231  0.00  0.00    +0.147 C 
ENDROOT
BRANCH   2   3
ATOM      3  C   UNL     1       0.136   6.555  -4.217  0.00  0.00    +0.032 C 
ATOM      4  C   UNL     1      -0.874   7.352  -5.034  0.00  0.00    +0.003 C 
ATOM      5  C   UNL     1      -2.148   6.542  -5.125  0.00  0.00    +0.000 C 
ATOM      6  C   UNL     1      -2.782   6.570  -3.745  0.00  0.00    +0.000 C 
ATOM      7  C   UNL     1      -1.801   5.992  -2.752  0.00  0.00    +0.000 C 
ATOM      8  C   UNL     1      -0.555   5.479  -3.422  0.00  0.00    +0.003 C 
ENDBRANCH   2   3
BRANCH   2   9
ATOM      9  C   UNL     1       2.415   5.949  -4.690  0.00  0.00    +0.005 A 
ATOM     10  C   UNL     1       3.088   7.161  -4.786  0.00  0.00    -0.002 A 
ATOM     11  C   UNL     1       4.404   7.188  -4.344  0.00  0.00    -0.000 A 
ATOM     12  C   UNL     1       5.074   6.010  -4.085  0.00  0.00    -0.000 A 
ATOM     13  C   UNL     1       4.562   4.847  -4.644  0.00  0.00    -0.000 A 
ATOM     14  C   UNL     1       3.207   4.821  -4.860  0.00  0.00    -0.002 A 
ENDBRANCH   2   9
BRANCH   2  15
ATOM     15  C   UNL     1       0.859   6.598  -6.528  0.00  0.00    +0.052 C 
BRANCH  15  16
ATOM     16  C   UNL     1       0.482   5.718  -7.681  0.00  0.00    +0.075 C 
BRANCH  16  17
ATOM     17  N   UNL     1       1.508   5.772  -8.670  0.00  0.00    -0.273 NA
ATOM     18  C   UNL     1       2.522   6.740  -8.482  0.00  0.00    +0.072 C 
ATOM     19  C   UNL     1       3.883   6.211  -8.156  0.00  0.00    +0.017 C 
ATOM     20  C   UNL     1       4.256   4.989  -8.983  0.00  0.00    +0.003 C 
ATOM     21  C   UNL     1       3.175   3.956  -8.683  0.00  0.00    +0.017 C 
ATOM     22  C   UNL     1       1.893   4.525  -9.236  0.00  0.00    +0.072 C 
ENDBRANCH  16  17
ENDBRANCH  15  16
ENDBRANCH   2  15
TORSDOF 5
ENDMDL
MODEL 7
REMARK VINA RESULT:      -7.6      2.958      6.417
REMARK  Name = 
REMARK  5 active torsions:
REMARK  status: ('A' for Active; 'I' for Inactive)
REMARK    1  A    between atoms: C_2  and  C_3
REMARK    2  A    between atoms: C_2  and  C_11
REMARK    3  A    between atoms: C_2  and  C_17
REMARK    4  A    between atoms: C_3  and  C_4
REMARK    5  A    between atoms: C_4  and  N_5
REMARK                            x       y       z     vdW  Elec       q    Type
REMARK                         _______ _______ _______ _____ _____    ______ ____
ROOT
ATOM      1  O   UNL     1       2.047   7.843  -7.023  0.00  0.00    -0.221 OA
ATOM      2  C   UNL     1       1.840   6.654  -6.616  0.00  0.00    +0.147 C 
ENDROOT
BRANCH   2   3
ATOM      3  C   UNL     1       2.142   5.690  -7.760  0.00  0.00    +0.032 C 
ATOM      4  C   UNL     1       0.800   5.390  -8.419  0.00  0.00    +0.003 C 
ATOM      5  C   UNL     1       0.669   6.273  -9.639  0.00  0.00    +0.000 C 
ATOM      6  C   UNL     1       1.643   5.736 -10.673  0.00  0.00    +0.000 C 
ATOM      7  C   UNL     1       3.036   5.767 -10.086  0.00  0.00    +0.000 C 
ATOM      8  C   UNL     1       3.059   6.400  -8.720  0.00  0.00    +0.003 C 
ENDBRANCH   2   3
BRANCH   2   9
ATOM      9  C   UNL     1       2.792   6.330  -5.535  0.00  0.00    +0.005 A 
ATOM     10  C   UNL     1       3.878   7.174  -5.337  0.00  0.00    -0.002 A 
ATOM     11  C   UNL     1       4.801   6.800  -4.369  0.00  0.00    -0.000 A 
ATOM     12  C   UNL     1       4.771   5.527  -3.837  0.00  0.00    -0.000 A 
ATOM     13  C   UNL     1       4.096   4.549  -4.555  0.00  0.00    -0.000 A 
ATOM     14  C   UNL     1       3.053   4.980  -5.338  0.00  0.00    -0.002 A 
ENDBRANCH   2   9
BRANCH   2  15
ATOM     15  C   UNL     1       0.404   6.429  -6.244  0.00  0.00    +0.052 C 
BRANCH  15  16
ATOM     16  C   UNL     1       0.019   7.002  -4.915  0.00  0.00    +0.075 C 
BRANCH  16  17
ATOM     17  N   UNL     1      -1.403   7.016  -4.800  0.00  0.00    -0.273 NA
ATOM     18  C   UNL     1      -2.061   5.770  -4.919  0.00  0.00    +0.072 C 
ATOM     19  C   UNL     1      -2.702   5.244  -3.673  0.00  0.00    +0.017 C 
ATOM     20  C   UNL     1      -3.426   6.323  -2.880  0.00  0.00    +0.003 C 
ATOM     21  C   UNL     1      -2.362   7.367  -2.558  0.00  0.00    +0.017 C 
ATOM     22  C   UNL     1      -1.945   7.956  -3.881  0.00  0.00    +0.072 C 
ENDBRANCH  16  17
ENDBRANCH  15  16
ENDBRANCH   2  15
TORSDOF 5
ENDMDL
MODEL 8
REMARK VINA RESULT:      -7.6      2.003      5.625
REMARK  Name = 
REMARK  5 active torsions:
REMARK  status: ('A' for Active; 'I' for Inactive)
REMARK    1  A    between atoms: C_2  and  C_3
REMARK    2  A    between atoms: C_2  and  C_11
REMARK    3  A    between atoms: C_2  and  C_17
REMARK    4  A    between atoms: C_3  and  C_4
REMARK    5  A    between atoms: C_4  and  N_5
REMARK                            x       y       z     vdW  Elec       q    Type
REMARK                         _______ _______ _______ _____ _____    ______ ____
ROOT
ATOM      1  O   UNL     1       3.144   7.030  -7.763  0.00  0.00    -0.221 OA
ATOM      2  C   UNL     1       3.301   5.853  -7.302  0.00  0.00    +0.147 C 
ENDROOT
BRANCH   2   3
ATOM      3  C   UNL     1       4.280   5.106  -8.202  0.00  0.00    +0.032 C 
ATOM      4  C   UNL     1       3.484   4.697  -9.436  0.00  0.00    +0.003 C 
ATOM      5  C   UNL     1       3.763   5.705 -10.529  0.00  0.00    +0.000 C 
ATOM      6  C   UNL     1       5.190   5.462 -10.993  0.00  0.00    +0.000 C 
ATOM      7  C   UNL     1       6.115   5.624  -9.809  0.00  0.00    +0.000 C 
ATOM      8  C   UNL     1       5.379   6.067  -8.573  0.00  0.00    +0.003 C 
ENDBRANCH   2   3
BRANCH   2   9
ATOM      9  C   UNL     1       3.933   5.926  -5.969  0.00  0.00    +0.005 A 
ATOM     10  C   UNL     1       3.798   4.838  -5.114  0.00  0.00    -0.002 A 
ATOM     11  C   UNL     1       4.331   4.968  -3.838  0.00  0.00    -0.000 A 
ATOM     12  C   UNL     1       4.724   6.205  -3.373  0.00  0.00    -0.000 A 
ATOM     13  C   UNL     1       4.216   7.324  -4.020  0.00  0.00    -0.000 A 
ATOM     14  C   UNL     1       3.904   7.169  -5.348  0.00  0.00    -0.002 A 
ENDBRANCH   2   9
BRANCH   2  15
ATOM     15  C   UNL     1       2.024   5.065  -7.322  0.00  0.00    +0.052 C 
BRANCH  15  16
ATOM     16  C   UNL     1       0.786   5.907  -7.370  0.00  0.00    +0.075 C 
BRANCH  16  17
ATOM     17  N   UNL     1       0.037   5.714  -6.172  0.00  0.00    -0.273 NA
ATOM     18  C   UNL     1       0.189   6.694  -5.164  0.00  0.00    +0.072 C 
ATOM     19  C   UNL     1      -1.007   7.555  -4.899  0.00  0.00    +0.017 C 
ATOM     20  C   UNL     1      -2.310   6.769  -4.893  0.00  0.00    +0.003 C 
ATOM     21  C   UNL     1      -2.392   6.116  -6.269  0.00  0.00    +0.017 C 
ATOM     22  C   UNL     1      -1.251   5.133  -6.329  0.00  0.00    +0.072 C 
ENDBRANCH  16  17
ENDBRANCH  15  16
ENDBRANCH   2  15
TORSDOF 5
ENDMDL
MODEL 9
REMARK VINA RESULT:      -7.5      2.192      5.428
REMARK  Name = 
REMARK  5 active torsions:
REMARK  status: ('A' for Active; 'I' for Inactive)
REMARK    1  A    between atoms: C_2  and  C_3
REMARK    2  A    between atoms: C_2  and  C_11
REMARK    3  A    between atoms: C_2  and  C_17
REMARK    4  A    between atoms: C_3  and  C_4
REMARK    5  A    between atoms: C_4  and  N_5
REMARK                            x       y       z     vdW  Elec       q    Type
REMARK                         _______ _______ _______ _____ _____    ______ ____
ROOT
ATOM      1  O   UNL     1       1.355   4.247  -7.006  0.00  0.00    -0.221 OA
ATOM      2  C   UNL     1       1.288   5.481  -6.700  0.00  0.00    +0.147 C 
ENDROOT
BRANCH   2   3
ATOM      3  C   UNL     1       1.364   6.305  -7.982  0.00  0.00    +0.032 C 
ATOM      4  C   UNL     1       2.658   7.106  -7.887  0.00  0.00    +0.003 C 
ATOM      5  C   UNL     1       3.719   6.380  -8.684  0.00  0.00    +0.000 C 
ATOM      6  C   UNL     1       3.359   6.554 -10.150  0.00  0.00    +0.000 C 
ATOM      7  C   UNL     1       1.977   5.985 -10.377  0.00  0.00    +0.000 C 
ATOM      8  C   UNL     1       1.420   5.340  -9.137  0.00  0.00    +0.003 C 
ENDBRANCH   2   3
BRANCH   2   9
ATOM      9  C   UNL     1      -0.028   5.770  -6.096  0.00  0.00    +0.005 A 
ATOM     10  C   UNL     1      -1.170   5.470  -6.828  0.00  0.00    -0.002 A 
ATOM     11  C   UNL     1      -2.391   5.828  -6.271  0.00  0.00    -0.000 A 
ATOM     12  C   UNL     1      -2.435   6.676  -5.183  0.00  0.00    -0.000 A 
ATOM     13  C   UNL     1      -1.311   7.452  -4.931  0.00  0.00    -0.000 A 
ATOM     14  C   UNL     1      -0.107   6.928  -5.332  0.00  0.00    -0.002 A 
ENDBRANCH   2   9
BRANCH   2  15
ATOM     15  C   UNL     1       2.449   5.913  -5.852  0.00  0.00    +0.052 C 
BRANCH  15  16
ATOM     16  C   UNL     1       3.085   4.803  -5.073  0.00  0.00    +0.075 C 
BRANCH  16  17
ATOM     17  N   UNL     1       4.242   5.300  -4.402  0.00  0.00    -0.273 NA
ATOM     18  C   UNL     1       4.824   6.477  -4.928  0.00  0.00    +0.072 C 
ATOM     19  C   UNL     1       4.708   7.703  -4.077  0.00  0.00    +0.017 C 
ATOM     20  C   UNL     1       4.954   7.423  -2.601  0.00  0.00    +0.003 C 
ATOM     21  C   UNL     1       3.913   6.379  -2.211  0.00  0.00    +0.017 C 
ATOM     22  C   UNL     1       4.261   5.136  -2.990  0.00  0.00    +0.072 C 
ENDBRANCH  16  17
ENDBRANCH  15  16
ENDBRANCH   2  15
TORSDOF 5
ENDMDL
