MODEL 1
REMARK VINA RESULT:      -7.2      0.000      0.000
REMARK  Name = 
REMARK  3 active torsions:
REMARK  status: ('A' for Active; 'I' for Inactive)
REMARK    1  A    between atoms: C_2  and  C_3
REMARK    2  A    between atoms: C_11  and  C_12
REMARK    3  A    between atoms: C_12  and  N_13
REMARK                            x       y       z     vdW  Elec       q    Type
REMARK                         _______ _______ _______ _____ _____    ______ ____
ROOT
ATOM      1  C   UNL     1      -0.287   5.605  -6.125  0.00  0.00    -0.005 A 
ATOM      2  C   UNL     1       0.787   5.871  -6.931  0.00  0.00    +0.045 A 
ATOM      3  C   UNL     1       1.153   5.253  -8.215  0.00  0.00    +0.175 C 
ATOM      4  C   UNL     1       2.706   5.648  -8.495  0.00  0.00    +0.078 C 
ATOM      5  C   UNL     1       2.325   7.266  -8.596  0.00  0.00    +0.015 C 
ATOM      6  C   UNL     1       2.490   7.638  -7.122  0.00  0.00    +0.046 C 
ATOM      7  O   UNL     1       0.338   5.306  -9.116  0.00  0.00    -0.291 OA
ATOM      8  C   UNL     1       1.628   6.757  -6.269  0.00  0.00    +0.061 A 
ATOM      9  N   UNL     1       1.254   6.695  -4.995  0.00  0.00    -0.254 NA
ATOM     10  C   UNL     1       0.062   6.062  -4.858  0.00  0.00    +0.055 A 
ATOM     11  C   UNL     1      -0.517   5.419  -3.637  0.00  0.00    +0.052 C 
ENDROOT
BRANCH   1  13
ATOM     12  C   UNL     1      -2.672   5.876  -6.391  0.00  0.00    +0.005 C 
ATOM     13  C   UNL     1      -1.578   5.117  -6.635  0.00  0.00    +0.028 C 
ENDBRANCH   1  13
BRANCH   4  14
ATOM     14  C   UNL     1       2.612   5.454 -10.145  0.00  0.00    +0.080 C 
BRANCH  14  15
ATOM     15  N   UNL     1       4.005   5.218 -10.487  0.00  0.00    -0.268 NA
ATOM     16  C   UNL     1       4.469   6.125 -11.521  0.00  0.00    +0.105 C 
ATOM     17  C   UNL     1       5.198   7.274 -10.862  0.00  0.00    +0.159 C 
ATOM     18  O   UNL     1       6.455   6.820 -10.466  0.00  0.00    -0.351 OA
ATOM     19  C   UNL     1       6.293   5.646  -9.760  0.00  0.00    +0.159 C 
ATOM     20  C   UNL     1       4.873   5.409  -9.343  0.00  0.00    +0.105 C 
ENDBRANCH  14  15
ENDBRANCH   4  14
TORSDOF 3
ENDMDL
MODEL 2
REMARK VINA RESULT:      -7.0      2.146      3.871
REMARK  Name = 
REMARK  3 active torsions:
REMARK  status: ('A' for Active; 'I' for Inactive)
REMARK    1  A    between atoms: C_2  and  C_3
REMARK    2  A    between atoms: C_11  and  C_12
REMARK    3  A    between atoms: C_12  and  N_13
REMARK                            x       y       z     vdW  Elec       q    Type
REMARK                         _______ _______ _______ _____ _____    ______ ____
ROOT
ATOM      1  C   UNL     1      -0.932   5.830  -2.970  0.00  0.00    -0.005 A 
ATOM      2  C   UNL     1      -0.823   5.863  -4.334  0.00  0.00    +0.045 A 
ATOM      3  C   UNL     1       0.375   5.685  -5.169  0.00  0.00    +0.175 C 
ATOM      4  C   UNL     1      -0.005   6.237  -6.651  0.00  0.00    +0.078 C 
ATOM      5  C   UNL     1      -1.161   5.054  -6.847  0.00  0.00    +0.015 C 
ATOM      6  C   UNL     1      -2.360   5.798  -6.256  0.00  0.00    +0.046 C 
ATOM      7  O   UNL     1       0.995   4.646  -5.046  0.00  0.00    -0.291 OA
ATOM      8  C   UNL     1      -2.045   6.259  -4.865  0.00  0.00    +0.061 A 
ATOM      9  N   UNL     1      -2.700   6.804  -3.846  0.00  0.00    -0.254 NA
ATOM     10  C   UNL     1      -2.102   6.518  -2.662  0.00  0.00    +0.055 A 
ATOM     11  C   UNL     1      -2.236   7.231  -1.353  0.00  0.00    +0.052 C 
ENDROOT
BRANCH   1  13
ATOM     12  C   UNL     1       1.030   5.653  -1.573  0.00  0.00    +0.005 C 
ATOM     13  C   UNL     1      -0.047   5.032  -2.109  0.00  0.00    +0.028 C 
ENDBRANCH   1  13
BRANCH   4  14
ATOM     14  C   UNL     1       1.148   5.336  -7.444  0.00  0.00    +0.080 C 
BRANCH  14  15
ATOM     15  N   UNL     1       1.237   6.037  -8.714  0.00  0.00    -0.268 NA
ATOM     16  C   UNL     1       2.231   7.095  -8.680  0.00  0.00    +0.105 C 
ATOM     17  C   UNL     1       3.511   6.569  -9.289  0.00  0.00    +0.159 C 
ATOM     18  O   UNL     1       3.353   6.539 -10.674  0.00  0.00    -0.351 OA
ATOM     19  C   UNL     1       2.168   5.893 -10.963  0.00  0.00    +0.159 C 
ATOM     20  C   UNL     1       1.612   5.144  -9.791  0.00  0.00    +0.105 C 
ENDBRANCH  14  15
ENDBRANCH   4  14
TORSDOF 3
ENDMDL
MODEL 3
REMARK VINA RESULT:      -7.0      2.252      7.047
REMARK  Name = 
REMARK  3 active torsions:
REMARK  status: ('A' for Active; 'I' for Inactive)
REMARK    1  A    between atoms: C_2  and  C_3
REMARK    2  A    between atoms: C_11  and  C_12
REMARK    3  A    between atoms: C_12  and  N_13
REMARK                            x       y       z     vdW  Elec       q    Type
REMARK                         _______ _______ _______ _____ _____    ______ ____
ROOT
ATOM      1  C   UNL     1       6.042   6.422 -11.774  0.00  0.00    -0.005 A 
ATOM      2  C   UNL     1       4.739   6.105 -11.502  0.00  0.00    +0.045 A 
ATOM      3  C   UNL     1       3.999   6.243 -10.237  0.00  0.00    +0.175 C 
ATOM      4  C   UNL     1       2.656   5.337 -10.383  0.00  0.00    +0.078 C 
ATOM      5  C   UNL     1       2.086   6.295 -11.619  0.00  0.00    +0.015 C 
ATOM      6  C   UNL     1       2.720   5.556 -12.800  0.00  0.00    +0.046 C 
ATOM      7  O   UNL     1       3.936   7.353  -9.744  0.00  0.00    -0.291 OA
ATOM      8  C   UNL     1       4.203   5.454 -12.607  0.00  0.00    +0.061 A 
ATOM      9  N   UNL     1       5.256   5.068 -13.320  0.00  0.00    -0.254 NA
ATOM     10  C   UNL     1       6.391   5.679 -12.897  0.00  0.00    +0.055 A 
ATOM     11  C   UNL     1       7.811   5.259 -13.114  0.00  0.00    +0.052 C 
ENDROOT
BRANCH   1  13
ATOM     12  C   UNL     1       7.645   7.129 -10.112  0.00  0.00    +0.005 C 
ATOM     13  C   UNL     1       6.774   7.493 -11.081  0.00  0.00    +0.028 C 
ENDBRANCH   1  13
BRANCH   4  14
ATOM     14  C   UNL     1       1.787   6.178  -9.240  0.00  0.00    +0.080 C 
BRANCH  14  15
ATOM     15  N   UNL     1       1.324   5.101  -8.380  0.00  0.00    -0.268 NA
ATOM     16  C   UNL     1       2.420   4.268  -7.920  0.00  0.00    +0.105 C 
ATOM     17  C   UNL     1       2.819   4.721  -6.534  0.00  0.00    +0.159 C 
ATOM     18  O   UNL     1       1.867   4.249  -5.632  0.00  0.00    -0.351 OA
ATOM     19  C   UNL     1       0.615   4.587  -6.105  0.00  0.00    +0.159 C 
ATOM     20  C   UNL     1       0.662   5.611  -7.198  0.00  0.00    +0.105 C 
ENDBRANCH  14  15
ENDBRANCH   4  14
TORSDOF 3
ENDMDL
MODEL 4
REMARK VINA RESULT:      -6.9      1.817      6.658
REMARK  Name = 
REMARK  3 active torsions:
REMARK  status: ('A' for Active; 'I' for Inactive)
REMARK    1  A    between atoms: C_2  and  C_3
REMARK    2  A    between atoms: C_11  and  C_12
REMARK    3  A    between atoms: C_12  and  N_13
REMARK                            x       y       z     vdW  Elec       q    Type
REMARK                         _______ _______ _______ _____ _____    ______ ____
ROOT
ATOM      1  C   UNL     1       5.110   5.636  -9.560  0.00  0.00    -0.005 A 
ATOM      2  C   UNL     1       4.052   5.875  -8.724  0.00  0.00    +0.045 A 
ATOM      3  C   UNL     1       3.769   5.293  -7.403  0.00  0.00    +0.175 C 
ATOM      4  C   UNL     1       2.207   5.610  -7.080  0.00  0.00    +0.078 C 
ATOM      5  C   UNL     1       2.496   7.250  -7.059  0.00  0.00    +0.015 C 
ATOM      6  C   UNL     1       2.256   7.549  -8.541  0.00  0.00    +0.046 C 
ATOM      7  O   UNL     1       4.612   5.431  -6.537  0.00  0.00    -0.291 OA
ATOM      8  C   UNL     1       3.138   6.683  -9.389  0.00  0.00    +0.061 A 
ATOM      9  N   UNL     1       3.468   6.587 -10.673  0.00  0.00    -0.254 NA
ATOM     10  C   UNL     1       4.689   6.018 -10.830  0.00  0.00    +0.055 A 
ATOM     11  C   UNL     1       5.261   5.356 -12.044  0.00  0.00    +0.052 C 
ENDROOT
BRANCH   1  13
ATOM     12  C   UNL     1       7.489   6.031  -9.430  0.00  0.00    +0.005 C 
ATOM     13  C   UNL     1       6.444   5.245  -9.080  0.00  0.00    +0.028 C 
ENDBRANCH   1  13
BRANCH   4  14
ATOM     14  C   UNL     1       2.371   5.493  -5.428  0.00  0.00    +0.080 C 
BRANCH  14  15
ATOM     15  N   UNL     1       1.012   5.170  -5.026  0.00  0.00    -0.268 NA
ATOM     16  C   UNL     1       0.483   6.137  -4.081  0.00  0.00    +0.105 C 
ATOM     17  C   UNL     1      -0.361   7.136  -4.838  0.00  0.00    +0.159 C 
ATOM     18  O   UNL     1      -1.577   6.530  -5.150  0.00  0.00    -0.351 OA
ATOM     19  C   UNL     1      -1.318   5.307  -5.732  0.00  0.00    +0.159 C 
ATOM     20  C   UNL     1       0.111   5.156  -6.159  0.00  0.00    +0.105 C 
ENDBRANCH  14  15
ENDBRANCH   4  14
TORSDOF 3
ENDMDL
MODEL 5
REMARK VINA RESULT:      -6.7      2.345      3.616
REMARK  Name = 
REMARK  3 active torsions:
REMARK  status: ('A' for Active; 'I' for Inactive)
REMARK    1  A    between atoms: C_2  and  C_3
REMARK    2  A    between atoms: C_11  and  C_12
REMARK    3  A    between atoms: C_12  and  N_13
REMARK                            x       y       z     vdW  Elec       q    Type
REMARK                         _______ _______ _______ _____ _____    ______ ____
ROOT
ATOM      1  C   UNL     1      -1.247   6.277  -4.123  0.00  0.00    -0.005 A 
ATOM      2  C   UNL     1       0.096   6.017  -4.185  0.00  0.00    +0.045 A 
ATOM      3  C   UNL     1       1.012   6.151  -5.329  0.00  0.00    +0.175 C 
ATOM      4  C   UNL     1       2.356   5.318  -4.948  0.00  0.00    +0.078 C 
ATOM      5  C   UNL     1       2.689   6.343  -3.679  0.00  0.00    +0.015 C 
ATOM      6  C   UNL     1       1.917   5.612  -2.579  0.00  0.00    +0.046 C 
ATOM      7  O   UNL     1       1.100   7.246  -5.850  0.00  0.00    -0.291 OA
ATOM      8  C   UNL     1       0.487   5.429  -2.988  0.00  0.00    +0.061 A 
ATOM      9  N   UNL     1      -0.644   5.015  -2.426  0.00  0.00    -0.254 NA
ATOM     10  C   UNL     1      -1.728   5.554  -3.037  0.00  0.00    +0.055 A 
ATOM     11  C   UNL     1      -3.145   5.072  -3.020  0.00  0.00    +0.052 C 
ENDROOT
BRANCH   1  13
ATOM     12  C   UNL     1      -1.950   8.558  -4.492  0.00  0.00    +0.005 C 
ATOM     13  C   UNL     1      -1.911   7.289  -4.959  0.00  0.00    +0.028 C 
ENDBRANCH   1  13
BRANCH   4  14
ATOM     14  C   UNL     1       3.351   6.164  -5.980  0.00  0.00    +0.080 C 
BRANCH  14  15
ATOM     15  N   UNL     1       3.726   5.130  -6.930  0.00  0.00    -0.268 NA
ATOM     16  C   UNL     1       2.583   4.342  -7.352  0.00  0.00    +0.105 C 
ATOM     17  C   UNL     1       2.093   4.880  -8.678  0.00  0.00    +0.159 C 
ATOM     18  O   UNL     1       2.967   4.445  -9.673  0.00  0.00    -0.351 OA
ATOM     19  C   UNL     1       4.257   4.734  -9.277  0.00  0.00    +0.159 C 
ATOM     20  C   UNL     1       4.311   5.695  -8.128  0.00  0.00    +0.105 C 
ENDBRANCH  14  15
ENDBRANCH   4  14
TORSDOF 3
ENDMDL
MODEL 6
REMARK VINA RESULT:      -6.7      2.888      3.601
REMARK  Name = 
REMARK  3 active torsions:
REMARK  status: ('A' for Active; 'I' for Inactive)
REMARK    1  A    between atoms: C_2  and  C_3
REMARK    2  A    between atoms: C_11  and  C_12
REMARK    3  A    between atoms: C_12  and  N_13
REMARK                            x       y       z     vdW  Elec       q    Type
REMARK                         _______ _______ _______ _____ _____    ______ ____
ROOT
ATOM      1  C   UNL     1      -0.138   5.637  -3.416  0.00  0.00    -0.005 A 
ATOM      2  C   UNL     1       0.343   5.719  -4.695  0.00  0.00    +0.045 A 
ATOM      3  C   UNL     1      -0.332   5.387  -5.959  0.00  0.00    +0.175 C 
ATOM      4  C   UNL     1       0.830   5.275  -7.092  0.00  0.00    +0.078 C 
ATOM      5  C   UNL     1       1.215   6.886  -6.923  0.00  0.00    +0.015 C 
ATOM      6  C   UNL     1       2.268   6.761  -5.820  0.00  0.00    +0.046 C 
ATOM      7  O   UNL     1      -1.373   5.964  -6.208  0.00  0.00    -0.291 OA
ATOM      8  C   UNL     1       1.694   6.041  -4.638  0.00  0.00    +0.061 A 
ATOM      9  N   UNL     1       2.057   5.769  -3.389  0.00  0.00    -0.254 NA
ATOM     10  C   UNL     1       0.979   5.580  -2.589  0.00  0.00    +0.055 A 
ATOM     11  C   UNL     1       0.907   4.873  -1.272  0.00  0.00    +0.052 C 
ENDROOT
BRANCH   1  13
ATOM     12  C   UNL     1      -2.032   7.046  -2.902  0.00  0.00    +0.005 C 
ATOM     13  C   UNL     1      -1.562   5.788  -3.078  0.00  0.00    +0.028 C 
ENDBRANCH   1  13
BRANCH   4  14
ATOM     14  C   UNL     1      -0.184   5.583  -8.374  0.00  0.00    +0.080 C 
BRANCH  14  15
ATOM     15  N   UNL     1       0.770   5.790  -9.451  0.00  0.00    -0.268 NA
ATOM     16  C   UNL     1       1.063   4.557 -10.159  0.00  0.00    +0.105 C 
ATOM     17  C   UNL     1       0.210   4.504 -11.407  0.00  0.00    +0.159 C 
ATOM     18  O   UNL     1       0.766   5.369 -12.349  0.00  0.00    -0.351 OA
ATOM     19  C   UNL     1       0.981   6.591 -11.745  0.00  0.00    +0.159 C 
ATOM     20  C   UNL     1       0.268   6.727 -10.435  0.00  0.00    +0.105 C 
ENDBRANCH  14  15
ENDBRANCH   4  14
TORSDOF 3
ENDMDL
MODEL 7
REMARK VINA RESULT:      -6.7      2.111      6.841
REMARK  Name = 
REMARK  3 active torsions:
REMARK  status: ('A' for Active; 'I' for Inactive)
REMARK    1  A    between atoms: C_2  and  C_3
REMARK    2  A    between atoms: C_11  and  C_12
REMARK    3  A    between atoms: C_12  and  N_13
REMARK                            x       y       z     vdW  Elec       q    Type
REMARK                         _______ _______ _______ _____ _____    ______ ____
ROOT
ATOM      1  C   UNL     1       5.476   5.467 -12.181  0.00  0.00    -0.005 A 
ATOM      2  C   UNL     1       4.975   5.689 -10.927  0.00  0.00    +0.045 A 
ATOM      3  C   UNL     1       3.609   6.067 -10.531  0.00  0.00    +0.175 C 
ATOM      4  C   UNL     1       3.699   6.596  -8.996  0.00  0.00    +0.078 C 
ATOM      5  C   UNL     1       4.179   5.096  -8.457  0.00  0.00    +0.015 C 
ATOM      6  C   UNL     1       5.692   5.265  -8.610  0.00  0.00    +0.046 C 
ATOM      7  O   UNL     1       2.703   5.330 -10.870  0.00  0.00    -0.291 OA
ATOM      8  C   UNL     1       6.026   5.654 -10.018  0.00  0.00    +0.061 A 
ATOM      9  N   UNL     1       7.121   5.797 -10.758  0.00  0.00    -0.254 NA
ATOM     10  C   UNL     1       6.854   5.627 -12.077  0.00  0.00    +0.055 A 
ATOM     11  C   UNL     1       7.651   6.087 -13.257  0.00  0.00    +0.052 C 
ENDROOT
BRANCH   1  13
ATOM     12  C   UNL     1       4.118   5.886 -14.134  0.00  0.00    +0.005 C 
ATOM     13  C   UNL     1       4.660   4.968 -13.299  0.00  0.00    +0.028 C 
ENDBRANCH   1  13
BRANCH   4  14
ATOM     14  C   UNL     1       2.103   6.288  -8.640  0.00  0.00    +0.080 C 
BRANCH  14  15
ATOM     15  N   UNL     1       2.198   5.834  -7.262  0.00  0.00    -0.268 NA
ATOM     16  C   UNL     1       1.995   6.918  -6.319  0.00  0.00    +0.105 C 
ATOM     17  C   UNL     1       0.557   6.887  -5.853  0.00  0.00    +0.159 C 
ATOM     18  O   UNL     1       0.422   5.846  -4.936  0.00  0.00    -0.351 OA
ATOM     19  C   UNL     1       0.964   4.704  -5.488  0.00  0.00    +0.159 C 
ATOM     20  C   UNL     1       1.201   4.827  -6.963  0.00  0.00    +0.105 C 
ENDBRANCH  14  15
ENDBRANCH   4  14
TORSDOF 3
ENDMDL
MODEL 8
REMARK VINA RESULT:      -6.7      1.932      2.964
REMARK  Name = 
REMARK  3 active torsions:
REMARK  status: ('A' for Active; 'I' for Inactive)
REMARK    1  A    between atoms: C_2  and  C_3
REMARK    2  A    between atoms: C_11  and  C_12
REMARK    3  A    between atoms: C_12  and  N_13
REMARK                            x       y       z     vdW  Elec       q    Type
REMARK                         _______ _______ _______ _____ _____    ______ ____
ROOT
ATOM      1  C   UNL     1       1.612   5.704  -5.857  0.00  0.00    -0.005 A 
ATOM      2  C   UNL     1       2.328   5.552  -7.014  0.00  0.00    +0.045 A 
ATOM      3  C   UNL     1       3.726   5.917  -7.289  0.00  0.00    +0.175 C 
ATOM      4  C   UNL     1       3.901   5.901  -8.906  0.00  0.00    +0.078 C 
ATOM      5  C   UNL     1       3.593   4.266  -8.970  0.00  0.00    +0.015 C 
ATOM      6  C   UNL     1       2.073   4.319  -9.129  0.00  0.00    +0.046 C 
ATOM      7  O   UNL     1       4.583   5.429  -6.578  0.00  0.00    -0.291 OA
ATOM      8  C   UNL     1       1.466   5.113  -8.012  0.00  0.00    +0.061 A 
ATOM      9  N   UNL     1       0.248   5.377  -7.552  0.00  0.00    -0.254 NA
ATOM     10  C   UNL     1       0.272   5.678  -6.229  0.00  0.00    +0.055 A 
ATOM     11  C   UNL     1      -0.750   6.416  -5.422  0.00  0.00    +0.052 C 
ENDROOT
BRANCH   1  13
ATOM     12  C   UNL     1       2.584   6.876  -3.982  0.00  0.00    +0.005 C 
ATOM     13  C   UNL     1       2.225   5.687  -4.520  0.00  0.00    +0.028 C 
ENDBRANCH   1  13
BRANCH   4  14
ATOM     14  C   UNL     1       5.547   5.658  -8.874  0.00  0.00    +0.080 C 
BRANCH  14  15
ATOM     15  N   UNL     1       5.860   5.618 -10.293  0.00  0.00    -0.268 NA
ATOM     16  C   UNL     1       5.245   6.718 -11.013  0.00  0.00    +0.105 C 
ATOM     17  C   UNL     1       6.273   7.815 -11.183  0.00  0.00    +0.159 C 
ATOM     18  O   UNL     1       7.154   7.431 -12.193  0.00  0.00    -0.351 OA
ATOM     19  C   UNL     1       7.590   6.149 -11.926  0.00  0.00    +0.159 C 
ATOM     20  C   UNL     1       7.286   5.710 -10.527  0.00  0.00    +0.105 C 
ENDBRANCH  14  15
ENDBRANCH   4  14
TORSDOF 3
ENDMDL
MODEL 9
REMARK VINA RESULT:      -6.7      2.545      6.770
REMARK  Name = 
REMARK  3 active torsions:
REMARK  status: ('A' for Active; 'I' for Inactive)
REMARK    1  A    between atoms: C_2  and  C_3
REMARK    2  A    between atoms: C_11  and  C_12
REMARK    3  A    between atoms: C_12  and  N_13
REMARK                            x       y       z     vdW  Elec       q    Type
REMARK                         _______ _______ _______ _____ _____    ______ ____
ROOT
ATOM      1  C   UNL     1       1.473   5.385  -9.598  0.00  0.00    -0.005 A 
ATOM      2  C   UNL     1       1.323   5.340  -8.238  0.00  0.00    +0.045 A 
ATOM      3  C   UNL     1       0.179   5.774  -7.420  0.00  0.00    +0.175 C 
ATOM      4  C   UNL     1       0.716   5.877  -5.888  0.00  0.00    +0.078 C 
ATOM      5  C   UNL     1       1.017   4.240  -5.833  0.00  0.00    +0.015 C 
ATOM      6  C   UNL     1       2.458   4.250  -6.345  0.00  0.00    +0.046 C 
ATOM      7  O   UNL     1      -0.901   5.270  -7.655  0.00  0.00    -0.291 OA
ATOM      8  C   UNL     1       2.529   4.941  -7.673  0.00  0.00    +0.061 A 
ATOM      9  N   UNL     1       3.432   5.128  -8.630  0.00  0.00    -0.254 NA
ATOM     10  C   UNL     1       2.843   5.337  -9.834  0.00  0.00    +0.055 A 
ATOM     11  C   UNL     1       3.421   5.980 -11.056  0.00  0.00    +0.052 C 
ENDROOT
BRANCH   1  13
ATOM     12  C   UNL     1      -0.188   6.459 -10.984  0.00  0.00    +0.005 C 
ATOM     13  C   UNL     1       0.345   5.297 -10.537  0.00  0.00    +0.028 C 
ENDBRANCH   1  13
BRANCH   4  14
ATOM     14  C   UNL     1      -0.785   5.692  -5.193  0.00  0.00    +0.080 C 
BRANCH  14  15
ATOM     15  N   UNL     1      -0.667   6.545  -4.022  0.00  0.00    -0.268 NA
ATOM     16  C   UNL     1      -1.777   7.474  -3.915  0.00  0.00    +0.105 C 
ATOM     17  C   UNL     1      -2.792   6.902  -2.952  0.00  0.00    +0.159 C 
ATOM     18  O   UNL     1      -2.308   7.076  -1.657  0.00  0.00    -0.351 OA
ATOM     19  C   UNL     1      -1.011   6.607  -1.609  0.00  0.00    +0.159 C 
ATOM     20  C   UNL     1      -0.650   5.771  -2.799  0.00  0.00    +0.105 C 
ENDBRANCH  14  15
ENDBRANCH   4  14
TORSDOF 3
ENDMDL
