MODEL 1
REMARK VINA RESULT:      -8.4      0.000      0.000
REMARK  Name = 
REMARK  7 active torsions:
REMARK  status: ('A' for Active; 'I' for Inactive)
REMARK    1  A    between atoms: C_5  and  C_6
REMARK    2  A    between atoms: C_6  and  C_7
REMARK    3  A    between atoms: C_7  and  C_8
REMARK    4  A    between atoms: C_8  and  C_9
REMARK    5  A    between atoms: C_8  and  S_15
REMARK    6  A    between atoms: C_9  and  N_10
REMARK    7  A    between atoms: S_15  and  C_16
REMARK                            x       y       z     vdW  Elec       q    Type
REMARK                         _______ _______ _______ _____ _____    ______ ____
ROOT
ATOM      1  C   UNL     1       3.137   5.884  -6.899  0.00  0.00    +0.075 C 
ENDROOT
BRANCH   1   2
ATOM      2  C   UNL     1       3.558   5.168  -8.259  0.00  0.00    +0.018 C 
BRANCH   2   3
ATOM      3  C   UNL     1       3.814   6.324  -9.190  0.00  0.00    +0.027 C 
BRANCH   3   8
ATOM      4 CL   UNL     1       8.936   5.881 -12.010  0.00  0.00    -0.082 Cl
ATOM      5  C   UNL     1       7.642   6.192 -11.037  0.00  0.00    +0.058 A 
ATOM      6  C   UNL     1       6.700   7.145 -11.398  0.00  0.00    +0.011 A 
ATOM      7  C   UNL     1       5.449   7.136 -10.810  0.00  0.00    -0.003 A 
ATOM      8  C   UNL     1       5.198   6.365  -9.700  0.00  0.00    -0.022 A 
ATOM      9  C   UNL     1       6.232   5.616  -9.206  0.00  0.00    -0.003 A 
ATOM     10  C   UNL     1       7.495   5.651  -9.766  0.00  0.00    +0.011 A 
ENDBRANCH   3   8
ENDBRANCH   2   3
ENDBRANCH   1   2
BRANCH   1  11
ATOM     11  C   UNL     1       4.322   5.225  -6.059  0.00  0.00    +0.119 C 
BRANCH  11  12
ATOM     12  N   UNL     1       4.616   6.111  -4.950  0.00  0.00    -0.307 N 
ATOM     13  C   UNL     1       4.836   5.636  -3.702  0.00  0.00    +0.179 A 
ATOM     14  N   UNL     1       4.345   6.519  -2.798  0.00  0.00    -0.222 NA
ATOM     15  C   UNL     1       4.021   7.641  -3.445  0.00  0.00    +0.119 A 
ATOM     16  C   UNL     1       4.300   7.403  -4.781  0.00  0.00    +0.098 A 
ENDBRANCH  11  12
ENDBRANCH   1  11
BRANCH   1  17
ATOM     17  S   UNL     1       1.839   4.599  -6.348  0.00  0.00    -0.111 S 
BRANCH  17  18
ATOM     18  C   UNL     1       0.344   5.399  -5.890  0.00  0.00    +0.046 A 
ATOM     19  C   UNL     1      -0.587   5.695  -6.878  0.00  0.00    +0.064 A 
ATOM     20 CL   UNL     1      -0.138   5.418  -8.558  0.00  0.00    -0.082 Cl
ATOM     21  C   UNL     1      -1.952   5.715  -6.615  0.00  0.00    +0.012 A 
ATOM     22  C   UNL     1      -2.397   5.569  -5.324  0.00  0.00    +0.002 A 
ATOM     23  C   UNL     1      -1.469   5.577  -4.293  0.00  0.00    +0.012 A 
ATOM     24  C   UNL     1      -0.113   5.517  -4.583  0.00  0.00    +0.064 A 
ATOM     25 CL   UNL     1       1.116   5.439  -3.338  0.00  0.00    -0.082 Cl
ENDBRANCH  17  18
ENDBRANCH   1  17
TORSDOF 7
ENDMDL
MODEL 2
REMARK VINA RESULT:      -8.1      3.738      8.036
REMARK  Name = 
REMARK  7 active torsions:
REMARK  status: ('A' for Active; 'I' for Inactive)
REMARK    1  A    between atoms: C_5  and  C_6
REMARK    2  A    between atoms: C_6  and  C_7
REMARK    3  A    between atoms: C_7  and  C_8
REMARK    4  A    between atoms: C_8  and  C_9
REMARK    5  A    between atoms: C_8  and  S_15
REMARK    6  A    between atoms: C_9  and  N_10
REMARK    7  A    between atoms: S_15  and  C_16
REMARK                            x       y       z     vdW  Elec       q    Type
REMARK                         _______ _______ _______ _____ _____    ______ ____
ROOT
ATOM      1  C   UNL     1       0.706   5.744  -6.844  0.00  0.00    +0.075 C 
ENDROOT
BRANCH   1   2
ATOM      2  C   UNL     1      -0.578   4.843  -6.560  0.00  0.00    +0.018 C 
BRANCH   2   3
ATOM      3  C   UNL     1      -1.702   5.845  -6.546  0.00  0.00    +0.027 C 
BRANCH   3   8
ATOM      4 CL   UNL     1      -2.369   7.248  -0.892  0.00  0.00    -0.082 Cl
ATOM      5  C   UNL     1      -2.471   6.919  -2.504  0.00  0.00    +0.058 A 
ATOM      6  C   UNL     1      -2.097   7.870  -3.444  0.00  0.00    +0.011 A 
ATOM      7  C   UNL     1      -1.812   7.484  -4.740  0.00  0.00    -0.003 A 
ATOM      8  C   UNL     1      -2.130   6.222  -5.185  0.00  0.00    -0.022 A 
ATOM      9  C   UNL     1      -2.738   5.376  -4.298  0.00  0.00    -0.003 A 
ATOM     10  C   UNL     1      -3.060   5.768  -3.013  0.00  0.00    +0.011 A 
ENDBRANCH   3   8
ENDBRANCH   2   3
ENDBRANCH   1   2
BRANCH   1  11
ATOM     11  C   UNL     1       1.305   4.740  -7.929  0.00  0.00    +0.119 C 
BRANCH  11  12
ATOM     12  N   UNL     1       1.125   5.348  -9.232  0.00  0.00    -0.307 N 
ATOM     13  C   UNL     1       1.370   6.662  -9.441  0.00  0.00    +0.179 A 
ATOM     14  N   UNL     1       0.491   7.138 -10.356  0.00  0.00    -0.222 NA
ATOM     15  C   UNL     1      -0.157   6.100 -10.891  0.00  0.00    +0.119 A 
ATOM     16  C   UNL     1       0.333   4.975 -10.248  0.00  0.00    +0.098 A 
ENDBRANCH  11  12
ENDBRANCH   1  11
BRANCH   1  17
ATOM     17  S   UNL     1       1.782   5.073  -5.418  0.00  0.00    -0.111 S 
BRANCH  17  18
ATOM     18  C   UNL     1       2.823   6.342  -4.789  0.00  0.00    +0.046 A 
ATOM     19  C   UNL     1       2.554   6.866  -3.531  0.00  0.00    +0.064 A 
ATOM     20 CL   UNL     1       1.079   6.359  -2.713  0.00  0.00    -0.082 Cl
ATOM     21  C   UNL     1       3.566   7.345  -2.706  0.00  0.00    +0.012 A 
ATOM     22  C   UNL     1       4.850   7.428  -3.185  0.00  0.00    +0.002 A 
ATOM     23  C   UNL     1       5.075   7.194  -4.534  0.00  0.00    +0.012 A 
ATOM     24  C   UNL     1       4.059   6.679  -5.326  0.00  0.00    +0.064 A 
ATOM     25 CL   UNL     1       4.289   6.279  -7.016  0.00  0.00    -0.082 Cl
ENDBRANCH  17  18
ENDBRANCH   1  17
TORSDOF 7
ENDMDL
MODEL 3
REMARK VINA RESULT:      -8.0      3.178      7.713
REMARK  Name = 
REMARK  7 active torsions:
REMARK  status: ('A' for Active; 'I' for Inactive)
REMARK    1  A    between atoms: C_5  and  C_6
REMARK    2  A    between atoms: C_6  and  C_7
REMARK    3  A    between atoms: C_7  and  C_8
REMARK    4  A    between atoms: C_8  and  C_9
REMARK    5  A    between atoms: C_8  and  S_15
REMARK    6  A    between atoms: C_9  and  N_10
REMARK    7  A    between atoms: S_15  and  C_16
REMARK                            x       y       z     vdW  Elec       q    Type
REMARK                         _______ _______ _______ _____ _____    ______ ____
ROOT
ATOM      1  C   UNL     1       0.324   5.817  -6.871  0.00  0.00    +0.075 C 
ENDROOT
BRANCH   1   2
ATOM      2  C   UNL     1      -0.958   4.942  -6.513  0.00  0.00    +0.018 C 
BRANCH   2   3
ATOM      3  C   UNL     1      -2.050   5.972  -6.383  0.00  0.00    +0.027 C 
BRANCH   3   8
ATOM      4 CL   UNL     1      -2.204   7.251  -0.662  0.00  0.00    -0.082 Cl
ATOM      5  C   UNL     1      -2.449   6.965  -2.267  0.00  0.00    +0.058 A 
ATOM      6  C   UNL     1      -2.128   7.928  -3.214  0.00  0.00    +0.011 A 
ATOM      7  C   UNL     1      -1.963   7.567  -4.537  0.00  0.00    -0.003 A 
ATOM      8  C   UNL     1      -2.352   6.326  -4.982  0.00  0.00    -0.022 A 
ATOM      9  C   UNL     1      -2.907   5.474  -4.067  0.00  0.00    -0.003 A 
ATOM     10  C   UNL     1      -3.111   5.843  -2.751  0.00  0.00    +0.011 A 
ENDBRANCH   3   8
ENDBRANCH   2   3
ENDBRANCH   1   2
BRANCH   1  11
ATOM     11  C   UNL     1       0.401   5.285  -8.373  0.00  0.00    +0.119 C 
BRANCH  11  12
ATOM     12  N   UNL     1       1.321   6.144  -9.093  0.00  0.00    -0.307 N 
ATOM     13  C   UNL     1       1.941   5.730 -10.223  0.00  0.00    +0.179 A 
ATOM     14  N   UNL     1       3.183   6.270 -10.271  0.00  0.00    -0.222 NA
ATOM     15  C   UNL     1       3.276   7.190  -9.308  0.00  0.00    +0.119 A 
ATOM     16  C   UNL     1       2.058   7.172  -8.648  0.00  0.00    +0.098 A 
ENDBRANCH  11  12
ENDBRANCH   1  11
BRANCH   1  17
ATOM     17  S   UNL     1       1.633   4.592  -6.218  0.00  0.00    -0.111 S 
BRANCH  17  18
ATOM     18  C   UNL     1       2.658   5.374  -5.023  0.00  0.00    +0.046 A 
ATOM     19  C   UNL     1       3.958   5.714  -5.376  0.00  0.00    +0.064 A 
ATOM     20 CL   UNL     1       4.566   5.179  -6.940  0.00  0.00    -0.082 Cl
ATOM     21  C   UNL     1       4.601   6.817  -4.825  0.00  0.00    +0.012 A 
ATOM     22  C   UNL     1       3.996   7.519  -3.812  0.00  0.00    +0.002 A 
ATOM     23  C   UNL     1       2.837   7.009  -3.246  0.00  0.00    +0.012 A 
ATOM     24  C   UNL     1       2.195   5.931  -3.838  0.00  0.00    +0.064 A 
ATOM     25 CL   UNL     1       0.683   5.283  -3.233  0.00  0.00    -0.082 Cl
ENDBRANCH  17  18
ENDBRANCH   1  17
TORSDOF 7
ENDMDL
MODEL 4
REMARK VINA RESULT:      -7.7      2.816      3.951
REMARK  Name = 
REMARK  7 active torsions:
REMARK  status: ('A' for Active; 'I' for Inactive)
REMARK    1  A    between atoms: C_5  and  C_6
REMARK    2  A    between atoms: C_6  and  C_7
REMARK    3  A    between atoms: C_7  and  C_8
REMARK    4  A    between atoms: C_8  and  C_9
REMARK    5  A    between atoms: C_8  and  S_15
REMARK    6  A    between atoms: C_9  and  N_10
REMARK    7  A    between atoms: S_15  and  C_16
REMARK                            x       y       z     vdW  Elec       q    Type
REMARK                         _______ _______ _______ _____ _____    ______ ____
ROOT
ATOM      1  C   UNL     1       4.456   5.873  -8.524  0.00  0.00    +0.075 C 
ENDROOT
BRANCH   1   2
ATOM      2  C   UNL     1       5.762   4.991  -8.761  0.00  0.00    +0.018 C 
BRANCH   2   3
ATOM      3  C   UNL     1       6.835   6.022  -8.989  0.00  0.00    +0.027 C 
BRANCH   3   8
ATOM      4 CL   UNL     1       7.088   6.499 -14.828  0.00  0.00    -0.082 Cl
ATOM      5  C   UNL     1       7.285   6.493 -13.192  0.00  0.00    +0.058 A 
ATOM      6  C   UNL     1       6.727   7.495 -12.409  0.00  0.00    +0.011 A 
ATOM      7  C   UNL     1       6.555   7.296 -11.053  0.00  0.00    -0.003 A 
ATOM      8  C   UNL     1       7.148   6.232 -10.416  0.00  0.00    -0.022 A 
ATOM      9  C   UNL     1       7.912   5.389 -11.177  0.00  0.00    -0.003 A 
ATOM     10  C   UNL     1       8.120   5.604 -12.526  0.00  0.00    +0.011 A 
ENDBRANCH   3   8
ENDBRANCH   2   3
ENDBRANCH   1   2
BRANCH   1  11
ATOM     11  C   UNL     1       3.987   5.032  -7.253  0.00  0.00    +0.119 C 
BRANCH  11  12
ATOM     12  N   UNL     1       4.156   5.874  -6.085  0.00  0.00    -0.307 N 
ATOM     13  C   UNL     1       4.592   5.373  -4.906  0.00  0.00    +0.179 A 
ATOM     14  N   UNL     1       3.986   6.034  -3.891  0.00  0.00    -0.222 NA
ATOM     15  C   UNL     1       3.345   7.088  -4.403  0.00  0.00    +0.119 A 
ATOM     16  C   UNL     1       3.554   7.030  -5.771  0.00  0.00    +0.098 A 
ENDBRANCH  11  12
ENDBRANCH   1  11
BRANCH   1  17
ATOM     17  S   UNL     1       3.319   4.942  -9.740  0.00  0.00    -0.111 S 
BRANCH  17  18
ATOM     18  C   UNL     1       2.283   6.073 -10.596  0.00  0.00    +0.046 A 
ATOM     19  C   UNL     1       2.477   6.260 -11.959  0.00  0.00    +0.064 A 
ATOM     20 CL   UNL     1       3.868   5.491 -12.717  0.00  0.00    -0.082 Cl
ATOM     21  C   UNL     1       1.425   6.577 -12.811  0.00  0.00    +0.012 A 
ATOM     22  C   UNL     1       0.184   6.844 -12.288  0.00  0.00    +0.002 A 
ATOM     23  C   UNL     1       0.050   6.958 -10.912  0.00  0.00    +0.012 A 
ATOM     24  C   UNL     1       1.103   6.597 -10.083  0.00  0.00    +0.064 A 
ATOM     25 CL   UNL     1       0.983   6.633  -8.335  0.00  0.00    -0.082 Cl
ENDBRANCH  17  18
ENDBRANCH   1  17
TORSDOF 7
ENDMDL
MODEL 5
REMARK VINA RESULT:      -7.6      1.338      2.633
REMARK  Name = 
REMARK  7 active torsions:
REMARK  status: ('A' for Active; 'I' for Inactive)
REMARK    1  A    between atoms: C_5  and  C_6
REMARK    2  A    between atoms: C_6  and  C_7
REMARK    3  A    between atoms: C_7  and  C_8
REMARK    4  A    between atoms: C_8  and  C_9
REMARK    5  A    between atoms: C_8  and  S_15
REMARK    6  A    between atoms: C_9  and  N_10
REMARK    7  A    between atoms: S_15  and  C_16
REMARK                            x       y       z     vdW  Elec       q    Type
REMARK                         _______ _______ _______ _____ _____    ______ ____
ROOT
ATOM      1  C   UNL     1       2.278   6.161  -5.801  0.00  0.00    +0.075 C 
ENDROOT
BRANCH   1   2
ATOM      2  C   UNL     1       2.655   5.373  -7.134  0.00  0.00    +0.018 C 
BRANCH   2   3
ATOM      3  C   UNL     1       2.820   6.475  -8.148  0.00  0.00    +0.027 C 
BRANCH   3   8
ATOM      4 CL   UNL     1       8.021   6.503 -10.856  0.00  0.00    -0.082 Cl
ATOM      5  C   UNL     1       6.487   6.284 -10.292  0.00  0.00    +0.058 A 
ATOM      6  C   UNL     1       6.247   5.462  -9.200  0.00  0.00    +0.011 A 
ATOM      7  C   UNL     1       5.063   5.577  -8.497  0.00  0.00    -0.003 A 
ATOM      8  C   UNL     1       4.013   6.309  -8.999  0.00  0.00    -0.022 A 
ATOM      9  C   UNL     1       4.190   6.910 -10.216  0.00  0.00    -0.003 A 
ATOM     10  C   UNL     1       5.358   6.767 -10.942  0.00  0.00    +0.011 A 
ENDBRANCH   3   8
ENDBRANCH   2   3
ENDBRANCH   1   2
BRANCH   1  11
ATOM     11  C   UNL     1       3.582   5.682  -5.019  0.00  0.00    +0.119 C 
BRANCH  11  12
ATOM     12  N   UNL     1       3.499   6.205  -3.670  0.00  0.00    -0.307 N 
ATOM     13  C   UNL     1       3.322   7.525  -3.431  0.00  0.00    +0.179 A 
ATOM     14  N   UNL     1       3.997   7.867  -2.306  0.00  0.00    -0.222 NA
ATOM     15  C   UNL     1       4.412   6.746  -1.711  0.00  0.00    +0.119 A 
ATOM     16  C   UNL     1       3.995   5.707  -2.528  0.00  0.00    +0.098 A 
ENDBRANCH  11  12
ENDBRANCH   1  11
BRANCH   1  17
ATOM     17  S   UNL     1       1.155   4.817  -5.044  0.00  0.00    -0.111 S 
BRANCH  17  18
ATOM     18  C   UNL     1      -0.421   5.489  -4.650  0.00  0.00    +0.046 A 
ATOM     19  C   UNL     1      -0.722   5.753  -3.320  0.00  0.00    +0.064 A 
ATOM     20 CL   UNL     1       0.419   5.230  -2.086  0.00  0.00    -0.082 Cl
ATOM     21  C   UNL     1      -1.571   6.791  -2.954  0.00  0.00    +0.012 A 
ATOM     22  C   UNL     1      -2.236   7.499  -3.926  0.00  0.00    +0.002 A 
ATOM     23  C   UNL     1      -2.178   7.049  -5.236  0.00  0.00    +0.012 A 
ATOM     24  C   UNL     1      -1.294   6.037  -5.582  0.00  0.00    +0.064 A 
ATOM     25 CL   UNL     1      -1.101   5.472  -7.229  0.00  0.00    -0.082 Cl
ENDBRANCH  17  18
ENDBRANCH   1  17
TORSDOF 7
ENDMDL
MODEL 6
REMARK VINA RESULT:      -7.6      3.858      8.671
REMARK  Name = 
REMARK  7 active torsions:
REMARK  status: ('A' for Active; 'I' for Inactive)
REMARK    1  A    between atoms: C_5  and  C_6
REMARK    2  A    between atoms: C_6  and  C_7
REMARK    3  A    between atoms: C_7  and  C_8
REMARK    4  A    between atoms: C_8  and  C_9
REMARK    5  A    between atoms: C_8  and  S_15
REMARK    6  A    between atoms: C_9  and  N_10
REMARK    7  A    between atoms: S_15  and  C_16
REMARK                            x       y       z     vdW  Elec       q    Type
REMARK                         _______ _______ _______ _____ _____    ______ ____
ROOT
ATOM      1  C   UNL     1       2.127   6.536 -10.571  0.00  0.00    +0.075 C 
ENDROOT
BRANCH   1   2
ATOM      2  C   UNL     1       1.607   6.735  -9.078  0.00  0.00    +0.018 C 
BRANCH   2   3
ATOM      3  C   UNL     1       1.173   5.349  -8.679  0.00  0.00    +0.027 C 
BRANCH   3   8
ATOM      4 CL   UNL     1      -2.174   6.275  -3.954  0.00  0.00    -0.082 Cl
ATOM      5  C   UNL     1      -1.236   5.730  -5.195  0.00  0.00    +0.058 A 
ATOM      6  C   UNL     1      -1.797   5.446  -6.433  0.00  0.00    +0.011 A 
ATOM      7  C   UNL     1      -0.994   5.371  -7.554  0.00  0.00    -0.003 A 
ATOM      8  C   UNL     1       0.375   5.323  -7.438  0.00  0.00    -0.022 A 
ATOM      9  C   UNL     1       0.902   5.349  -6.175  0.00  0.00    -0.003 A 
ATOM     10  C   UNL     1       0.102   5.385  -5.048  0.00  0.00    +0.011 A 
ENDBRANCH   3   8
ENDBRANCH   2   3
ENDBRANCH   1   2
BRANCH   1  11
ATOM     11  C   UNL     1       0.926   5.567 -10.975  0.00  0.00    +0.119 C 
BRANCH  11  12
ATOM     12  N   UNL     1       0.696   5.726 -12.397  0.00  0.00    -0.307 N 
ATOM     13  C   UNL     1       0.823   4.688 -13.257  0.00  0.00    +0.179 A 
ATOM     14  N   UNL     1       1.308   5.145 -14.436  0.00  0.00    -0.222 NA
ATOM     15  C   UNL     1       1.280   6.479 -14.411  0.00  0.00    +0.119 A 
ATOM     16  C   UNL     1       0.791   6.824 -13.161  0.00  0.00    +0.098 A 
ENDBRANCH  11  12
ENDBRANCH   1  11
BRANCH   1  17
ATOM     17  S   UNL     1       3.343   5.111 -10.207  0.00  0.00    -0.111 S 
BRANCH  17  18
ATOM     18  C   UNL     1       5.000   5.652 -10.429  0.00  0.00    +0.046 A 
ATOM     19  C   UNL     1       5.812   5.800  -9.312  0.00  0.00    +0.064 A 
ATOM     20 CL   UNL     1       5.082   5.614  -7.720  0.00  0.00    -0.082 Cl
ATOM     21  C   UNL     1       7.186   5.594  -9.372  0.00  0.00    +0.012 A 
ATOM     22  C   UNL     1       7.785   5.366 -10.587  0.00  0.00    +0.002 A 
ATOM     23  C   UNL     1       7.032   5.518 -11.741  0.00  0.00    +0.012 A 
ATOM     24  C   UNL     1       5.657   5.683 -11.653  0.00  0.00    +0.064 A 
ATOM     25 CL   UNL     1       4.627   5.796 -13.066  0.00  0.00    -0.082 Cl
ENDBRANCH  17  18
ENDBRANCH   1  17
TORSDOF 7
ENDMDL
MODEL 7
REMARK VINA RESULT:      -7.5      3.649      8.309
REMARK  Name = 
REMARK  7 active torsions:
REMARK  status: ('A' for Active; 'I' for Inactive)
REMARK    1  A    between atoms: C_5  and  C_6
REMARK    2  A    between atoms: C_6  and  C_7
REMARK    3  A    between atoms: C_7  and  C_8
REMARK    4  A    between atoms: C_8  and  C_9
REMARK    5  A    between atoms: C_8  and  S_15
REMARK    6  A    between atoms: C_9  and  N_10
REMARK    7  A    between atoms: S_15  and  C_16
REMARK                            x       y       z     vdW  Elec       q    Type
REMARK                         _______ _______ _______ _____ _____    ______ ____
ROOT
ATOM      1  C   UNL     1       3.229   6.568 -10.667  0.00  0.00    +0.075 C 
ENDROOT
BRANCH   1   2
ATOM      2  C   UNL     1       3.376   6.746  -9.090  0.00  0.00    +0.018 C 
BRANCH   2   3
ATOM      3  C   UNL     1       3.496   5.328  -8.596  0.00  0.00    +0.027 C 
BRANCH   3   8
ATOM      4 CL   UNL     1       2.938   5.749  -2.774  0.00  0.00    -0.082 Cl
ATOM      5  C   UNL     1       3.254   5.387  -4.351  0.00  0.00    +0.058 A 
ATOM      6  C   UNL     1       2.325   4.696  -5.117  0.00  0.00    +0.011 A 
ATOM      7  C   UNL     1       2.405   4.731  -6.495  0.00  0.00    -0.003 A 
ATOM      8  C   UNL     1       3.523   5.225  -7.124  0.00  0.00    -0.022 A 
ATOM      9  C   UNL     1       4.545   5.673  -6.332  0.00  0.00    -0.003 A 
ATOM     10  C   UNL     1       4.487   5.605  -4.953  0.00  0.00    +0.011 A 
ENDBRANCH   3   8
ENDBRANCH   2   3
ENDBRANCH   1   2
BRANCH   1  11
ATOM     11  C   UNL     1       2.020   5.535 -10.547  0.00  0.00    +0.119 C 
BRANCH  11  12
ATOM     12  N   UNL     1       0.909   6.074 -11.306  0.00  0.00    -0.307 N 
ATOM     13  C   UNL     1       1.078   6.575 -12.551  0.00  0.00    +0.179 A 
ATOM     14  N   UNL     1       0.228   7.616 -12.730  0.00  0.00    -0.222 NA
ATOM     15  C   UNL     1      -0.626   7.639 -11.704  0.00  0.00    +0.119 A 
ATOM     16  C   UNL     1      -0.249   6.595 -10.874  0.00  0.00    +0.098 A 
ENDBRANCH  11  12
ENDBRANCH   1  11
BRANCH   1  17
ATOM     17  S   UNL     1       4.555   5.212 -10.874  0.00  0.00    -0.111 S 
BRANCH  17  18
ATOM     18  C   UNL     1       5.986   5.872 -11.653  0.00  0.00    +0.046 A 
ATOM     19  C   UNL     1       7.130   6.074 -10.891  0.00  0.00    +0.064 A 
ATOM     20 CL   UNL     1       7.027   5.831  -9.150  0.00  0.00    -0.082 Cl
ATOM     21  C   UNL     1       8.403   5.968 -11.439  0.00  0.00    +0.012 A 
ATOM     22  C   UNL     1       8.546   5.788 -12.793  0.00  0.00    +0.002 A 
ATOM     23  C   UNL     1       7.424   5.889 -13.602  0.00  0.00    +0.012 A 
ATOM     24  C   UNL     1       6.162   5.955 -13.028  0.00  0.00    +0.064 A 
ATOM     25 CL   UNL     1       4.692   5.998 -13.982  0.00  0.00    -0.082 Cl
ENDBRANCH  17  18
ENDBRANCH   1  17
TORSDOF 7
ENDMDL
MODEL 8
REMARK VINA RESULT:      -7.5      2.662      4.316
REMARK  Name = 
REMARK  7 active torsions:
REMARK  status: ('A' for Active; 'I' for Inactive)
REMARK    1  A    between atoms: C_5  and  C_6
REMARK    2  A    between atoms: C_6  and  C_7
REMARK    3  A    between atoms: C_7  and  C_8
REMARK    4  A    between atoms: C_8  and  C_9
REMARK    5  A    between atoms: C_8  and  S_15
REMARK    6  A    between atoms: C_9  and  N_10
REMARK    7  A    between atoms: S_15  and  C_16
REMARK                            x       y       z     vdW  Elec       q    Type
REMARK                         _______ _______ _______ _____ _____    ______ ____
ROOT
ATOM      1  C   UNL     1       2.526   5.733  -7.472  0.00  0.00    +0.075 C 
ENDROOT
BRANCH   1   2
ATOM      2  C   UNL     1       4.113   5.816  -7.599  0.00  0.00    +0.018 C 
BRANCH   2   3
ATOM      3  C   UNL     1       4.411   4.902  -8.759  0.00  0.00    +0.027 C 
BRANCH   3   8
ATOM      4 CL   UNL     1       8.736   5.914 -12.587  0.00  0.00    -0.082 Cl
ATOM      5  C   UNL     1       7.517   5.925 -11.477  0.00  0.00    +0.058 A 
ATOM      6  C   UNL     1       6.191   5.873 -11.885  0.00  0.00    +0.011 A 
ATOM      7  C   UNL     1       5.209   5.495 -10.989  0.00  0.00    -0.003 A 
ATOM      8  C   UNL     1       5.477   5.412  -9.643  0.00  0.00    -0.022 A 
ATOM      9  C   UNL     1       6.746   5.719  -9.234  0.00  0.00    -0.003 A 
ATOM     10  C   UNL     1       7.722   6.135 -10.119  0.00  0.00    +0.011 A 
ENDBRANCH   3   8
ENDBRANCH   2   3
ENDBRANCH   1   2
BRANCH   1  11
ATOM     11  C   UNL     1       2.274   6.943  -8.481  0.00  0.00    +0.119 C 
BRANCH  11  12
ATOM     12  N   UNL     1       1.352   6.478  -9.497  0.00  0.00    -0.307 N 
ATOM     13  C   UNL     1       0.311   5.668  -9.193  0.00  0.00    +0.179 A 
ATOM     14  N   UNL     1       0.099   4.813 -10.223  0.00  0.00    -0.222 NA
ATOM     15  C   UNL     1       0.840   5.214 -11.259  0.00  0.00    +0.119 A 
ATOM     16  C   UNL     1       1.538   6.327 -10.817  0.00  0.00    +0.098 A 
ENDBRANCH  11  12
ENDBRANCH   1  11
BRANCH   1  17
ATOM     17  S   UNL     1       2.360   6.814  -5.908  0.00  0.00    -0.111 S 
BRANCH  17  18
ATOM     18  C   UNL     1       2.005   5.812  -4.509  0.00  0.00    +0.046 A 
ATOM     19  C   UNL     1       3.012   5.578  -3.581  0.00  0.00    +0.064 A 
ATOM     20 CL   UNL     1       4.638   6.144  -3.952  0.00  0.00    -0.082 Cl
ATOM     21  C   UNL     1       2.734   5.385  -2.232  0.00  0.00    +0.012 A 
ATOM     22  C   UNL     1       1.429   5.293  -1.815  0.00  0.00    +0.002 A 
ATOM     23  C   UNL     1       0.426   5.222  -2.770  0.00  0.00    +0.012 A 
ATOM     24  C   UNL     1       0.725   5.457  -4.105  0.00  0.00    +0.064 A 
ATOM     25 CL   UNL     1      -0.499   5.468  -5.359  0.00  0.00    -0.082 Cl
ENDBRANCH  17  18
ENDBRANCH   1  17
TORSDOF 7
ENDMDL
MODEL 9
REMARK VINA RESULT:      -7.5      2.183      7.424
REMARK  Name = 
REMARK  7 active torsions:
REMARK  status: ('A' for Active; 'I' for Inactive)
REMARK    1  A    between atoms: C_5  and  C_6
REMARK    2  A    between atoms: C_6  and  C_7
REMARK    3  A    between atoms: C_7  and  C_8
REMARK    4  A    between atoms: C_8  and  C_9
REMARK    5  A    between atoms: C_8  and  S_15
REMARK    6  A    between atoms: C_9  and  N_10
REMARK    7  A    between atoms: S_15  and  C_16
REMARK                            x       y       z     vdW  Elec       q    Type
REMARK                         _______ _______ _______ _____ _____    ______ ____
ROOT
ATOM      1  C   UNL     1       2.879   5.860  -8.068  0.00  0.00    +0.075 C 
ENDROOT
BRANCH   1   2
ATOM      2  C   UNL     1       1.376   6.373  -8.203  0.00  0.00    +0.018 C 
BRANCH   2   3
ATOM      3  C   UNL     1       0.578   5.264  -7.572  0.00  0.00    +0.027 C 
BRANCH   3   8
ATOM      4 CL   UNL     1      -3.165   6.554  -3.246  0.00  0.00    -0.082 Cl
ATOM      5  C   UNL     1      -2.258   6.402  -4.614  0.00  0.00    +0.058 A 
ATOM      6  C   UNL     1      -1.033   7.045  -4.724  0.00  0.00    +0.011 A 
ATOM      7  C   UNL     1      -0.115   6.624  -5.667  0.00  0.00    -0.003 A 
ATOM      8  C   UNL     1      -0.479   5.750  -6.664  0.00  0.00    -0.022 A 
ATOM      9  C   UNL     1      -1.778   5.322  -6.682  0.00  0.00    -0.003 A 
ATOM     10  C   UNL     1      -2.711   5.769  -5.765  0.00  0.00    +0.011 A 
ENDBRANCH   3   8
ENDBRANCH   2   3
ENDBRANCH   1   2
BRANCH   1  11
ATOM     11  C   UNL     1       3.237   6.883  -6.897  0.00  0.00    +0.119 C 
BRANCH  11  12
ATOM     12  N   UNL     1       3.960   6.145  -5.880  0.00  0.00    -0.307 N 
ATOM     13  C   UNL     1       3.530   4.941  -5.436  0.00  0.00    +0.179 A 
ATOM     14  N   UNL     1       3.824   4.823  -4.118  0.00  0.00    -0.222 NA
ATOM     15  C   UNL     1       4.626   5.834  -3.777  0.00  0.00    +0.119 A 
ATOM     16  C   UNL     1       4.787   6.594  -4.925  0.00  0.00    +0.098 A 
ENDBRANCH  11  12
ENDBRANCH   1  11
BRANCH   1  17
ATOM     17  S   UNL     1       3.624   6.952  -9.444  0.00  0.00    -0.111 S 
BRANCH  17  18
ATOM     18  C   UNL     1       4.351   5.950 -10.691  0.00  0.00    +0.046 A 
ATOM     19  C   UNL     1       3.626   5.689 -11.847  0.00  0.00    +0.064 A 
ATOM     20 CL   UNL     1       1.950   6.224 -11.919  0.00  0.00    -0.082 Cl
ATOM     21  C   UNL     1       4.250   5.496 -13.074  0.00  0.00    +0.012 A 
ATOM     22  C   UNL     1       5.620   5.429 -13.137  0.00  0.00    +0.002 A 
ATOM     23  C   UNL     1       6.340   5.384 -11.952  0.00  0.00    +0.012 A 
ATOM     24  C   UNL     1       5.699   5.619 -10.744  0.00  0.00    +0.064 A 
ATOM     25 CL   UNL     1       6.554   5.664  -9.215  0.00  0.00    -0.082 Cl
ENDBRANCH  17  18
ENDBRANCH   1  17
TORSDOF 7
ENDMDL
