MODEL 1
REMARK VINA RESULT:      -6.2      0.000      0.000
REMARK  Name = 
REMARK  1 active torsions:
REMARK  status: ('A' for Active; 'I' for Inactive)
REMARK    1  A    between atoms: N_4  and  C_5
REMARK                            x       y       z     vdW  Elec       q    Type
REMARK                         _______ _______ _______ _____ _____    ______ ____
ROOT
ATOM      1  C   UNL     1       4.816   7.632  -4.379  0.00  0.00    +0.049 C 
ATOM      2  C   UNL     1       4.023   6.902  -5.416  0.00  0.00    +0.064 C 
ATOM      3  C   UNL     1       4.202   5.442  -5.665  0.00  0.00    +0.130 C 
ATOM      4  C   UNL     1       2.805   5.045  -6.001  0.00  0.00    +0.254 C 
ATOM      5  O   UNL     1       2.370   3.879  -5.936  0.00  0.00    -0.272 OA
ATOM      6  N   UNL     1       2.030   6.243  -6.136  0.00  0.00    -0.159 N 
ATOM      7  N   UNL     1       2.984   7.269  -6.075  0.00  0.00    -0.180 NA
ENDROOT
BRANCH   6   8
ATOM      8  C   UNL     1       0.604   6.328  -6.127  0.00  0.00    +0.077 A 
ATOM      9  C   UNL     1      -0.041   5.641  -7.135  0.00  0.00    +0.017 A 
ATOM     10  C   UNL     1      -1.399   5.376  -7.034  0.00  0.00    +0.001 A 
ATOM     11  C   UNL     1      -2.036   5.749  -5.876  0.00  0.00    +0.000 A 
ATOM     12  C   UNL     1      -1.471   6.772  -5.125  0.00  0.00    +0.001 A 
ATOM     13  C   UNL     1      -0.117   7.055  -5.229  0.00  0.00    +0.017 A 
ENDBRANCH   6   8
TORSDOF 1
ENDMDL
MODEL 2
REMARK VINA RESULT:      -6.2      1.547      1.825
REMARK  Name = 
REMARK  1 active torsions:
REMARK  status: ('A' for Active; 'I' for Inactive)
REMARK    1  A    between atoms: N_4  and  C_5
REMARK                            x       y       z     vdW  Elec       q    Type
REMARK                         _______ _______ _______ _____ _____    ______ ____
ROOT
ATOM      1  C   UNL     1       4.239   4.610  -4.142  0.00  0.00    +0.049 C 
ATOM      2  C   UNL     1       3.465   5.838  -4.498  0.00  0.00    +0.064 C 
ATOM      3  C   UNL     1       3.927   6.786  -5.555  0.00  0.00    +0.130 C 
ATOM      4  C   UNL     1       2.621   7.217  -6.131  0.00  0.00    +0.254 C 
ATOM      5  O   UNL     1       2.483   7.720  -7.263  0.00  0.00    -0.272 OA
ATOM      6  N   UNL     1       1.582   6.709  -5.285  0.00  0.00    -0.159 N 
ATOM      7  N   UNL     1       2.271   6.187  -4.181  0.00  0.00    -0.180 NA
ENDROOT
BRANCH   6   8
ATOM      8  C   UNL     1       0.198   6.602  -5.625  0.00  0.00    +0.077 A 
ATOM      9  C   UNL     1      -0.103   5.704  -6.628  0.00  0.00    +0.017 A 
ATOM     10  C   UNL     1      -1.411   5.276  -6.806  0.00  0.00    +0.001 A 
ATOM     11  C   UNL     1      -2.352   5.714  -5.907  0.00  0.00    +0.000 A 
ATOM     12  C   UNL     1      -2.095   6.895  -5.223  0.00  0.00    +0.001 A 
ATOM     13  C   UNL     1      -0.792   7.340  -5.052  0.00  0.00    +0.017 A 
ENDBRANCH   6   8
TORSDOF 1
ENDMDL
MODEL 3
REMARK VINA RESULT:      -6.2      2.205      2.972
REMARK  Name = 
REMARK  1 active torsions:
REMARK  status: ('A' for Active; 'I' for Inactive)
REMARK    1  A    between atoms: N_4  and  C_5
REMARK                            x       y       z     vdW  Elec       q    Type
REMARK                         _______ _______ _______ _____ _____    ______ ____
ROOT
ATOM      1  C   UNL     1       3.469   4.060  -8.962  0.00  0.00    +0.049 C 
ATOM      2  C   UNL     1       3.113   5.072  -7.921  0.00  0.00    +0.064 C 
ATOM      3  C   UNL     1       3.384   6.528  -8.109  0.00  0.00    +0.130 C 
ATOM      4  C   UNL     1       2.208   7.121  -7.410  0.00  0.00    +0.254 C 
ATOM      5  O   UNL     1       1.789   8.280  -7.598  0.00  0.00    -0.272 OA
ATOM      6  N   UNL     1       1.524   6.061  -6.730  0.00  0.00    -0.159 N 
ATOM      7  N   UNL     1       2.382   4.961  -6.872  0.00  0.00    -0.180 NA
ENDROOT
BRANCH   6   8
ATOM      8  C   UNL     1       0.191   6.113  -6.216  0.00  0.00    +0.077 A 
ATOM      9  C   UNL     1       0.004   6.933  -5.123  0.00  0.00    +0.017 A 
ATOM     10  C   UNL     1      -1.278   7.318  -4.757  0.00  0.00    +0.001 A 
ATOM     11  C   UNL     1      -2.316   6.922  -5.563  0.00  0.00    +0.000 A 
ATOM     12  C   UNL     1      -2.129   5.797  -6.355  0.00  0.00    +0.001 A 
ATOM     13  C   UNL     1      -0.852   5.394  -6.715  0.00  0.00    +0.017 A 
ENDBRANCH   6   8
TORSDOF 1
ENDMDL
MODEL 4
REMARK VINA RESULT:      -6.2      4.618      6.756
REMARK  Name = 
REMARK  1 active torsions:
REMARK  status: ('A' for Active; 'I' for Inactive)
REMARK    1  A    between atoms: N_4  and  C_5
REMARK                            x       y       z     vdW  Elec       q    Type
REMARK                         _______ _______ _______ _____ _____    ______ ____
ROOT
ATOM      1  C   UNL     1       2.144   3.884  -6.993  0.00  0.00    +0.049 C 
ATOM      2  C   UNL     1       2.614   4.108  -8.394  0.00  0.00    +0.064 C 
ATOM      3  C   UNL     1       1.695   4.578  -9.471  0.00  0.00    +0.130 C 
ATOM      4  C   UNL     1       2.618   5.433 -10.270  0.00  0.00    +0.254 C 
ATOM      5  O   UNL     1       2.247   6.326 -11.057  0.00  0.00    -0.272 OA
ATOM      6  N   UNL     1       3.946   5.227  -9.771  0.00  0.00    -0.159 N 
ATOM      7  N   UNL     1       3.805   4.162  -8.869  0.00  0.00    -0.180 NA
ENDROOT
BRANCH   6   8
ATOM      8  C   UNL     1       5.076   6.068 -10.015  0.00  0.00    +0.077 A 
ATOM      9  C   UNL     1       6.250   5.681  -9.402  0.00  0.00    +0.017 A 
ATOM     10  C   UNL     1       7.460   6.211  -9.827  0.00  0.00    +0.001 A 
ATOM     11  C   UNL     1       7.441   7.054 -10.911  0.00  0.00    +0.000 A 
ATOM     12  C   UNL     1       6.254   7.717 -11.196  0.00  0.00    +0.001 A 
ATOM     13  C   UNL     1       5.040   7.204 -10.764  0.00  0.00    +0.017 A 
ENDBRANCH   6   8
TORSDOF 1
ENDMDL
MODEL 5
REMARK VINA RESULT:      -6.1      5.556      7.650
REMARK  Name = 
REMARK  1 active torsions:
REMARK  status: ('A' for Active; 'I' for Inactive)
REMARK    1  A    between atoms: N_4  and  C_5
REMARK                            x       y       z     vdW  Elec       q    Type
REMARK                         _______ _______ _______ _____ _____    ______ ____
ROOT
ATOM      1  C   UNL     1       0.299   6.866 -10.859  0.00  0.00    +0.049 C 
ATOM      2  C   UNL     1       1.531   6.076 -11.166  0.00  0.00    +0.064 C 
ATOM      3  C   UNL     1       1.866   5.641 -12.553  0.00  0.00    +0.130 C 
ATOM      4  C   UNL     1       3.354   5.739 -12.523  0.00  0.00    +0.254 C 
ATOM      5  O   UNL     1       4.074   5.828 -13.536  0.00  0.00    -0.272 OA
ATOM      6  N   UNL     1       3.748   5.980 -11.166  0.00  0.00    -0.159 N 
ATOM      7  N   UNL     1       2.559   5.828 -10.438  0.00  0.00    -0.180 NA
ENDROOT
BRANCH   6   8
ATOM      8  C   UNL     1       5.024   6.457 -10.733  0.00  0.00    +0.077 A 
ATOM      9  C   UNL     1       5.676   5.665  -9.812  0.00  0.00    +0.017 A 
ATOM     10  C   UNL     1       7.032   5.846  -9.580  0.00  0.00    +0.001 A 
ATOM     11  C   UNL     1       7.693   6.770 -10.351  0.00  0.00    +0.000 A 
ATOM     12  C   UNL     1       6.945   7.791 -10.923  0.00  0.00    +0.001 A 
ATOM     13  C   UNL     1       5.585   7.627 -11.146  0.00  0.00    +0.017 A 
ENDBRANCH   6   8
TORSDOF 1
ENDMDL
MODEL 6
REMARK VINA RESULT:      -6.1      4.624      6.974
REMARK  Name = 
REMARK  1 active torsions:
REMARK  status: ('A' for Active; 'I' for Inactive)
REMARK    1  A    between atoms: N_4  and  C_5
REMARK                            x       y       z     vdW  Elec       q    Type
REMARK                         _______ _______ _______ _____ _____    ______ ____
ROOT
ATOM      1  C   UNL     1       0.556   4.711 -10.976  0.00  0.00    +0.049 C 
ATOM      2  C   UNL     1       1.430   5.861 -10.591  0.00  0.00    +0.064 C 
ATOM      3  C   UNL     1       1.301   6.544  -9.270  0.00  0.00    +0.130 C 
ATOM      4  C   UNL     1       2.726   6.889  -8.996  0.00  0.00    +0.254 C 
ATOM      5  O   UNL     1       3.183   7.143  -7.865  0.00  0.00    -0.272 OA
ATOM      6  N   UNL     1       3.479   6.609 -10.183  0.00  0.00    -0.159 N 
ATOM      7  N   UNL     1       2.499   6.310 -11.141  0.00  0.00    -0.180 NA
ENDROOT
BRANCH   6   8
ATOM      8  C   UNL     1       4.900   6.481 -10.267  0.00  0.00    +0.077 A 
ATOM      9  C   UNL     1       5.530   7.367 -11.115  0.00  0.00    +0.017 A 
ATOM     10  C   UNL     1       6.901   7.558 -11.023  0.00  0.00    +0.001 A 
ATOM     11  C   UNL     1       7.570   6.902 -10.019  0.00  0.00    +0.000 A 
ATOM     12  C   UNL     1       6.994   5.749  -9.502  0.00  0.00    +0.001 A 
ATOM     13  C   UNL     1       5.626   5.541  -9.601  0.00  0.00    +0.017 A 
ENDBRANCH   6   8
TORSDOF 1
ENDMDL
MODEL 7
REMARK VINA RESULT:      -6.1      2.266      2.399
REMARK  Name = 
REMARK  1 active torsions:
REMARK  status: ('A' for Active; 'I' for Inactive)
REMARK    1  A    between atoms: N_4  and  C_5
REMARK                            x       y       z     vdW  Elec       q    Type
REMARK                         _______ _______ _______ _____ _____    ______ ____
ROOT
ATOM      1  C   UNL     1       3.649   7.897  -2.770  0.00  0.00    +0.049 C 
ATOM      2  C   UNL     1       2.819   6.732  -3.206  0.00  0.00    +0.064 C 
ATOM      3  C   UNL     1       2.291   5.730  -2.235  0.00  0.00    +0.130 C 
ATOM      4  C   UNL     1       0.978   5.400  -2.862  0.00  0.00    +0.254 C 
ATOM      5  O   UNL     1       0.017   4.891  -2.255  0.00  0.00    -0.272 OA
ATOM      6  N   UNL     1       0.949   6.011  -4.158  0.00  0.00    -0.159 N 
ATOM      7  N   UNL     1       2.254   6.493  -4.334  0.00  0.00    -0.180 NA
ENDROOT
BRANCH   6   8
ATOM      8  C   UNL     1      -0.215   6.229  -4.959  0.00  0.00    +0.077 A 
ATOM      9  C   UNL     1      -0.313   5.452  -6.094  0.00  0.00    +0.017 A 
ATOM     10  C   UNL     1      -1.529   5.335  -6.751  0.00  0.00    +0.001 A 
ATOM     11  C   UNL     1      -2.620   5.948  -6.186  0.00  0.00    +0.000 A 
ATOM     12  C   UNL     1      -2.392   7.021  -5.333  0.00  0.00    +0.001 A 
ATOM     13  C   UNL     1      -1.174   7.155  -4.682  0.00  0.00    +0.017 A 
ENDBRANCH   6   8
TORSDOF 1
ENDMDL
MODEL 8
REMARK VINA RESULT:      -6.0      2.285      2.712
REMARK  Name = 
REMARK  1 active torsions:
REMARK  status: ('A' for Active; 'I' for Inactive)
REMARK    1  A    between atoms: N_4  and  C_5
REMARK                            x       y       z     vdW  Elec       q    Type
REMARK                         _______ _______ _______ _____ _____    ______ ____
ROOT
ATOM      1  C   UNL     1       3.613   6.844  -9.373  0.00  0.00    +0.049 C 
ATOM      2  C   UNL     1       2.626   5.811  -8.935  0.00  0.00    +0.064 C 
ATOM      3  C   UNL     1       3.053   4.514  -8.332  0.00  0.00    +0.130 C 
ATOM      4  C   UNL     1       1.955   4.290  -7.349  0.00  0.00    +0.254 C 
ATOM      5  O   UNL     1       2.040   3.538  -6.359  0.00  0.00    -0.272 OA
ATOM      6  N   UNL     1       0.941   5.272  -7.596  0.00  0.00    -0.159 N 
ATOM      7  N   UNL     1       1.354   5.891  -8.784  0.00  0.00    -0.180 NA
ENDROOT
BRANCH   6   8
ATOM      8  C   UNL     1      -0.116   5.633  -6.704  0.00  0.00    +0.077 A 
ATOM      9  C   UNL     1       0.230   6.499  -5.688  0.00  0.00    +0.017 A 
ATOM     10  C   UNL     1      -0.759   7.169  -4.982  0.00  0.00    +0.001 A 
ATOM     11  C   UNL     1      -2.059   6.997  -5.387  0.00  0.00    +0.000 A 
ATOM     12  C   UNL     1      -2.371   5.841  -6.090  0.00  0.00    +0.001 A 
ATOM     13  C   UNL     1      -1.388   5.154  -6.788  0.00  0.00    +0.017 A 
ENDBRANCH   6   8
TORSDOF 1
ENDMDL
MODEL 9
REMARK VINA RESULT:      -6.0      2.724      3.654
REMARK  Name = 
REMARK  1 active torsions:
REMARK  status: ('A' for Active; 'I' for Inactive)
REMARK    1  A    between atoms: N_4  and  C_5
REMARK                            x       y       z     vdW  Elec       q    Type
REMARK                         _______ _______ _______ _____ _____    ______ ____
ROOT
ATOM      1  C   UNL     1       0.627   6.108  -9.057  0.00  0.00    +0.049 C 
ATOM      2  C   UNL     1       0.219   5.385  -7.814  0.00  0.00    +0.064 C 
ATOM      3  C   UNL     1       1.220   4.772  -6.891  0.00  0.00    +0.130 C 
ATOM      4  C   UNL     1       0.556   4.995  -5.575  0.00  0.00    +0.254 C 
ATOM      5  O   UNL     1       1.148   4.988  -4.478  0.00  0.00    -0.272 OA
ATOM      6  N   UNL     1      -0.772   5.472  -5.830  0.00  0.00    -0.159 N 
ATOM      7  N   UNL     1      -0.917   5.336  -7.219  0.00  0.00    -0.180 NA
ENDROOT
BRANCH   6   8
ATOM      8  C   UNL     1      -1.632   6.113  -4.886  0.00  0.00    +0.077 A 
ATOM      9  C   UNL     1      -2.626   5.321  -4.350  0.00  0.00    +0.017 A 
ATOM     10  C   UNL     1      -3.291   5.726  -3.202  0.00  0.00    +0.001 A 
ATOM     11  C   UNL     1      -2.867   6.882  -2.594  0.00  0.00    +0.000 A 
ATOM     12  C   UNL     1      -2.196   7.815  -3.373  0.00  0.00    +0.001 A 
ATOM     13  C   UNL     1      -1.539   7.425  -4.531  0.00  0.00    +0.017 A 
ENDBRANCH   6   8
TORSDOF 1
ENDMDL
