MODEL 1
REMARK VINA RESULT:      -5.2      0.000      0.000
REMARK  Name = 
REMARK  1 active torsions:
REMARK  status: ('A' for Active; 'I' for Inactive)
REMARK    1  A    between atoms: N_2  and  C_3
REMARK                            x       y       z     vdW  Elec       q    Type
REMARK                         _______ _______ _______ _____ _____    ______ ____
ROOT
ATOM      1  C   UNL     1       1.157   5.621  -7.479  0.00  0.00    +0.059 C 
ATOM      2  C   UNL     1       2.269   4.789  -7.463  0.00  0.00    +0.014 C 
ATOM      3  C   UNL     1       2.207   3.897  -6.225  0.00  0.00    +0.001 C 
ATOM      4  C   UNL     1       2.579   3.895  -8.637  0.00  0.00    +0.001 C 
ATOM      5  C   UNL     1       3.610   5.638  -7.130  0.00  0.00    +0.001 C 
ATOM      6  C   UNL     1       2.867   6.792  -6.278  0.00  0.00    +0.001 C 
ATOM      7  C   UNL     1       3.602   6.461  -8.528  0.00  0.00    +0.000 C 
ATOM      8  C   UNL     1       2.464   7.251  -8.610  0.00  0.00    +0.001 C 
ATOM      9  C   UNL     1       1.614   7.157  -7.231  0.00  0.00    +0.015 C 
ATOM     10  C   UNL     1       0.437   5.658  -8.822  0.00  0.00    +0.017 C 
ENDROOT
BRANCH   1  12
ATOM     11  C   UNL     1      -1.066   5.358  -6.977  0.00  0.00    +0.107 C 
ATOM     12  N   UNL     1       0.112   5.346  -6.495  0.00  0.00    -0.219 NA
ENDBRANCH   1  12
TORSDOF 1
ENDMDL
MODEL 2
REMARK VINA RESULT:      -5.1      1.281      2.508
REMARK  Name = 
REMARK  1 active torsions:
REMARK  status: ('A' for Active; 'I' for Inactive)
REMARK    1  A    between atoms: N_2  and  C_3
REMARK                            x       y       z     vdW  Elec       q    Type
REMARK                         _______ _______ _______ _____ _____    ______ ____
ROOT
ATOM      1  C   UNL     1       1.784   5.193  -8.398  0.00  0.00    +0.059 C 
ATOM      2  C   UNL     1       1.362   5.297  -7.079  0.00  0.00    +0.014 C 
ATOM      3  C   UNL     1      -0.130   5.618  -7.058  0.00  0.00    +0.001 C 
ATOM      4  C   UNL     1       1.585   4.167  -6.108  0.00  0.00    +0.001 C 
ATOM      5  C   UNL     1       1.949   6.647  -6.400  0.00  0.00    +0.001 C 
ATOM      6  C   UNL     1       2.062   7.488  -7.775  0.00  0.00    +0.001 C 
ATOM      7  C   UNL     1       3.491   6.145  -6.409  0.00  0.00    +0.000 C 
ATOM      8  C   UNL     1       3.926   5.961  -7.714  0.00  0.00    +0.001 C 
ATOM      9  C   UNL     1       2.775   6.424  -8.760  0.00  0.00    +0.015 C 
ATOM     10  C   UNL     1       2.619   3.948  -8.679  0.00  0.00    +0.017 C 
ENDROOT
BRANCH   1  12
ATOM     11  C   UNL     1       1.197   5.109 -10.615  0.00  0.00    +0.107 C 
ATOM     12  N   UNL     1       0.746   5.194  -9.427  0.00  0.00    -0.219 NA
ENDBRANCH   1  12
TORSDOF 1
ENDMDL
MODEL 3
REMARK VINA RESULT:      -5.0      1.551      2.812
REMARK  Name = 
REMARK  1 active torsions:
REMARK  status: ('A' for Active; 'I' for Inactive)
REMARK    1  A    between atoms: N_2  and  C_3
REMARK                            x       y       z     vdW  Elec       q    Type
REMARK                         _______ _______ _______ _____ _____    ______ ____
ROOT
ATOM      1  C   UNL     1       2.806   5.266  -6.617  0.00  0.00    +0.059 C 
ATOM      2  C   UNL     1       3.165   5.155  -7.954  0.00  0.00    +0.014 C 
ATOM      3  C   UNL     1       4.654   5.457  -8.097  0.00  0.00    +0.001 C 
ATOM      4  C   UNL     1       2.895   3.885  -8.721  0.00  0.00    +0.001 C 
ATOM      5  C   UNL     1       2.546   6.383  -8.813  0.00  0.00    +0.001 C 
ATOM      6  C   UNL     1       2.498   7.435  -7.586  0.00  0.00    +0.001 C 
ATOM      7  C   UNL     1       1.006   5.902  -8.651  0.00  0.00    +0.000 C 
ATOM      8  C   UNL     1       0.634   5.931  -7.314  0.00  0.00    +0.001 C 
ATOM      9  C   UNL     1       1.833   6.547  -6.411  0.00  0.00    +0.015 C 
ATOM     10  C   UNL     1       1.985   4.089  -6.102  0.00  0.00    +0.017 C 
ENDROOT
BRANCH   1  12
ATOM     11  C   UNL     1       3.730   4.755  -4.580  0.00  0.00    +0.107 C 
ATOM     12  N   UNL     1       3.891   5.423  -5.651  0.00  0.00    -0.219 NA
ENDBRANCH   1  12
TORSDOF 1
ENDMDL
MODEL 4
REMARK VINA RESULT:      -5.0      1.208      2.707
REMARK  Name = 
REMARK  1 active torsions:
REMARK  status: ('A' for Active; 'I' for Inactive)
REMARK    1  A    between atoms: N_2  and  C_3
REMARK                            x       y       z     vdW  Elec       q    Type
REMARK                         _______ _______ _______ _____ _____    ______ ____
ROOT
ATOM      1  C   UNL     1       0.548   5.768  -6.527  0.00  0.00    +0.059 C 
ATOM      2  C   UNL     1       1.534   6.109  -7.443  0.00  0.00    +0.014 C 
ATOM      3  C   UNL     1       1.099   5.657  -8.835  0.00  0.00    +0.001 C 
ATOM      4  C   UNL     1       2.008   7.534  -7.570  0.00  0.00    +0.001 C 
ATOM      5  C   UNL     1       2.844   5.175  -7.242  0.00  0.00    +0.001 C 
ATOM      6  C   UNL     1       2.050   3.906  -6.633  0.00  0.00    +0.001 C 
ATOM      7  C   UNL     1       3.240   5.804  -5.800  0.00  0.00    +0.000 C 
ATOM      8  C   UNL     1       2.240   5.544  -4.874  0.00  0.00    +0.001 C 
ATOM      9  C   UNL     1       1.093   4.607  -5.535  0.00  0.00    +0.015 C 
ATOM     10  C   UNL     1       0.161   6.906  -5.589  0.00  0.00    +0.017 C 
ENDROOT
BRANCH   1  12
ATOM     11  C   UNL     1      -1.727   5.535  -6.337  0.00  0.00    +0.107 C 
ATOM     12  N   UNL     1      -0.717   5.276  -7.068  0.00  0.00    -0.219 NA
ENDBRANCH   1  12
TORSDOF 1
ENDMDL
MODEL 5
REMARK VINA RESULT:      -4.9      1.528      3.134
REMARK  Name = 
REMARK  1 active torsions:
REMARK  status: ('A' for Active; 'I' for Inactive)
REMARK    1  A    between atoms: N_2  and  C_3
REMARK                            x       y       z     vdW  Elec       q    Type
REMARK                         _______ _______ _______ _____ _____    ______ ____
ROOT
ATOM      1  C   UNL     1       1.680   5.197  -7.128  0.00  0.00    +0.059 C 
ATOM      2  C   UNL     1       2.189   6.406  -6.674  0.00  0.00    +0.014 C 
ATOM      3  C   UNL     1       3.685   6.251  -6.415  0.00  0.00    +0.001 C 
ATOM      4  C   UNL     1       2.008   7.668  -7.478  0.00  0.00    +0.001 C 
ATOM      5  C   UNL     1       1.674   6.710  -5.167  0.00  0.00    +0.001 C 
ATOM      6  C   UNL     1       1.488   5.163  -4.741  0.00  0.00    +0.001 C 
ATOM      7  C   UNL     1       0.125   6.931  -5.594  0.00  0.00    +0.000 C 
ATOM      8  C   UNL     1      -0.397   5.757  -6.120  0.00  0.00    +0.001 C 
ATOM      9  C   UNL     1       0.691   4.559  -6.011  0.00  0.00    +0.015 C 
ATOM     10  C   UNL     1       0.805   5.326  -8.369  0.00  0.00    +0.017 C 
ENDROOT
BRANCH   1  12
ATOM     11  C   UNL     1       2.595   3.757  -8.663  0.00  0.00    +0.107 C 
ATOM     12  N   UNL     1       2.648   4.152  -7.453  0.00  0.00    -0.219 NA
ENDBRANCH   1  12
TORSDOF 1
ENDMDL
MODEL 6
REMARK VINA RESULT:      -4.9      1.679      3.259
REMARK  Name = 
REMARK  1 active torsions:
REMARK  status: ('A' for Active; 'I' for Inactive)
REMARK    1  A    between atoms: N_2  and  C_3
REMARK                            x       y       z     vdW  Elec       q    Type
REMARK                         _______ _______ _______ _____ _____    ______ ____
ROOT
ATOM      1  C   UNL     1       1.900   5.348  -9.127  0.00  0.00    +0.059 C 
ATOM      2  C   UNL     1       2.820   6.329  -8.780  0.00  0.00    +0.014 C 
ATOM      3  C   UNL     1       3.454   6.889 -10.050  0.00  0.00    +0.001 C 
ATOM      4  C   UNL     1       2.407   7.508  -7.935  0.00  0.00    +0.001 C 
ATOM      5  C   UNL     1       4.125   5.665  -8.084  0.00  0.00    +0.001 C 
ATOM      6  C   UNL     1       4.001   4.237  -8.831  0.00  0.00    +0.001 C 
ATOM      7  C   UNL     1       3.341   5.195  -6.744  0.00  0.00    +0.000 C 
ATOM      8  C   UNL     1       2.363   4.265  -7.064  0.00  0.00    +0.001 C 
ATOM      9  C   UNL     1       2.433   3.895  -8.642  0.00  0.00    +0.015 C 
ATOM     10  C   UNL     1       0.550   5.499  -8.435  0.00  0.00    +0.017 C 
ENDROOT
BRANCH   1  12
ATOM     11  C   UNL     1       0.457   4.665 -10.775  0.00  0.00    +0.107 C 
ATOM     12  N   UNL     1       1.585   5.209 -10.547  0.00  0.00    -0.219 NA
ENDBRANCH   1  12
TORSDOF 1
ENDMDL
MODEL 7
REMARK VINA RESULT:      -4.9      1.831      3.692
REMARK  Name = 
REMARK  1 active torsions:
REMARK  status: ('A' for Active; 'I' for Inactive)
REMARK    1  A    between atoms: N_2  and  C_3
REMARK                            x       y       z     vdW  Elec       q    Type
REMARK                         _______ _______ _______ _____ _____    ______ ____
ROOT
ATOM      1  C   UNL     1       3.592   5.625  -8.326  0.00  0.00    +0.059 C 
ATOM      2  C   UNL     1       2.776   6.357  -7.474  0.00  0.00    +0.014 C 
ATOM      3  C   UNL     1       3.493   6.548  -6.139  0.00  0.00    +0.001 C 
ATOM      4  C   UNL     1       2.245   7.706  -7.887  0.00  0.00    +0.001 C 
ATOM      5  C   UNL     1       1.513   5.465  -6.989  0.00  0.00    +0.001 C 
ATOM      6  C   UNL     1       2.257   4.036  -7.130  0.00  0.00    +0.001 C 
ATOM      7  C   UNL     1       0.814   5.410  -8.451  0.00  0.00    +0.000 C 
ATOM      8  C   UNL     1       1.638   4.744  -9.349  0.00  0.00    +0.001 C 
ATOM      9  C   UNL     1       2.945   4.161  -8.587  0.00  0.00    +0.015 C 
ATOM     10  C   UNL     1       3.724   6.227  -9.720  0.00  0.00    +0.017 C 
ENDROOT
BRANCH   1  12
ATOM     11  C   UNL     1       5.816   5.370  -8.831  0.00  0.00    +0.107 C 
ATOM     12  N   UNL     1       4.965   5.386  -7.884  0.00  0.00    -0.219 NA
ENDBRANCH   1  12
TORSDOF 1
ENDMDL
MODEL 8
REMARK VINA RESULT:      -4.9      1.690      3.419
REMARK  Name = 
REMARK  1 active torsions:
REMARK  status: ('A' for Active; 'I' for Inactive)
REMARK    1  A    between atoms: N_2  and  C_3
REMARK                            x       y       z     vdW  Elec       q    Type
REMARK                         _______ _______ _______ _____ _____    ______ ____
ROOT
ATOM      1  C   UNL     1       3.414   5.594  -7.853  0.00  0.00    +0.059 C 
ATOM      2  C   UNL     1       2.328   4.749  -7.661  0.00  0.00    +0.014 C 
ATOM      3  C   UNL     1       2.307   3.703  -8.771  0.00  0.00    +0.001 C 
ATOM      4  C   UNL     1       2.146   4.015  -6.357  0.00  0.00    +0.001 C 
ATOM      5  C   UNL     1       0.941   5.525  -7.980  0.00  0.00    +0.001 C 
ATOM      6  C   UNL     1       1.575   6.568  -9.040  0.00  0.00    +0.001 C 
ATOM      7  C   UNL     1       1.048   6.527  -6.709  0.00  0.00    +0.000 C 
ATOM      8  C   UNL     1       2.166   7.339  -6.834  0.00  0.00    +0.001 C 
ATOM      9  C   UNL     1       2.896   7.076  -8.258  0.00  0.00    +0.015 C 
ATOM     10  C   UNL     1       4.246   5.821  -6.597  0.00  0.00    +0.017 C 
ENDROOT
BRANCH   1  12
ATOM     11  C   UNL     1       5.592   5.304  -8.514  0.00  0.00    +0.107 C 
ATOM     12  N   UNL     1       4.377   5.208  -8.882  0.00  0.00    -0.219 NA
ENDBRANCH   1  12
TORSDOF 1
ENDMDL
MODEL 9
REMARK VINA RESULT:      -4.8      1.352      2.415
REMARK  Name = 
REMARK  1 active torsions:
REMARK  status: ('A' for Active; 'I' for Inactive)
REMARK    1  A    between atoms: N_2  and  C_3
REMARK                            x       y       z     vdW  Elec       q    Type
REMARK                         _______ _______ _______ _____ _____    ______ ____
ROOT
ATOM      1  C   UNL     1       1.920   5.215  -6.031  0.00  0.00    +0.059 C 
ATOM      2  C   UNL     1       2.911   5.667  -5.170  0.00  0.00    +0.014 C 
ATOM      3  C   UNL     1       2.275   6.539  -4.091  0.00  0.00    +0.001 C 
ATOM      4  C   UNL     1       3.825   4.694  -4.469  0.00  0.00    +0.001 C 
ATOM      5  C   UNL     1       3.846   6.768  -5.906  0.00  0.00    +0.001 C 
ATOM      6  C   UNL     1       2.710   7.289  -6.932  0.00  0.00    +0.001 C 
ATOM      7  C   UNL     1       4.507   5.714  -6.946  0.00  0.00    +0.000 C 
ATOM      8  C   UNL     1       3.530   5.186  -7.778  0.00  0.00    +0.001 C 
ATOM      9  C   UNL     1       2.102   5.899  -7.490  0.00  0.00    +0.015 C 
ATOM     10  C   UNL     1       1.986   3.718  -6.312  0.00  0.00    +0.017 C 
ENDROOT
BRANCH   1  12
ATOM     11  C   UNL     1      -0.319   5.159  -6.528  0.00  0.00    +0.107 C 
ATOM     12  N   UNL     1       0.536   5.466  -5.636  0.00  0.00    -0.219 NA
ENDBRANCH   1  12
TORSDOF 1
ENDMDL
