MODEL 1
REMARK VINA RESULT:      -7.9      0.000      0.000
REMARK  Name = 
REMARK  1 active torsions:
REMARK  status: ('A' for Active; 'I' for Inactive)
REMARK    1  A    between atoms: N_10  and  C_11
REMARK                            x       y       z     vdW  Elec       q    Type
REMARK                         _______ _______ _______ _____ _____    ______ ____
ROOT
ATOM      1  N   UNL     1      -2.084   4.987  -2.100  0.00  0.00    -0.128 NA
ATOM      2  C   UNL     1      -1.766   5.538  -3.381  0.00  0.00    +0.094 A 
ATOM      3  C   UNL     1      -0.450   5.346  -3.786  0.00  0.00    +0.075 A 
ATOM      4  C   UNL     1       0.745   5.714  -3.013  0.00  0.00    +0.257 C 
ATOM      5  N   UNL     1       1.822   5.740  -3.872  0.00  0.00    -0.216 N 
ATOM      6  C   UNL     1       1.302   5.590  -5.199  0.00  0.00    +0.255 C 
ATOM      7  O   UNL     1       1.997   5.273  -6.213  0.00  0.00    -0.269 OA
ATOM      8  O   UNL     1       0.893   5.495  -1.779  0.00  0.00    -0.269 OA
ATOM      9  C   UNL     1      -0.152   5.372  -5.143  0.00  0.00    +0.060 A 
ATOM     10  C   UNL     1      -1.103   5.942  -5.985  0.00  0.00    +0.005 A 
ATOM     11  C   UNL     1      -2.354   6.336  -5.542  0.00  0.00    +0.002 A 
ATOM     12  C   UNL     1      -2.753   5.955  -4.266  0.00  0.00    +0.018 A 
ENDROOT
BRANCH   5  13
ATOM     13  C   UNL     1       3.213   6.428  -3.643  0.00  0.00    +0.162 C 
ATOM     14  C   UNL     1       3.908   5.165  -2.931  0.00  0.00    +0.266 C 
ATOM     15  O   UNL     1       4.650   4.584  -3.783  0.00  0.00    -0.271 OA
ATOM     16  N   UNL     1       4.315   5.194  -1.616  0.00  0.00    -0.143 NA
ATOM     17  C   UNL     1       4.396   6.360  -0.783  0.00  0.00    +0.248 C 
ATOM     18  O   UNL     1       4.065   6.275   0.439  0.00  0.00    -0.273 OA
ATOM     19  C   UNL     1       3.969   7.587  -1.533  0.00  0.00    +0.089 C 
ATOM     20  C   UNL     1       2.725   7.144  -2.244  0.00  0.00    +0.039 C 
ENDBRANCH   5  13
TORSDOF 1
ENDMDL
MODEL 2
REMARK VINA RESULT:      -7.8      2.985      4.747
REMARK  Name = 
REMARK  1 active torsions:
REMARK  status: ('A' for Active; 'I' for Inactive)
REMARK    1  A    between atoms: N_10  and  C_11
REMARK                            x       y       z     vdW  Elec       q    Type
REMARK                         _______ _______ _______ _____ _____    ______ ____
ROOT
ATOM      1  N   UNL     1      -0.972   6.260  -3.006  0.00  0.00    -0.128 NA
ATOM      2  C   UNL     1      -1.105   6.060  -4.417  0.00  0.00    +0.094 A 
ATOM      3  C   UNL     1       0.066   5.686  -5.065  0.00  0.00    +0.075 A 
ATOM      4  C   UNL     1       1.347   6.405  -4.998  0.00  0.00    +0.257 C 
ATOM      5  N   UNL     1       2.133   5.978  -6.047  0.00  0.00    -0.216 N 
ATOM      6  C   UNL     1       1.307   5.157  -6.882  0.00  0.00    +0.255 C 
ATOM      7  O   UNL     1       1.747   4.357  -7.765  0.00  0.00    -0.269 OA
ATOM      8  O   UNL     1       1.855   6.863  -3.938  0.00  0.00    -0.269 OA
ATOM      9  C   UNL     1      -0.021   5.000  -6.270  0.00  0.00    +0.060 A 
ATOM     10  C   UNL     1      -1.244   5.045  -6.933  0.00  0.00    +0.005 A 
ATOM     11  C   UNL     1      -2.377   5.612  -6.375  0.00  0.00    +0.002 A 
ATOM     12  C   UNL     1      -2.349   5.953  -5.028  0.00  0.00    +0.018 A 
ENDROOT
BRANCH   5  13
ATOM     13  C   UNL     1       3.401   6.685  -6.642  0.00  0.00    +0.162 C 
ATOM     14  C   UNL     1       2.696   7.180  -7.999  0.00  0.00    +0.266 C 
ATOM     15  O   UNL     1       2.412   8.412  -7.875  0.00  0.00    -0.271 OA
ATOM     16  N   UNL     1       3.075   6.713  -9.238  0.00  0.00    -0.143 NA
ATOM     17  C   UNL     1       4.246   5.934  -9.524  0.00  0.00    +0.248 C 
ATOM     18  O   UNL     1       4.177   5.000 -10.380  0.00  0.00    -0.273 OA
ATOM     19  C   UNL     1       5.037   5.674  -8.276  0.00  0.00    +0.089 C 
ATOM     20  C   UNL     1       3.990   5.285  -7.276  0.00  0.00    +0.039 C 
ENDBRANCH   5  13
TORSDOF 1
ENDMDL
MODEL 3
REMARK VINA RESULT:      -7.8      7.330      8.729
REMARK  Name = 
REMARK  1 active torsions:
REMARK  status: ('A' for Active; 'I' for Inactive)
REMARK    1  A    between atoms: N_10  and  C_11
REMARK                            x       y       z     vdW  Elec       q    Type
REMARK                         _______ _______ _______ _____ _____    ______ ____
ROOT
ATOM      1  N   UNL     1       1.367   5.107  -9.074  0.00  0.00    -0.128 NA
ATOM      2  C   UNL     1       1.129   5.847 -10.274  0.00  0.00    +0.094 A 
ATOM      3  C   UNL     1       2.100   5.693 -11.256  0.00  0.00    +0.075 A 
ATOM      4  C   UNL     1       3.544   5.904 -11.072  0.00  0.00    +0.257 C 
ATOM      5  N   UNL     1       4.120   6.042 -12.317  0.00  0.00    -0.216 N 
ATOM      6  C   UNL     1       3.049   6.118 -13.267  0.00  0.00    +0.255 C 
ATOM      7  O   UNL     1       3.185   5.950 -14.518  0.00  0.00    -0.269 OA
ATOM      8  O   UNL     1       4.206   5.488 -10.083  0.00  0.00    -0.269 OA
ATOM      9  C   UNL     1       1.761   5.928 -12.583  0.00  0.00    +0.060 A 
ATOM     10  C   UNL     1       0.592   6.647 -12.815  0.00  0.00    +0.005 A 
ATOM     11  C   UNL     1      -0.287   6.994 -11.802  0.00  0.00    +0.002 A 
ATOM     12  C   UNL     1      -0.106   6.423 -10.548  0.00  0.00    +0.018 A 
ENDROOT
BRANCH   5  13
ATOM     13  C   UNL     1       5.524   6.651 -12.660  0.00  0.00    +0.162 C 
ATOM     14  C   UNL     1       6.376   5.354 -12.240  0.00  0.00    +0.266 C 
ATOM     15  O   UNL     1       6.699   4.730 -13.299  0.00  0.00    -0.271 OA
ATOM     16  N   UNL     1       7.260   5.364 -11.186  0.00  0.00    -0.143 NA
ATOM     17  C   UNL     1       7.716   6.527 -10.477  0.00  0.00    +0.248 C 
ATOM     18  O   UNL     1       7.879   6.464  -9.220  0.00  0.00    -0.273 OA
ATOM     19  C   UNL     1       7.094   7.773 -11.034  0.00  0.00    +0.089 C 
ATOM     20  C   UNL     1       5.652   7.398 -11.199  0.00  0.00    +0.039 C 
ENDBRANCH   5  13
TORSDOF 1
ENDMDL
MODEL 4
REMARK VINA RESULT:      -7.8      6.175      7.827
REMARK  Name = 
REMARK  1 active torsions:
REMARK  status: ('A' for Active; 'I' for Inactive)
REMARK    1  A    between atoms: N_10  and  C_11
REMARK                            x       y       z     vdW  Elec       q    Type
REMARK                         _______ _______ _______ _____ _____    ______ ____
ROOT
ATOM      1  N   UNL     1       2.846   4.226  -6.916  0.00  0.00    -0.128 NA
ATOM      2  C   UNL     1       1.899   4.886  -7.762  0.00  0.00    +0.094 A 
ATOM      3  C   UNL     1       2.229   4.890  -9.112  0.00  0.00    +0.075 A 
ATOM      4  C   UNL     1       3.499   5.364  -9.681  0.00  0.00    +0.257 C 
ATOM      5  N   UNL     1       3.311   5.578 -11.030  0.00  0.00    -0.216 N 
ATOM      6  C   UNL     1       1.908   5.438 -11.285  0.00  0.00    +0.255 C 
ATOM      7  O   UNL     1       1.400   5.272 -12.436  0.00  0.00    -0.269 OA
ATOM      8  O   UNL     1       4.637   5.097  -9.208  0.00  0.00    -0.269 OA
ATOM      9  C   UNL     1       1.216   5.031 -10.052  0.00  0.00    +0.060 A 
ATOM     10  C   UNL     1      -0.004   5.520  -9.594  0.00  0.00    +0.005 A 
ATOM     11  C   UNL     1      -0.272   5.723  -8.251  0.00  0.00    +0.002 A 
ATOM     12  C   UNL     1       0.626   5.221  -7.316  0.00  0.00    +0.018 A 
ENDROOT
BRANCH   5  13
ATOM     13  C   UNL     1       4.209   6.426 -11.998  0.00  0.00    +0.162 C 
ATOM     14  C   UNL     1       5.362   5.318 -12.170  0.00  0.00    +0.266 C 
ATOM     15  O   UNL     1       5.193   4.737 -13.287  0.00  0.00    -0.271 OA
ATOM     16  N   UNL     1       6.647   5.519 -11.719  0.00  0.00    -0.143 NA
ATOM     17  C   UNL     1       7.197   6.763 -11.261  0.00  0.00    +0.248 C 
ATOM     18  O   UNL     1       7.994   6.765 -10.275  0.00  0.00    -0.273 OA
ATOM     19  C   UNL     1       6.175   7.859 -11.329  0.00  0.00    +0.089 C 
ATOM     20  C   UNL     1       4.944   7.222 -10.759  0.00  0.00    +0.039 C 
ENDBRANCH   5  13
TORSDOF 1
ENDMDL
MODEL 5
REMARK VINA RESULT:      -7.8      1.654      2.301
REMARK  Name = 
REMARK  1 active torsions:
REMARK  status: ('A' for Active; 'I' for Inactive)
REMARK    1  A    between atoms: N_10  and  C_11
REMARK                            x       y       z     vdW  Elec       q    Type
REMARK                         _______ _______ _______ _____ _____    ______ ____
ROOT
ATOM      1  N   UNL     1      -2.687   4.993  -2.168  0.00  0.00    -0.128 NA
ATOM      2  C   UNL     1      -2.021   5.992  -2.945  0.00  0.00    +0.094 A 
ATOM      3  C   UNL     1      -0.727   5.662  -3.332  0.00  0.00    +0.075 A 
ATOM      4  C   UNL     1       0.353   5.235  -2.429  0.00  0.00    +0.257 C 
ATOM      5  N   UNL     1       1.551   5.378  -3.096  0.00  0.00    -0.216 N 
ATOM      6  C   UNL     1       1.269   6.067  -4.320  0.00  0.00    +0.255 C 
ATOM      7  O   UNL     1       2.055   6.114  -5.316  0.00  0.00    -0.269 OA
ATOM      8  O   UNL     1       0.214   4.398  -1.496  0.00  0.00    -0.269 OA
ATOM      9  C   UNL     1      -0.181   6.276  -4.453  0.00  0.00    +0.060 A 
ATOM     10  C   UNL     1      -0.808   7.434  -4.903  0.00  0.00    +0.005 A 
ATOM     11  C   UNL     1      -2.003   7.893  -4.374  0.00  0.00    +0.002 A 
ATOM     12  C   UNL     1      -2.708   7.058  -3.515  0.00  0.00    +0.018 A 
ENDROOT
BRANCH   5  13
ATOM     13  C   UNL     1       2.991   5.428  -2.475  0.00  0.00    +0.162 C 
ATOM     14  C   UNL     1       2.957   6.992  -2.102  0.00  0.00    +0.266 C 
ATOM     15  O   UNL     1       2.721   7.100  -0.858  0.00  0.00    -0.271 OA
ATOM     16  N   UNL     1       3.797   7.908  -2.695  0.00  0.00    -0.143 NA
ATOM     17  C   UNL     1       4.930   7.603  -3.521  0.00  0.00    +0.248 C 
ATOM     18  O   UNL     1       5.175   8.328  -4.533  0.00  0.00    -0.273 OA
ATOM     19  C   UNL     1       5.102   6.120  -3.673  0.00  0.00    +0.089 C 
ATOM     20  C   UNL     1       3.708   5.636  -3.942  0.00  0.00    +0.039 C 
ENDBRANCH   5  13
TORSDOF 1
ENDMDL
MODEL 6
REMARK VINA RESULT:      -7.6      2.960      4.205
REMARK  Name = 
REMARK  1 active torsions:
REMARK  status: ('A' for Active; 'I' for Inactive)
REMARK    1  A    between atoms: N_10  and  C_11
REMARK                            x       y       z     vdW  Elec       q    Type
REMARK                         _______ _______ _______ _____ _____    ______ ____
ROOT
ATOM      1  N   UNL     1       0.094   4.685  -1.450  0.00  0.00    -0.128 NA
ATOM      2  C   UNL     1      -0.907   5.492  -2.075  0.00  0.00    +0.094 A 
ATOM      3  C   UNL     1      -0.908   5.448  -3.464  0.00  0.00    +0.075 A 
ATOM      4  C   UNL     1       0.252   5.712  -4.328  0.00  0.00    +0.257 C 
ATOM      5  N   UNL     1      -0.210   5.958  -5.603  0.00  0.00    -0.216 N 
ATOM      6  C   UNL     1      -1.638   6.049  -5.520  0.00  0.00    +0.255 C 
ATOM      7  O   UNL     1      -2.423   5.972  -6.515  0.00  0.00    -0.269 OA
ATOM      8  O   UNL     1       1.412   5.260  -4.124  0.00  0.00    -0.269 OA
ATOM      9  C   UNL     1      -2.078   5.755  -4.147  0.00  0.00    +0.060 A 
ATOM     10  C   UNL     1      -3.062   6.434  -3.435  0.00  0.00    +0.005 A 
ATOM     11  C   UNL     1      -2.971   6.673  -2.074  0.00  0.00    +0.002 A 
ATOM     12  C   UNL     1      -1.970   6.029  -1.357  0.00  0.00    +0.018 A 
ENDROOT
BRANCH   5  13
ATOM     13  C   UNL     1       0.557   6.652  -6.782  0.00  0.00    +0.162 C 
ATOM     14  C   UNL     1       1.056   5.292  -7.481  0.00  0.00    +0.266 C 
ATOM     15  O   UNL     1       0.304   5.058  -8.478  0.00  0.00    -0.271 OA
ATOM     16  N   UNL     1       2.387   4.953  -7.565  0.00  0.00    -0.143 NA
ATOM     17  C   UNL     1       3.497   5.815  -7.272  0.00  0.00    +0.248 C 
ATOM     18  O   UNL     1       4.516   5.337  -6.687  0.00  0.00    -0.273 OA
ATOM     19  C   UNL     1       3.025   7.174  -6.846  0.00  0.00    +0.089 C 
ATOM     20  C   UNL     1       1.918   6.869  -5.882  0.00  0.00    +0.039 C 
ENDBRANCH   5  13
TORSDOF 1
ENDMDL
MODEL 7
REMARK VINA RESULT:      -7.6      5.127      7.798
REMARK  Name = 
REMARK  1 active torsions:
REMARK  status: ('A' for Active; 'I' for Inactive)
REMARK    1  A    between atoms: N_10  and  C_11
REMARK                            x       y       z     vdW  Elec       q    Type
REMARK                         _______ _______ _______ _____ _____    ______ ____
ROOT
ATOM      1  N   UNL     1       5.348   5.679 -12.692  0.00  0.00    -0.128 NA
ATOM      2  C   UNL     1       5.577   5.751 -11.282  0.00  0.00    +0.094 A 
ATOM      3  C   UNL     1       4.476   5.431 -10.496  0.00  0.00    +0.075 A 
ATOM      4  C   UNL     1       3.144   6.044 -10.600  0.00  0.00    +0.257 C 
ATOM      5  N   UNL     1       2.453   5.770  -9.439  0.00  0.00    -0.216 N 
ATOM      6  C   UNL     1       3.385   5.169  -8.530  0.00  0.00    +0.255 C 
ATOM      7  O   UNL     1       3.057   4.519  -7.490  0.00  0.00    -0.269 OA
ATOM      8  O   UNL     1       2.543   6.267 -11.687  0.00  0.00    -0.269 OA
ATOM      9  C   UNL     1       4.683   4.984  -9.197  0.00  0.00    +0.060 A 
ATOM     10  C   UNL     1       5.935   5.227  -8.640  0.00  0.00    +0.005 A 
ATOM     11  C   UNL     1       6.990   5.750  -9.369  0.00  0.00    +0.002 A 
ATOM     12  C   UNL     1       6.859   5.835 -10.750  0.00  0.00    +0.018 A 
ENDROOT
BRANCH   5  13
ATOM     13  C   UNL     1       1.173   6.493  -8.893  0.00  0.00    +0.162 C 
ATOM     14  C   UNL     1       1.888   7.155  -7.613  0.00  0.00    +0.266 C 
ATOM     15  O   UNL     1       2.125   8.375  -7.875  0.00  0.00    -0.271 OA
ATOM     16  N   UNL     1       1.551   6.812  -6.323  0.00  0.00    -0.143 NA
ATOM     17  C   UNL     1       0.415   6.029  -5.927  0.00  0.00    +0.248 C 
ATOM     18  O   UNL     1       0.534   5.195  -4.979  0.00  0.00    -0.273 OA
ATOM     19  C   UNL     1      -0.392   5.610  -7.121  0.00  0.00    +0.089 C 
ATOM     20  C   UNL     1       0.648   5.151  -8.099  0.00  0.00    +0.039 C 
ENDBRANCH   5  13
TORSDOF 1
ENDMDL
MODEL 8
REMARK VINA RESULT:      -7.5      6.712      9.619
REMARK  Name = 
REMARK  1 active torsions:
REMARK  status: ('A' for Active; 'I' for Inactive)
REMARK    1  A    between atoms: N_10  and  C_11
REMARK                            x       y       z     vdW  Elec       q    Type
REMARK                         _______ _______ _______ _____ _____    ______ ____
ROOT
ATOM      1  N   UNL     1       6.269   5.064 -13.593  0.00  0.00    -0.128 NA
ATOM      2  C   UNL     1       6.651   5.730 -12.386  0.00  0.00    +0.094 A 
ATOM      3  C   UNL     1       5.852   5.443 -11.285  0.00  0.00    +0.075 A 
ATOM      4  C   UNL     1       4.388   5.575 -11.233  0.00  0.00    +0.257 C 
ATOM      5  N   UNL     1       4.005   5.586  -9.909  0.00  0.00    -0.216 N 
ATOM      6  C   UNL     1       5.204   5.661  -9.127  0.00  0.00    +0.255 C 
ATOM      7  O   UNL     1       5.272   5.395  -7.888  0.00  0.00    -0.269 OA
ATOM      8  O   UNL     1       3.604   5.190 -12.143  0.00  0.00    -0.269 OA
ATOM      9  C   UNL     1       6.379   5.603 -10.010  0.00  0.00    +0.060 A 
ATOM     10  C   UNL     1       7.531   6.376  -9.898  0.00  0.00    +0.005 A 
ATOM     11  C   UNL     1       8.224   6.851 -10.999  0.00  0.00    +0.002 A 
ATOM     12  C   UNL     1       7.882   6.362 -12.255  0.00  0.00    +0.018 A 
ENDROOT
BRANCH   5  13
ATOM     13  C   UNL     1       2.641   6.078  -9.312  0.00  0.00    +0.162 C 
ATOM     14  C   UNL     1       1.971   4.620  -9.202  0.00  0.00    +0.266 C 
ATOM     15  O   UNL     1       2.043   4.239  -7.992  0.00  0.00    -0.271 OA
ATOM     16  N   UNL     1       0.867   4.261  -9.941  0.00  0.00    -0.143 NA
ATOM     17  C   UNL     1       0.040   5.147 -10.710  0.00  0.00    +0.248 C 
ATOM     18  O   UNL     1      -0.415   4.759 -11.829  0.00  0.00    -0.273 OA
ATOM     19  C   UNL     1       0.535   6.561 -10.615  0.00  0.00    +0.089 C 
ATOM     20  C   UNL     1       2.017   6.422 -10.795  0.00  0.00    +0.039 C 
ENDBRANCH   5  13
TORSDOF 1
ENDMDL
MODEL 9
REMARK VINA RESULT:      -7.4      7.811     10.837
REMARK  Name = 
REMARK  1 active torsions:
REMARK  status: ('A' for Active; 'I' for Inactive)
REMARK    1  A    between atoms: N_10  and  C_11
REMARK                            x       y       z     vdW  Elec       q    Type
REMARK                         _______ _______ _______ _____ _____    ______ ____
ROOT
ATOM      1  N   UNL     1       7.043   4.943 -13.496  0.00  0.00    -0.128 NA
ATOM      2  C   UNL     1       6.807   5.533 -12.215  0.00  0.00    +0.094 A 
ATOM      3  C   UNL     1       5.536   5.311 -11.697  0.00  0.00    +0.075 A 
ATOM      4  C   UNL     1       4.269   5.605 -12.385  0.00  0.00    +0.257 C 
ATOM      5  N   UNL     1       3.264   5.627 -11.442  0.00  0.00    -0.216 N 
ATOM      6  C   UNL     1       3.894   5.549 -10.157  0.00  0.00    +0.255 C 
ATOM      7  O   UNL     1       3.294   5.248  -9.079  0.00  0.00    -0.269 OA
ATOM      8  O   UNL     1       4.033   5.332 -13.593  0.00  0.00    -0.269 OA
ATOM      9  C   UNL     1       5.346   5.381 -10.323  0.00  0.00    +0.060 A 
ATOM     10  C   UNL     1       6.338   6.018  -9.582  0.00  0.00    +0.005 A 
ATOM     11  C   UNL     1       7.534   6.438 -10.139  0.00  0.00    +0.002 A 
ATOM     12  C   UNL     1       7.844   6.020 -11.428  0.00  0.00    +0.018 A 
ENDROOT
BRANCH   5  13
ATOM     13  C   UNL     1       1.834   6.255 -11.582  0.00  0.00    +0.162 C 
ATOM     14  C   UNL     1       1.134   4.942 -12.193  0.00  0.00    +0.266 C 
ATOM     15  O   UNL     1       0.485   4.367 -11.264  0.00  0.00    -0.271 OA
ATOM     16  N   UNL     1       0.625   4.907 -13.471  0.00  0.00    -0.143 NA
ATOM     17  C   UNL     1       0.433   6.037 -14.335  0.00  0.00    +0.248 C 
ATOM     18  O   UNL     1       0.670   5.918 -15.576  0.00  0.00    -0.273 OA
ATOM     19  C   UNL     1       0.870   7.306 -13.665  0.00  0.00    +0.089 C 
ATOM     20  C   UNL     1       2.182   6.935 -13.040  0.00  0.00    +0.039 C 
ENDBRANCH   5  13
TORSDOF 1
ENDMDL
