MODEL 1
REMARK VINA RESULT:      -9.1      0.000      0.000
REMARK  Name = 
REMARK  26 active torsions:
REMARK  status: ('A' for Active; 'I' for Inactive)
REMARK    1  A    between atoms: O_2  and  C_3
REMARK    2  A    between atoms: C_6  and  C_7
REMARK    3  A    between atoms: C_7  and  C_8
REMARK    4  A    between atoms: C_11  and  O_12
REMARK    5  A    between atoms: C_14  and  O_15
REMARK    6  A    between atoms: N_21  and  C_23
REMARK    7  A    between atoms: C_23  and  C_24
REMARK    8  A    between atoms: C_24  and  C_25
REMARK    9  A    between atoms: C_25  and  O_27
REMARK   10  A    between atoms: O_27  and  C_28
REMARK   11  A    between atoms: C_28  and  C_29
REMARK   12  A    between atoms: C_29  and  C_30
REMARK   13  A    between atoms: C_30  and  C_31
REMARK   14  A    between atoms: C_31  and  C_32
REMARK   15  A    between atoms: C_32  and  O_33
REMARK   16  A    between atoms: O_33  and  C_34
REMARK   17  A    between atoms: C_34  and  C_36
REMARK   18  A    between atoms: C_36  and  C_37
REMARK   19  A    between atoms: C_37  and  N_38
REMARK   20  A    between atoms: C_44  and  O_45
REMARK   21  A    between atoms: C_47  and  O_48
REMARK   22  A    between atoms: C_52  and  C_53
REMARK   23  A    between atoms: C_53  and  C_54
REMARK   24  A    between atoms: C_57  and  O_58
REMARK   25  A    between atoms: C_60  and  O_61
REMARK   26  A    between atoms: C_65  and  O_66
REMARK                            x       y       z     vdW  Elec       q    Type
REMARK                         _______ _______ _______ _____ _____    ______ ____
ROOT
ATOM      1  C   UNL     1      -2.341   7.097  -2.179  0.00  0.00    +0.008 C 
ENDROOT
BRANCH   1   2
ATOM      2  C   UNL     1      -3.574   6.423  -2.770  0.00  0.00    +0.048 C 
BRANCH   2   3
ATOM      3  C   UNL     1      -3.025   5.259  -3.590  0.00  0.00    +0.208 C 
BRANCH   3   4
ATOM      4  O   UNL     1      -2.022   5.837  -4.425  0.00  0.00    -0.448 OA
BRANCH   4   5
ATOM      5  C   UNL     1      -2.091   5.680  -5.793  0.00  0.00    +0.323 C 
ATOM      6  O   UNL     1      -2.937   6.419  -6.387  0.00  0.00    -0.250 OA
BRANCH   5   7
ATOM      7  C   UNL     1      -1.154   4.958  -6.638  0.00  0.00    +0.170 C 
BRANCH   7   8
ATOM      8  C   UNL     1      -0.431   5.672  -7.683  0.00  0.00    +0.121 C 
BRANCH   8   9
ATOM      9  N   UNL     1       0.984   5.772  -7.619  0.00  0.00    +0.301 N 
ATOM     10  C   UNL     1       1.395   6.423  -8.994  0.00  0.00    +0.086 C 
ATOM     11  C   UNL     1       2.940   5.975  -8.933  0.00  0.00    +0.027 A 
ATOM     12  C   UNL     1       3.583   5.904  -7.751  0.00  0.00    -0.012 A 
ATOM     13  C   UNL     1       4.962   5.709  -7.847  0.00  0.00    +0.036 A 
ATOM     14  C   UNL     1       5.607   5.595  -9.073  0.00  0.00    +0.172 A 
ATOM     15  C   UNL     1       4.894   5.839 -10.242  0.00  0.00    +0.172 A 
ATOM     16  C   UNL     1       2.950   5.024  -6.703  0.00  0.00    +0.087 C 
ATOM     17  C   UNL     1       3.641   6.412 -10.051  0.00  0.00    +0.041 A 
ATOM     18  C   UNL     1       1.709   4.566  -7.471  0.00  0.00    +0.114 C 
ATOM     19  C   UNL     1       1.281   6.780  -6.610  0.00  0.00    +0.171 C 
BRANCH  14  20
ATOM     20  O   UNL     1       6.859   4.984  -9.208  0.00  0.00    -0.468 OA
ATOM     21  C   UNL     1       7.970   5.815  -9.536  0.00  0.00    +0.253 C 
ENDBRANCH  14  20
BRANCH  15  22
ATOM     22  O   UNL     1       5.446   5.638 -11.495  0.00  0.00    -0.468 OA
ATOM     23  C   UNL     1       5.864   6.727 -12.314  0.00  0.00    +0.253 C 
ENDBRANCH  15  22
BRANCH  10  24
ATOM     24  C   UNL     1       0.973   5.060  -9.817  0.00  0.00    +0.086 C 
BRANCH  24  25
ATOM     25  C   UNL     1       0.505   5.582 -11.115  0.00  0.00    -0.013 A 
ATOM     26  C   UNL     1       0.614   4.918 -12.313  0.00  0.00    +0.036 A 
ATOM     27  C   UNL     1       0.899   5.593 -13.490  0.00  0.00    +0.172 A 
ATOM     28  C   UNL     1       0.499   6.923 -13.553  0.00  0.00    +0.172 A 
ATOM     29  C   UNL     1       0.007   7.541 -12.419  0.00  0.00    +0.040 A 
ATOM     30  C   UNL     1       0.092   6.907 -11.185  0.00  0.00    -0.001 A 
BRANCH  28  31
ATOM     31  O   UNL     1       0.730   7.677 -14.707  0.00  0.00    -0.468 OA
ATOM     32  C   UNL     1      -0.140   7.618 -15.832  0.00  0.00    +0.253 C 
ENDBRANCH  28  31
BRANCH  27  33
ATOM     33  O   UNL     1       1.808   5.108 -14.433  0.00  0.00    -0.468 OA
ATOM     34  C   UNL     1       3.156   4.864 -14.034  0.00  0.00    +0.253 C 
ENDBRANCH  27  33
ENDBRANCH  24  25
ENDBRANCH  10  24
ENDBRANCH   8   9
ENDBRANCH   7   8
ENDBRANCH   5   7
ENDBRANCH   4   5
ENDBRANCH   3   4
ENDBRANCH   2   3
ENDBRANCH   1   2
BRANCH   1  35
ATOM     35  C   UNL     1      -1.979   6.244  -0.973  0.00  0.00    +0.048 C 
BRANCH  35  36
ATOM     36  C   UNL     1      -2.004   7.175   0.229  0.00  0.00    +0.208 C 
BRANCH  36  37
ATOM     37  O   UNL     1      -1.069   8.221  -0.001  0.00  0.00    -0.448 OA
BRANCH  37  38
ATOM     38  C   UNL     1       0.079   8.236   0.779  0.00  0.00    +0.323 C 
ATOM     39  O   UNL     1       0.717   7.177   0.896  0.00  0.00    -0.250 OA
BRANCH  38  40
ATOM     40  C   UNL     1       0.676   9.549   1.052  0.00  0.00    +0.170 C 
BRANCH  40  41
ATOM     41  C   UNL     1       1.993   9.699   1.250  0.00  0.00    +0.121 C 
BRANCH  41  43
ATOM     42  C   UNL     1       4.313  10.259   1.278  0.00  0.00    +0.086 C 
ATOM     43  N   UNL     1       3.037   9.712   2.039  0.00  0.00    +0.301 N 
ATOM     44  C   UNL     1       2.908  10.679   3.132  0.00  0.00    +0.171 C 
ATOM     45  C   UNL     1       3.435   8.481   2.666  0.00  0.00    +0.114 C 
ATOM     46  C   UNL     1       4.888   8.108   2.435  0.00  0.00    +0.087 C 
ATOM     47  C   UNL     1       4.958   7.958   0.940  0.00  0.00    -0.012 A 
ATOM     48  C   UNL     1       4.757   6.718   0.346  0.00  0.00    +0.036 A 
ATOM     49  C   UNL     1       4.154   6.587  -0.899  0.00  0.00    +0.172 A 
ATOM     50  C   UNL     1       3.528   7.693  -1.456  0.00  0.00    +0.172 A 
ATOM     51  C   UNL     1       3.477   8.845  -0.715  0.00  0.00    +0.041 A 
ATOM     52  C   UNL     1       4.356   9.015   0.261  0.00  0.00    +0.027 A 
BRANCH  50  53
ATOM     53  O   UNL     1       3.120   7.684  -2.794  0.00  0.00    -0.468 OA
ATOM     54  C   UNL     1       4.115   7.770  -3.797  0.00  0.00    +0.253 C 
ENDBRANCH  50  53
BRANCH  49  55
ATOM     55  O   UNL     1       4.194   5.392  -1.620  0.00  0.00    -0.468 OA
ATOM     56  C   UNL     1       3.652   4.213  -1.029  0.00  0.00    +0.253 C 
ENDBRANCH  49  55
BRANCH  42  57
ATOM     57  C   UNL     1       3.432  11.247   0.299  0.00  0.00    +0.086 C 
BRANCH  57  61
ATOM     58  C   UNL     1       5.686  14.696  -0.394  0.00  0.00    +0.172 A 
ATOM     59  C   UNL     1       4.992  14.148  -1.468  0.00  0.00    +0.172 A 
ATOM     60  C   UNL     1       4.297  12.951  -1.329  0.00  0.00    +0.036 A 
ATOM     61  C   UNL     1       4.277  12.360  -0.086  0.00  0.00    -0.013 A 
ATOM     62  C   UNL     1       5.359  12.644   0.741  0.00  0.00    -0.001 A 
ATOM     63  C   UNL     1       5.969  13.894   0.705  0.00  0.00    +0.040 A 
BRANCH  58  65
ATOM     64  C   UNL     1       4.378  16.678  -0.296  0.00  0.00    +0.253 C 
ATOM     65  O   UNL     1       5.672  16.093  -0.310  0.00  0.00    -0.468 OA
ENDBRANCH  58  65
BRANCH  59  66
ATOM     66  O   UNL     1       5.349  14.646  -2.726  0.00  0.00    -0.468 OA
ATOM     67  C   UNL     1       6.606  14.444  -3.314  0.00  0.00    +0.253 C 
ENDBRANCH  59  66
ENDBRANCH  57  61
ENDBRANCH  42  57
ENDBRANCH  41  43
ENDBRANCH  40  41
ENDBRANCH  38  40
ENDBRANCH  37  38
ENDBRANCH  36  37
ENDBRANCH  35  36
ENDBRANCH   1  35
TORSDOF 26
ENDMDL
MODEL 2
REMARK VINA RESULT:      -7.6      1.377      4.959
REMARK  Name = 
REMARK  26 active torsions:
REMARK  status: ('A' for Active; 'I' for Inactive)
REMARK    1  A    between atoms: O_2  and  C_3
REMARK    2  A    between atoms: C_6  and  C_7
REMARK    3  A    between atoms: C_7  and  C_8
REMARK    4  A    between atoms: C_11  and  O_12
REMARK    5  A    between atoms: C_14  and  O_15
REMARK    6  A    between atoms: N_21  and  C_23
REMARK    7  A    between atoms: C_23  and  C_24
REMARK    8  A    between atoms: C_24  and  C_25
REMARK    9  A    between atoms: C_25  and  O_27
REMARK   10  A    between atoms: O_27  and  C_28
REMARK   11  A    between atoms: C_28  and  C_29
REMARK   12  A    between atoms: C_29  and  C_30
REMARK   13  A    between atoms: C_30  and  C_31
REMARK   14  A    between atoms: C_31  and  C_32
REMARK   15  A    between atoms: C_32  and  O_33
REMARK   16  A    between atoms: O_33  and  C_34
REMARK   17  A    between atoms: C_34  and  C_36
REMARK   18  A    between atoms: C_36  and  C_37
REMARK   19  A    between atoms: C_37  and  N_38
REMARK   20  A    between atoms: C_44  and  O_45
REMARK   21  A    between atoms: C_47  and  O_48
REMARK   22  A    between atoms: C_52  and  C_53
REMARK   23  A    between atoms: C_53  and  C_54
REMARK   24  A    between atoms: C_57  and  O_58
REMARK   25  A    between atoms: C_60  and  O_61
REMARK   26  A    between atoms: C_65  and  O_66
REMARK                            x       y       z     vdW  Elec       q    Type
REMARK                         _______ _______ _______ _____ _____    ______ ____
ROOT
ATOM      1  C   UNL     1       1.735   5.264  -3.296  0.00  0.00    +0.008 C 
ENDROOT
BRANCH   1   2
ATOM      2  C   UNL     1       0.248   5.404  -2.986  0.00  0.00    +0.048 C 
BRANCH   2   3
ATOM      3  C   UNL     1      -0.238   6.516  -3.911  0.00  0.00    +0.208 C 
BRANCH   3   4
ATOM      4  O   UNL     1      -1.492   6.055  -4.416  0.00  0.00    -0.448 OA
BRANCH   4   5
ATOM      5  C   UNL     1      -1.616   5.713  -5.745  0.00  0.00    +0.323 C 
ATOM      6  O   UNL     1      -2.622   6.204  -6.346  0.00  0.00    -0.250 OA
BRANCH   5   7
ATOM      7  C   UNL     1      -0.613   5.070  -6.579  0.00  0.00    +0.170 C 
BRANCH   7   8
ATOM      8  C   UNL     1      -0.063   5.787  -7.723  0.00  0.00    +0.121 C 
BRANCH   8   9
ATOM      9  N   UNL     1       1.345   5.895  -7.876  0.00  0.00    +0.301 N 
ATOM     10  C   UNL     1       1.536   6.569  -9.288  0.00  0.00    +0.086 C 
ATOM     11  C   UNL     1       3.074   6.130  -9.472  0.00  0.00    +0.027 A 
ATOM     12  C   UNL     1       3.892   6.047  -8.404  0.00  0.00    -0.012 A 
ATOM     13  C   UNL     1       5.241   5.862  -8.714  0.00  0.00    +0.036 A 
ATOM     14  C   UNL     1       5.690   5.769 -10.026  0.00  0.00    +0.172 A 
ATOM     15  C   UNL     1       4.804   6.026 -11.067  0.00  0.00    +0.172 A 
ATOM     16  C   UNL     1       3.432   5.147  -7.284  0.00  0.00    +0.087 C 
ATOM     17  C   UNL     1       3.593   6.588 -10.678  0.00  0.00    +0.041 A 
ATOM     18  C   UNL     1       2.089   4.692  -7.859  0.00  0.00    +0.114 C 
ATOM     19  C   UNL     1       1.789   6.891  -6.909  0.00  0.00    +0.171 C 
BRANCH  14  20
ATOM     20  O   UNL     1       6.909   5.169 -10.361  0.00  0.00    -0.468 OA
ATOM     21  C   UNL     1       8.010   5.369  -9.479  0.00  0.00    +0.253 C 
ENDBRANCH  14  20
BRANCH  15  22
ATOM     22  O   UNL     1       5.157   5.846 -12.394  0.00  0.00    -0.468 OA
ATOM     23  C   UNL     1       6.035   6.746 -13.065  0.00  0.00    +0.253 C 
ENDBRANCH  15  22
BRANCH  10  24
ATOM     24  C   UNL     1       0.999   5.214 -10.056  0.00  0.00    +0.086 C 
BRANCH  24  25
ATOM     25  C   UNL     1       0.522   5.731 -11.354  0.00  0.00    -0.013 A 
ATOM     26  C   UNL     1       0.715   5.111 -12.564  0.00  0.00    +0.036 A 
ATOM     27  C   UNL     1       0.973   5.838 -13.715  0.00  0.00    +0.172 A 
ATOM     28  C   UNL     1       0.466   7.131 -13.757  0.00  0.00    +0.172 A 
ATOM     29  C   UNL     1      -0.103   7.677 -12.622  0.00  0.00    +0.040 A 
ATOM     30  C   UNL     1       0.003   7.020 -11.402  0.00  0.00    -0.001 A 
BRANCH  28  31
ATOM     31  O   UNL     1       0.663   7.932 -14.886  0.00  0.00    -0.468 OA
ATOM     32  C   UNL     1      -0.097   7.757 -16.076  0.00  0.00    +0.253 C 
ENDBRANCH  28  31
BRANCH  27  33
ATOM     33  O   UNL     1       1.943   5.454 -14.645  0.00  0.00    -0.468 OA
ATOM     34  C   UNL     1       2.930   4.498 -14.262  0.00  0.00    +0.253 C 
ENDBRANCH  27  33
ENDBRANCH  24  25
ENDBRANCH  10  24
ENDBRANCH   8   9
ENDBRANCH   7   8
ENDBRANCH   5   7
ENDBRANCH   4   5
ENDBRANCH   3   4
ENDBRANCH   2   3
ENDBRANCH   1   2
BRANCH   1  35
ATOM     35  C   UNL     1       2.246   6.694  -3.373  0.00  0.00    +0.048 C 
BRANCH  35  36
ATOM     36  C   UNL     1       3.692   6.604  -3.838  0.00  0.00    +0.208 C 
BRANCH  36  37
ATOM     37  O   UNL     1       4.428   7.637  -3.197  0.00  0.00    -0.448 OA
BRANCH  37  38
ATOM     38  C   UNL     1       4.333   7.729  -1.816  0.00  0.00    +0.323 C 
ATOM     39  O   UNL     1       5.088   7.018  -1.131  0.00  0.00    -0.250 OA
BRANCH  38  40
ATOM     40  C   UNL     1       3.675   8.924  -1.275  0.00  0.00    +0.170 C 
BRANCH  40  41
ATOM     41  C   UNL     1       3.866   9.327  -0.012  0.00  0.00    +0.121 C 
BRANCH  41  43
ATOM     42  C   UNL     1       2.973  10.095   2.064  0.00  0.00    +0.086 C 
ATOM     43  N   UNL     1       3.901   9.084   1.274  0.00  0.00    +0.301 N 
ATOM     44  C   UNL     1       3.298   7.795   1.622  0.00  0.00    +0.171 C 
ATOM     45  C   UNL     1       5.176   9.099   1.938  0.00  0.00    +0.114 C 
ATOM     46  C   UNL     1       5.236  10.018   3.144  0.00  0.00    +0.087 C 
ATOM     47  C   UNL     1       4.964  11.370   2.545  0.00  0.00    -0.012 A 
ATOM     48  C   UNL     1       6.014  12.181   2.130  0.00  0.00    +0.036 A 
ATOM     49  C   UNL     1       5.899  13.034   1.040  0.00  0.00    +0.172 A 
ATOM     50  C   UNL     1       4.797  12.903   0.205  0.00  0.00    +0.172 A 
ATOM     51  C   UNL     1       3.911  11.890   0.461  0.00  0.00    +0.041 A 
ATOM     52  C   UNL     1       3.873  11.369   1.679  0.00  0.00    +0.027 A 
BRANCH  50  53
ATOM     53  O   UNL     1       4.510  13.879  -0.756  0.00  0.00    -0.468 OA
ATOM     54  C   UNL     1       4.885  13.626  -2.097  0.00  0.00    +0.253 C 
ENDBRANCH  50  53
BRANCH  49  55
ATOM     55  O   UNL     1       6.833  14.039   0.782  0.00  0.00    -0.468 OA
ATOM     56  C   UNL     1       6.713  15.282   1.470  0.00  0.00    +0.253 C 
ENDBRANCH  49  55
BRANCH  42  57
ATOM     57  C   UNL     1       1.911  10.255   0.816  0.00  0.00    +0.086 C 
BRANCH  57  61
ATOM     58  C   UNL     1      -1.358   8.102   2.277  0.00  0.00    +0.172 A 
ATOM     59  C   UNL     1      -0.801   7.696   1.069  0.00  0.00    +0.172 A 
ATOM     60  C   UNL     1       0.229   8.422   0.480  0.00  0.00    +0.036 A 
ATOM     61  C   UNL     1       0.710   9.520   1.158  0.00  0.00    -0.013 A 
ATOM     62  C   UNL     1      -0.185  10.142   2.022  0.00  0.00    -0.001 A 
ATOM     63  C   UNL     1      -1.129   9.398   2.723  0.00  0.00    +0.040 A 
BRANCH  58  65
ATOM     64  C   UNL     1      -3.109   7.085   3.522  0.00  0.00    +0.253 C 
ATOM     65  O   UNL     1      -1.739   7.073   3.147  0.00  0.00    -0.468 OA
ENDBRANCH  58  65
BRANCH  59  66
ATOM     66  O   UNL     1      -1.572   6.788   0.332  0.00  0.00    -0.468 OA
ATOM     67  C   UNL     1      -2.290   7.134  -0.822  0.00  0.00    +0.253 C 
ENDBRANCH  59  66
ENDBRANCH  57  61
ENDBRANCH  42  57
ENDBRANCH  41  43
ENDBRANCH  40  41
ENDBRANCH  38  40
ENDBRANCH  37  38
ENDBRANCH  36  37
ENDBRANCH  35  36
ENDBRANCH   1  35
TORSDOF 26
ENDMDL
MODEL 3
REMARK VINA RESULT:      -7.0      2.459      5.817
REMARK  Name = 
REMARK  26 active torsions:
REMARK  status: ('A' for Active; 'I' for Inactive)
REMARK    1  A    between atoms: O_2  and  C_3
REMARK    2  A    between atoms: C_6  and  C_7
REMARK    3  A    between atoms: C_7  and  C_8
REMARK    4  A    between atoms: C_11  and  O_12
REMARK    5  A    between atoms: C_14  and  O_15
REMARK    6  A    between atoms: N_21  and  C_23
REMARK    7  A    between atoms: C_23  and  C_24
REMARK    8  A    between atoms: C_24  and  C_25
REMARK    9  A    between atoms: C_25  and  O_27
REMARK   10  A    between atoms: O_27  and  C_28
REMARK   11  A    between atoms: C_28  and  C_29
REMARK   12  A    between atoms: C_29  and  C_30
REMARK   13  A    between atoms: C_30  and  C_31
REMARK   14  A    between atoms: C_31  and  C_32
REMARK   15  A    between atoms: C_32  and  O_33
REMARK   16  A    between atoms: O_33  and  C_34
REMARK   17  A    between atoms: C_34  and  C_36
REMARK   18  A    between atoms: C_36  and  C_37
REMARK   19  A    between atoms: C_37  and  N_38
REMARK   20  A    between atoms: C_44  and  O_45
REMARK   21  A    between atoms: C_47  and  O_48
REMARK   22  A    between atoms: C_52  and  C_53
REMARK   23  A    between atoms: C_53  and  C_54
REMARK   24  A    between atoms: C_57  and  O_58
REMARK   25  A    between atoms: C_60  and  O_61
REMARK   26  A    between atoms: C_65  and  O_66
REMARK                            x       y       z     vdW  Elec       q    Type
REMARK                         _______ _______ _______ _____ _____    ______ ____
ROOT
ATOM      1  C   UNL     1      -2.176   5.664  -5.954  0.00  0.00    +0.008 C 
ENDROOT
BRANCH   1   2
ATOM      2  C   UNL     1      -0.810   5.786  -6.622  0.00  0.00    +0.048 C 
BRANCH   2   3
ATOM      3  C   UNL     1      -0.999   5.170  -8.005  0.00  0.00    +0.208 C 
BRANCH   3   4
ATOM      4  O   UNL     1       0.256   5.350  -8.663  0.00  0.00    -0.448 OA
BRANCH   4   5
ATOM      5  C   UNL     1       0.298   5.911  -9.921  0.00  0.00    +0.323 C 
ATOM      6  O   UNL     1       0.884   7.035 -10.001  0.00  0.00    -0.250 OA
BRANCH   5   7
ATOM      7  C   UNL     1      -0.028   5.260 -11.180  0.00  0.00    +0.170 C 
BRANCH   7   8
ATOM      8  C   UNL     1       1.024   5.020 -12.159  0.00  0.00    +0.121 C 
BRANCH   8   9
ATOM      9  N   UNL     1       1.024   5.738 -13.385  0.00  0.00    +0.301 N 
ATOM     10  C   UNL     1       2.491   5.574 -13.936  0.00  0.00    +0.086 C 
ATOM     11  C   UNL     1       2.421   6.813 -14.962  0.00  0.00    +0.027 A 
ATOM     12  C   UNL     1       1.263   7.122 -15.580  0.00  0.00    -0.012 A 
ATOM     13  C   UNL     1       1.379   8.075 -16.593  0.00  0.00    +0.036 A 
ATOM     14  C   UNL     1       2.597   8.655 -16.925  0.00  0.00    +0.172 A 
ATOM     15  C   UNL     1       3.763   8.164 -16.349  0.00  0.00    +0.172 A 
ATOM     16  C   UNL     1       0.079   7.378 -14.682  0.00  0.00    +0.087 C 
ATOM     17  C   UNL     1       3.613   6.964 -15.660  0.00  0.00    +0.041 A 
ATOM     18  C   UNL     1       0.731   7.120 -13.321  0.00  0.00    +0.114 C 
ATOM     19  C   UNL     1       0.180   4.985 -14.303  0.00  0.00    +0.171 C 
BRANCH  14  20
ATOM     20  O   UNL     1       2.687   9.880 -17.597  0.00  0.00    -0.468 OA
ATOM     21  C   UNL     1       1.566  10.758 -17.525  0.00  0.00    +0.253 C 
ENDBRANCH  14  20
BRANCH  15  22
ATOM     22  O   UNL     1       4.993   8.765 -16.552  0.00  0.00    -0.468 OA
ATOM     23  C   UNL     1       6.213   8.040 -16.415  0.00  0.00    +0.253 C 
ENDBRANCH  15  22
BRANCH  10  24
ATOM     24  C   UNL     1       3.097   6.528 -12.737  0.00  0.00    +0.086 C 
BRANCH  24  25
ATOM     25  C   UNL     1       4.366   5.862 -12.387  0.00  0.00    -0.013 A 
ATOM     26  C   UNL     1       4.760   5.546 -11.110  0.00  0.00    +0.036 A 
ATOM     27  C   UNL     1       6.084   5.655 -10.715  0.00  0.00    +0.172 A 
ATOM     28  C   UNL     1       7.042   5.509 -11.711  0.00  0.00    +0.172 A 
ATOM     29  C   UNL     1       6.644   5.436 -13.033  0.00  0.00    +0.040 A 
ATOM     30  C   UNL     1       5.324   5.701 -13.381  0.00  0.00    -0.001 A 
BRANCH  28  31
ATOM     31  O   UNL     1       8.403   5.587 -11.402  0.00  0.00    -0.468 OA
ATOM     32  C   UNL     1       9.389   5.826 -12.399  0.00  0.00    +0.253 C 
ENDBRANCH  28  31
BRANCH  27  33
ATOM     33  O   UNL     1       6.458   6.197  -9.482  0.00  0.00    -0.468 OA
ATOM     34  C   UNL     1       7.353   5.464  -8.646  0.00  0.00    +0.253 C 
ENDBRANCH  27  33
ENDBRANCH  24  25
ENDBRANCH  10  24
ENDBRANCH   8   9
ENDBRANCH   7   8
ENDBRANCH   5   7
ENDBRANCH   4   5
ENDBRANCH   3   4
ENDBRANCH   2   3
ENDBRANCH   1   2
BRANCH   1  35
ATOM     35  C   UNL     1      -2.379   6.996  -5.249  0.00  0.00    +0.048 C 
BRANCH  35  36
ATOM     36  C   UNL     1      -2.576   6.670  -3.776  0.00  0.00    +0.208 C 
BRANCH  36  37
ATOM     37  O   UNL     1      -1.787   5.530  -3.465  0.00  0.00    -0.448 OA
BRANCH  37  38
ATOM     38  C   UNL     1      -0.769   5.690  -2.536  0.00  0.00    +0.323 C 
ATOM     39  O   UNL     1      -0.741   4.917  -1.563  0.00  0.00    -0.250 OA
BRANCH  38  40
ATOM     40  C   UNL     1       0.408   6.453  -2.969  0.00  0.00    +0.170 C 
BRANCH  40  41
ATOM     41  C   UNL     1       1.513   6.534  -2.217  0.00  0.00    +0.121 C 
BRANCH  41  43
ATOM     42  C   UNL     1       3.745   6.840  -1.425  0.00  0.00    +0.086 C 
ATOM     43  N   UNL     1       2.413   5.983  -1.442  0.00  0.00    +0.301 N 
ATOM     44  C   UNL     1       2.030   6.004  -0.028  0.00  0.00    +0.171 C 
ATOM     45  C   UNL     1       2.807   4.626  -1.708  0.00  0.00    +0.114 C 
ATOM     46  C   UNL     1       4.304   4.434  -1.867  0.00  0.00    +0.087 C 
ATOM     47  C   UNL     1       4.625   5.295  -3.057  0.00  0.00    -0.012 A 
ATOM     48  C   UNL     1       4.625   4.756  -4.338  0.00  0.00    +0.036 A 
ATOM     49  C   UNL     1       4.243   5.497  -5.449  0.00  0.00    +0.172 A 
ATOM     50  C   UNL     1       3.625   6.723  -5.252  0.00  0.00    +0.172 A 
ATOM     51  C   UNL     1       3.359   7.111  -3.964  0.00  0.00    +0.041 A 
ATOM     52  C   UNL     1       4.053   6.564  -2.978  0.00  0.00    +0.027 A 
BRANCH  50  53
ATOM     53  O   UNL     1       3.438   7.609  -6.319  0.00  0.00    -0.468 OA
ATOM     54  C   UNL     1       2.172   7.637  -6.950  0.00  0.00    +0.253 C 
ENDBRANCH  50  53
BRANCH  49  55
ATOM     55  O   UNL     1       4.498   5.064  -6.752  0.00  0.00    -0.468 OA
ATOM     56  C   UNL     1       3.411   4.592  -7.545  0.00  0.00    +0.253 C 
ENDBRANCH  49  55
BRANCH  42  57
ATOM     57  C   UNL     1       2.953   8.263  -1.661  0.00  0.00    +0.086 C 
BRANCH  57  61
ATOM     58  C   UNL     1       4.050  10.805   1.468  0.00  0.00    +0.172 A 
ATOM     59  C   UNL     1       3.835  11.373   0.217  0.00  0.00    +0.172 A 
ATOM     60  C   UNL     1       3.557  10.574  -0.889  0.00  0.00    +0.036 A 
ATOM     61  C   UNL     1       3.452   9.216  -0.689  0.00  0.00    -0.013 A 
ATOM     62  C   UNL     1       4.164   8.701   0.389  0.00  0.00    -0.001 A 
ATOM     63  C   UNL     1       4.324   9.445   1.553  0.00  0.00    +0.040 A 
BRANCH  58  65
ATOM     64  C   UNL     1       2.487  10.921   3.255  0.00  0.00    +0.253 C 
ATOM     65  O   UNL     1       3.562  11.535   2.558  0.00  0.00    -0.468 OA
ENDBRANCH  58  65
BRANCH  59  66
ATOM     66  O   UNL     1       4.285  12.690   0.074  0.00  0.00    -0.468 OA
ATOM     67  C   UNL     1       4.603  13.274  -1.161  0.00  0.00    +0.253 C 
ENDBRANCH  59  66
ENDBRANCH  57  61
ENDBRANCH  42  57
ENDBRANCH  41  43
ENDBRANCH  40  41
ENDBRANCH  38  40
ENDBRANCH  37  38
ENDBRANCH  36  37
ENDBRANCH  35  36
ENDBRANCH   1  35
TORSDOF 26
ENDMDL
MODEL 4
REMARK VINA RESULT:      -6.6      2.054      4.297
REMARK  Name = 
REMARK  26 active torsions:
REMARK  status: ('A' for Active; 'I' for Inactive)
REMARK    1  A    between atoms: O_2  and  C_3
REMARK    2  A    between atoms: C_6  and  C_7
REMARK    3  A    between atoms: C_7  and  C_8
REMARK    4  A    between atoms: C_11  and  O_12
REMARK    5  A    between atoms: C_14  and  O_15
REMARK    6  A    between atoms: N_21  and  C_23
REMARK    7  A    between atoms: C_23  and  C_24
REMARK    8  A    between atoms: C_24  and  C_25
REMARK    9  A    between atoms: C_25  and  O_27
REMARK   10  A    between atoms: O_27  and  C_28
REMARK   11  A    between atoms: C_28  and  C_29
REMARK   12  A    between atoms: C_29  and  C_30
REMARK   13  A    between atoms: C_30  and  C_31
REMARK   14  A    between atoms: C_31  and  C_32
REMARK   15  A    between atoms: C_32  and  O_33
REMARK   16  A    between atoms: O_33  and  C_34
REMARK   17  A    between atoms: C_34  and  C_36
REMARK   18  A    between atoms: C_36  and  C_37
REMARK   19  A    between atoms: C_37  and  N_38
REMARK   20  A    between atoms: C_44  and  O_45
REMARK   21  A    between atoms: C_47  and  O_48
REMARK   22  A    between atoms: C_52  and  C_53
REMARK   23  A    between atoms: C_53  and  C_54
REMARK   24  A    between atoms: C_57  and  O_58
REMARK   25  A    between atoms: C_60  and  O_61
REMARK   26  A    between atoms: C_65  and  O_66
REMARK                            x       y       z     vdW  Elec       q    Type
REMARK                         _______ _______ _______ _____ _____    ______ ____
ROOT
ATOM      1  C   UNL     1      -2.221   6.926  -0.806  0.00  0.00    +0.008 C 
ENDROOT
BRANCH   1   2
ATOM      2  C   UNL     1      -1.559   6.054  -1.867  0.00  0.00    +0.048 C 
BRANCH   2   3
ATOM      3  C   UNL     1      -1.346   6.986  -3.057  0.00  0.00    +0.208 C 
BRANCH   3   4
ATOM      4  O   UNL     1      -2.313   6.576  -4.024  0.00  0.00    -0.448 OA
BRANCH   4   5
ATOM      5  C   UNL     1      -1.901   6.125  -5.260  0.00  0.00    +0.323 C 
ATOM      6  O   UNL     1      -2.699   6.354  -6.221  0.00  0.00    -0.250 OA
BRANCH   5   7
ATOM      7  C   UNL     1      -0.576   5.646  -5.619  0.00  0.00    +0.170 C 
BRANCH   7   8
ATOM      8  C   UNL     1      -0.111   5.781  -6.993  0.00  0.00    +0.121 C 
BRANCH   8   9
ATOM      9  N   UNL     1       1.281   5.879  -7.261  0.00  0.00    +0.301 N 
ATOM     10  C   UNL     1       1.361   6.506  -8.704  0.00  0.00    +0.086 C 
ATOM     11  C   UNL     1       2.879   6.055  -8.995  0.00  0.00    +0.027 A 
ATOM     12  C   UNL     1       3.779   6.004  -7.992  0.00  0.00    -0.012 A 
ATOM     13  C   UNL     1       5.098   5.805  -8.402  0.00  0.00    +0.036 A 
ATOM     14  C   UNL     1       5.442   5.668  -9.741  0.00  0.00    +0.172 A 
ATOM     15  C   UNL     1       4.478   5.893 -10.717  0.00  0.00    +0.172 A 
ATOM     16  C   UNL     1       3.407   5.143  -6.811  0.00  0.00    +0.087 C 
ATOM     17  C   UNL     1       3.301   6.472 -10.252  0.00  0.00    +0.041 A 
ATOM     18  C   UNL     1       2.023   4.674  -7.263  0.00  0.00    +0.114 C 
ATOM     19  C   UNL     1       1.801   6.904  -6.365  0.00  0.00    +0.171 C 
BRANCH  14  20
ATOM     20  O   UNL     1       6.630   5.052 -10.152  0.00  0.00    -0.468 OA
ATOM     21  C   UNL     1       7.844   5.481  -9.539  0.00  0.00    +0.253 C 
ENDBRANCH  14  20
BRANCH  15  22
ATOM     22  O   UNL     1       4.725   5.669 -12.060  0.00  0.00    -0.468 OA
ATOM     23  C   UNL     1       5.431   6.613 -12.861  0.00  0.00    +0.253 C 
ENDBRANCH  15  22
BRANCH  10  24
ATOM     24  C   UNL     1       0.763   5.129  -9.383  0.00  0.00    +0.086 C 
BRANCH  24  25
ATOM     25  C   UNL     1       0.300   5.582 -10.709  0.00  0.00    -0.013 A 
ATOM     26  C   UNL     1       0.287   4.806 -11.843  0.00  0.00    +0.036 A 
ATOM     27  C   UNL     1       0.593   5.338 -13.085  0.00  0.00    +0.172 A 
ATOM     28  C   UNL     1       0.335   6.692 -13.260  0.00  0.00    +0.172 A 
ATOM     29  C   UNL     1      -0.040   7.460 -12.173  0.00  0.00    +0.040 A 
ATOM     30  C   UNL     1       0.028   6.933 -10.889  0.00  0.00    -0.001 A 
BRANCH  28  31
ATOM     31  O   UNL     1       0.598   7.310 -14.486  0.00  0.00    -0.468 OA
ATOM     32  C   UNL     1       0.776   8.717 -14.596  0.00  0.00    +0.253 C 
ENDBRANCH  28  31
BRANCH  27  33
ATOM     33  O   UNL     1       1.406   4.673 -14.008  0.00  0.00    -0.468 OA
ATOM     34  C   UNL     1       1.075   3.338 -14.386  0.00  0.00    +0.253 C 
ENDBRANCH  27  33
ENDBRANCH  24  25
ENDBRANCH  10  24
ENDBRANCH   8   9
ENDBRANCH   7   8
ENDBRANCH   5   7
ENDBRANCH   4   5
ENDBRANCH   3   4
ENDBRANCH   2   3
ENDBRANCH   1   2
BRANCH   1  35
ATOM     35  C   UNL     1      -1.062   7.516  -0.017  0.00  0.00    +0.048 C 
BRANCH  35  36
ATOM     36  C   UNL     1      -1.046   6.790   1.320  0.00  0.00    +0.208 C 
BRANCH  36  37
ATOM     37  O   UNL     1       0.257   6.913   1.875  0.00  0.00    -0.448 OA
BRANCH  37  38
ATOM     38  C   UNL     1       0.430   7.829   2.904  0.00  0.00    +0.323 C 
ATOM     39  O   UNL     1      -0.490   7.959   3.728  0.00  0.00    -0.250 OA
BRANCH  38  40
ATOM     40  C   UNL     1       1.807   8.253   3.187  0.00  0.00    +0.170 C 
BRANCH  40  41
ATOM     41  C   UNL     1       2.416   9.203   2.466  0.00  0.00    +0.121 C 
BRANCH  41  43
ATOM     42  C   UNL     1       3.293   9.734   0.310  0.00  0.00    +0.086 C 
ATOM     43  N   UNL     1       2.390  10.136   1.547  0.00  0.00    +0.301 N 
ATOM     44  C   UNL     1       1.074  10.276   0.920  0.00  0.00    +0.171 C 
ATOM     45  C   UNL     1       2.778  11.470   1.916  0.00  0.00    +0.114 C 
ATOM     46  C   UNL     1       3.867  12.064   1.042  0.00  0.00    +0.087 C 
ATOM     47  C   UNL     1       5.020  11.125   1.262  0.00  0.00    -0.012 A 
ATOM     48  C   UNL     1       5.959  11.382   2.254  0.00  0.00    +0.036 A 
ATOM     49  C   UNL     1       6.587  10.361   2.957  0.00  0.00    +0.172 A 
ATOM     50  C   UNL     1       6.097   9.068   2.833  0.00  0.00    +0.172 A 
ATOM     51  C   UNL     1       4.972   8.875   2.075  0.00  0.00    +0.041 A 
ATOM     52  C   UNL     1       4.653   9.784   1.165  0.00  0.00    +0.027 A 
BRANCH  50  53
ATOM     53  O   UNL     1       6.826   7.979   3.321  0.00  0.00    -0.468 OA
ATOM     54  C   UNL     1       6.147   6.753   3.516  0.00  0.00    +0.253 C 
ENDBRANCH  50  53
BRANCH  49  55
ATOM     55  O   UNL     1       7.714  10.589   3.748  0.00  0.00    -0.468 OA
ATOM     56  C   UNL     1       9.004  10.339   3.198  0.00  0.00    +0.253 C 
ENDBRANCH  49  55
BRANCH  42  57
ATOM     57  C   UNL     1       3.027   8.122   0.509  0.00  0.00    +0.086 C 
BRANCH  57  61
ATOM     58  C   UNL     1       3.155   5.903  -3.028  0.00  0.00    +0.172 A 
ATOM     59  C   UNL     1       3.840   7.113  -2.997  0.00  0.00    +0.172 A 
ATOM     60  C   UNL     1       3.764   7.944  -1.884  0.00  0.00    +0.036 A 
ATOM     61  C   UNL     1       3.034   7.505  -0.802  0.00  0.00    -0.013 A 
ATOM     62  C   UNL     1       2.006   6.611  -1.083  0.00  0.00    -0.001 A 
ATOM     63  C   UNL     1       2.137   5.680  -2.109  0.00  0.00    +0.040 A 
BRANCH  58  65
ATOM     64  C   UNL     1       4.475   3.936  -2.824  0.00  0.00    +0.253 C 
ATOM     65  O   UNL     1       3.808   4.851  -3.682  0.00  0.00    -0.468 OA
ENDBRANCH  58  65
BRANCH  59  66
ATOM     66  O   UNL     1       4.261   7.592  -4.242  0.00  0.00    -0.468 OA
ATOM     67  C   UNL     1       5.576   7.994  -4.517  0.00  0.00    +0.253 C 
ENDBRANCH  59  66
ENDBRANCH  57  61
ENDBRANCH  42  57
ENDBRANCH  41  43
ENDBRANCH  40  41
ENDBRANCH  38  40
ENDBRANCH  37  38
ENDBRANCH  36  37
ENDBRANCH  35  36
ENDBRANCH   1  35
TORSDOF 26
ENDMDL
MODEL 5
REMARK VINA RESULT:      -6.6      3.967     13.693
REMARK  Name = 
REMARK  26 active torsions:
REMARK  status: ('A' for Active; 'I' for Inactive)
REMARK    1  A    between atoms: O_2  and  C_3
REMARK    2  A    between atoms: C_6  and  C_7
REMARK    3  A    between atoms: C_7  and  C_8
REMARK    4  A    between atoms: C_11  and  O_12
REMARK    5  A    between atoms: C_14  and  O_15
REMARK    6  A    between atoms: N_21  and  C_23
REMARK    7  A    between atoms: C_23  and  C_24
REMARK    8  A    between atoms: C_24  and  C_25
REMARK    9  A    between atoms: C_25  and  O_27
REMARK   10  A    between atoms: O_27  and  C_28
REMARK   11  A    between atoms: C_28  and  C_29
REMARK   12  A    between atoms: C_29  and  C_30
REMARK   13  A    between atoms: C_30  and  C_31
REMARK   14  A    between atoms: C_31  and  C_32
REMARK   15  A    between atoms: C_32  and  O_33
REMARK   16  A    between atoms: O_33  and  C_34
REMARK   17  A    between atoms: C_34  and  C_36
REMARK   18  A    between atoms: C_36  and  C_37
REMARK   19  A    between atoms: C_37  and  N_38
REMARK   20  A    between atoms: C_44  and  O_45
REMARK   21  A    between atoms: C_47  and  O_48
REMARK   22  A    between atoms: C_52  and  C_53
REMARK   23  A    between atoms: C_53  and  C_54
REMARK   24  A    between atoms: C_57  and  O_58
REMARK   25  A    between atoms: C_60  and  O_61
REMARK   26  A    between atoms: C_65  and  O_66
REMARK                            x       y       z     vdW  Elec       q    Type
REMARK                         _______ _______ _______ _____ _____    ______ ____
ROOT
ATOM      1  C   UNL     1       1.306   5.573 -11.181  0.00  0.00    +0.008 C 
ENDROOT
BRANCH   1   2
ATOM      2  C   UNL     1       1.717   5.297  -9.738  0.00  0.00    +0.048 C 
BRANCH   2   3
ATOM      3  C   UNL     1       0.525   5.752  -8.902  0.00  0.00    +0.208 C 
BRANCH   3   4
ATOM      4  O   UNL     1       1.051   5.956  -7.590  0.00  0.00    -0.448 OA
BRANCH   4   5
ATOM      5  C   UNL     1       2.064   6.869  -7.390  0.00  0.00    +0.323 C 
ATOM      6  O   UNL     1       1.776   8.077  -7.662  0.00  0.00    -0.250 OA
BRANCH   5   7
ATOM      7  C   UNL     1       3.317   6.646  -6.686  0.00  0.00    +0.170 C 
BRANCH   7   8
ATOM      8  C   UNL     1       3.368   5.674  -5.601  0.00  0.00    +0.121 C 
BRANCH   8   9
ATOM      9  N   UNL     1       3.972   6.027  -4.365  0.00  0.00    +0.301 N 
ATOM     10  C   UNL     1       2.984   5.468  -3.272  0.00  0.00    +0.086 C 
ATOM     11  C   UNL     1       3.539   6.381  -2.068  0.00  0.00    +0.027 A 
ATOM     12  C   UNL     1       4.845   6.711  -2.007  0.00  0.00    -0.012 A 
ATOM     13  C   UNL     1       5.238   7.323  -0.816  0.00  0.00    +0.036 A 
ATOM     14  C   UNL     1       4.342   7.572   0.216  0.00  0.00    +0.172 A 
ATOM     15  C   UNL     1       3.053   7.056   0.136  0.00  0.00    +0.172 A 
ATOM     16  C   UNL     1       5.412   7.400  -3.223  0.00  0.00    +0.087 C 
ATOM     17  C   UNL     1       2.858   6.130  -0.882  0.00  0.00    +0.041 A 
ATOM     18  C   UNL     1       4.169   7.405  -4.116  0.00  0.00    +0.114 C 
ATOM     19  C   UNL     1       5.177   5.215  -4.249  0.00  0.00    +0.171 C 
BRANCH  14  20
ATOM     20  O   UNL     1       4.581   8.537   1.201  0.00  0.00    -0.468 OA
ATOM     21  C   UNL     1       5.437   8.180   2.284  0.00  0.00    +0.253 C 
ENDBRANCH  14  20
BRANCH  15  22
ATOM     22  O   UNL     1       2.082   7.357   1.076  0.00  0.00    -0.468 OA
ATOM     23  C   UNL     1       0.776   7.781   0.694  0.00  0.00    +0.253 C 
ENDBRANCH  15  22
BRANCH  10  24
ATOM     24  C   UNL     1       1.841   6.586  -3.668  0.00  0.00    +0.086 C 
BRANCH  24  25
ATOM     25  C   UNL     1       0.574   5.858  -3.465  0.00  0.00    -0.013 A 
ATOM     26  C   UNL     1      -0.231   5.388  -4.474  0.00  0.00    +0.036 A 
ATOM     27  C   UNL     1      -1.613   5.422  -4.370  0.00  0.00    +0.172 A 
ATOM     28  C   UNL     1      -2.138   5.371  -3.084  0.00  0.00    +0.172 A 
ATOM     29  C   UNL     1      -1.289   5.460  -1.997  0.00  0.00    +0.040 A 
ATOM     30  C   UNL     1       0.048   5.792  -2.180  0.00  0.00    -0.001 A 
BRANCH  28  31
ATOM     31  O   UNL     1      -3.522   5.384  -2.884  0.00  0.00    -0.468 OA
ATOM     32  C   UNL     1      -4.242   6.595  -2.683  0.00  0.00    +0.253 C 
ENDBRANCH  28  31
BRANCH  27  33
ATOM     33  O   UNL     1      -2.437   5.810  -5.430  0.00  0.00    -0.468 OA
ATOM     34  C   UNL     1      -2.785   7.187  -5.568  0.00  0.00    +0.253 C 
ENDBRANCH  27  33
ENDBRANCH  24  25
ENDBRANCH  10  24
ENDBRANCH   8   9
ENDBRANCH   7   8
ENDBRANCH   5   7
ENDBRANCH   4   5
ENDBRANCH   3   4
ENDBRANCH   2   3
ENDBRANCH   1   2
BRANCH   1  35
ATOM     35  C   UNL     1       0.387   6.781 -11.093  0.00  0.00    +0.048 C 
BRANCH  35  36
ATOM     36  C   UNL     1       0.425   7.444 -12.462  0.00  0.00    +0.208 C 
BRANCH  36  37
ATOM     37  O   UNL     1       0.876   6.482 -13.407  0.00  0.00    -0.448 OA
BRANCH  37  38
ATOM     38  C   UNL     1       0.948   6.876 -14.736  0.00  0.00    +0.323 C 
ATOM     39  O   UNL     1       1.325   6.038 -15.572  0.00  0.00    -0.250 OA
BRANCH  38  40
ATOM     40  C   UNL     1       0.193   8.078 -15.112  0.00  0.00    +0.170 C 
BRANCH  40  41
ATOM     41  C   UNL     1       0.556   8.845 -16.148  0.00  0.00    +0.121 C 
BRANCH  41  43
ATOM     42  C   UNL     1       1.586  10.255 -17.776  0.00  0.00    +0.086 C 
ATOM     43  N   UNL     1       0.526   9.132 -17.425  0.00  0.00    +0.301 N 
ATOM     44  C   UNL     1       0.982   8.022 -18.265  0.00  0.00    +0.171 C 
ATOM     45  C   UNL     1      -0.721   9.557 -18.001  0.00  0.00    +0.114 C 
ATOM     46  C   UNL     1      -0.642  10.876 -18.748  0.00  0.00    +0.087 C 
ATOM     47  C   UNL     1      -0.229  11.842 -17.672  0.00  0.00    -0.012 A 
ATOM     48  C   UNL     1      -1.186  12.542 -16.948  0.00  0.00    +0.036 A 
ATOM     49  C   UNL     1      -1.000  12.879 -15.613  0.00  0.00    +0.172 A 
ATOM     50  C   UNL     1       0.057  12.302 -14.922  0.00  0.00    +0.172 A 
ATOM     51  C   UNL     1       0.824  11.374 -15.576  0.00  0.00    +0.041 A 
ATOM     52  C   UNL     1       0.832  11.373 -16.901  0.00  0.00    +0.027 A 
BRANCH  50  53
ATOM     53  O   UNL     1       0.432  12.781 -13.662  0.00  0.00    -0.468 OA
ATOM     54  C   UNL     1       0.395  14.178 -13.440  0.00  0.00    +0.253 C 
ENDBRANCH  50  53
BRANCH  49  55
ATOM     55  O   UNL     1      -1.816  13.805 -14.961  0.00  0.00    -0.468 OA
ATOM     56  C   UNL     1      -3.231  13.664 -15.058  0.00  0.00    +0.253 C 
ENDBRANCH  49  55
BRANCH  42  57
ATOM     57  C   UNL     1       2.627   9.786 -16.590  0.00  0.00    +0.086 C 
BRANCH  57  61
ATOM     58  C   UNL     1       6.510   8.987 -17.909  0.00  0.00    +0.172 A 
ATOM     59  C   UNL     1       6.059  10.300 -17.981  0.00  0.00    +0.172 A 
ATOM     60  C   UNL     1       4.747  10.621 -17.645  0.00  0.00    +0.036 A 
ATOM     61  C   UNL     1       3.934   9.607 -17.192  0.00  0.00    -0.013 A 
ATOM     62  C   UNL     1       4.254   8.327 -17.632  0.00  0.00    -0.001 A 
ATOM     63  C   UNL     1       5.579   7.957 -17.834  0.00  0.00    +0.040 A 
BRANCH  58  65
ATOM     64  C   UNL     1       8.331   7.493 -17.587  0.00  0.00    +0.253 C 
ATOM     65  O   UNL     1       7.836   8.822 -17.492  0.00  0.00    -0.468 OA
ENDBRANCH  58  65
BRANCH  59  66
ATOM     66  O   UNL     1       6.850  11.162 -18.749  0.00  0.00    -0.468 OA
ATOM     67  C   UNL     1       6.924  12.546 -18.538  0.00  0.00    +0.253 C 
ENDBRANCH  59  66
ENDBRANCH  57  61
ENDBRANCH  42  57
ENDBRANCH  41  43
ENDBRANCH  40  41
ENDBRANCH  38  40
ENDBRANCH  37  38
ENDBRANCH  36  37
ENDBRANCH  35  36
ENDBRANCH   1  35
TORSDOF 26
ENDMDL
MODEL 6
REMARK VINA RESULT:      -6.6      3.901     14.021
REMARK  Name = 
REMARK  26 active torsions:
REMARK  status: ('A' for Active; 'I' for Inactive)
REMARK    1  A    between atoms: O_2  and  C_3
REMARK    2  A    between atoms: C_6  and  C_7
REMARK    3  A    between atoms: C_7  and  C_8
REMARK    4  A    between atoms: C_11  and  O_12
REMARK    5  A    between atoms: C_14  and  O_15
REMARK    6  A    between atoms: N_21  and  C_23
REMARK    7  A    between atoms: C_23  and  C_24
REMARK    8  A    between atoms: C_24  and  C_25
REMARK    9  A    between atoms: C_25  and  O_27
REMARK   10  A    between atoms: O_27  and  C_28
REMARK   11  A    between atoms: C_28  and  C_29
REMARK   12  A    between atoms: C_29  and  C_30
REMARK   13  A    between atoms: C_30  and  C_31
REMARK   14  A    between atoms: C_31  and  C_32
REMARK   15  A    between atoms: C_32  and  O_33
REMARK   16  A    between atoms: O_33  and  C_34
REMARK   17  A    between atoms: C_34  and  C_36
REMARK   18  A    between atoms: C_36  and  C_37
REMARK   19  A    between atoms: C_37  and  N_38
REMARK   20  A    between atoms: C_44  and  O_45
REMARK   21  A    between atoms: C_47  and  O_48
REMARK   22  A    between atoms: C_52  and  C_53
REMARK   23  A    between atoms: C_53  and  C_54
REMARK   24  A    between atoms: C_57  and  O_58
REMARK   25  A    between atoms: C_60  and  O_61
REMARK   26  A    between atoms: C_65  and  O_66
REMARK                            x       y       z     vdW  Elec       q    Type
REMARK                         _______ _______ _______ _____ _____    ______ ____
ROOT
ATOM      1  C   UNL     1       3.117   6.055 -11.621  0.00  0.00    +0.008 C 
ENDROOT
BRANCH   1   2
ATOM      2  C   UNL     1       4.159   5.336 -12.472  0.00  0.00    +0.048 C 
BRANCH   2   3
ATOM      3  C   UNL     1       5.454   6.105 -12.231  0.00  0.00    +0.208 C 
BRANCH   3   4
ATOM      4  O   UNL     1       5.352   6.588 -10.890  0.00  0.00    -0.448 OA
BRANCH   4   5
ATOM      5  C   UNL     1       6.177   6.079  -9.911  0.00  0.00    +0.323 C 
ATOM      6  O   UNL     1       7.289   6.676  -9.765  0.00  0.00    -0.250 OA
BRANCH   5   7
ATOM      7  C   UNL     1       5.823   5.112  -8.885  0.00  0.00    +0.170 C 
BRANCH   7   8
ATOM      8  C   UNL     1       5.149   5.563  -7.674  0.00  0.00    +0.121 C 
BRANCH   8   9
ATOM      9  N   UNL     1       3.734   5.673  -7.653  0.00  0.00    +0.301 N 
ATOM     10  C   UNL     1       3.415   6.393  -6.288  0.00  0.00    +0.086 C 
ATOM     11  C   UNL     1       1.866   5.957  -6.230  0.00  0.00    +0.027 A 
ATOM     12  C   UNL     1       1.149   5.836  -7.365  0.00  0.00    -0.012 A 
ATOM     13  C   UNL     1      -0.222   5.659  -7.173  0.00  0.00    +0.036 A 
ATOM     14  C   UNL     1      -0.789   5.609  -5.905  0.00  0.00    +0.172 A 
ATOM     15  C   UNL     1      -0.002   5.902  -4.796  0.00  0.00    +0.172 A 
ATOM     16  C   UNL     1       1.709   4.900  -8.407  0.00  0.00    +0.087 C 
ATOM     17  C   UNL     1       1.240   6.453  -5.092  0.00  0.00    +0.041 A 
ATOM     18  C   UNL     1       2.994   4.468  -7.697  0.00  0.00    +0.114 C 
ATOM     19  C   UNL     1       3.380   6.635  -8.689  0.00  0.00    +0.171 C 
BRANCH  14  20
ATOM     20  O   UNL     1      -2.034   5.017  -5.662  0.00  0.00    -0.468 OA
ATOM     21  C   UNL     1      -3.195   5.827  -5.823  0.00  0.00    +0.253 C 
ENDBRANCH  14  20
BRANCH  15  22
ATOM     22  O   UNL     1      -0.475   5.766  -3.503  0.00  0.00    -0.468 OA
ATOM     23  C   UNL     1      -1.412   6.684  -2.946  0.00  0.00    +0.253 C 
ENDBRANCH  15  22
BRANCH  10  24
ATOM     24  C   UNL     1       3.879   5.066  -5.428  0.00  0.00    +0.086 C 
BRANCH  24  25
ATOM     25  C   UNL     1       4.365   5.642  -4.159  0.00  0.00    -0.013 A 
ATOM     26  C   UNL     1       4.352   4.993  -2.948  0.00  0.00    +0.036 A 
ATOM     27  C   UNL     1       4.072   5.668  -1.771  0.00  0.00    +0.172 A 
ATOM     28  C   UNL     1       4.384   7.022  -1.744  0.00  0.00    +0.172 A 
ATOM     29  C   UNL     1       4.785   7.652  -2.908  0.00  0.00    +0.040 A 
ATOM     30  C   UNL     1       4.691   6.992  -4.127  0.00  0.00    -0.001 A 
BRANCH  28  31
ATOM     31  O   UNL     1       4.151   7.780  -0.592  0.00  0.00    -0.468 OA
ATOM     32  C   UNL     1       3.650   9.110  -0.655  0.00  0.00    +0.253 C 
ENDBRANCH  28  31
BRANCH  27  33
ATOM     33  O   UNL     1       3.237   5.140  -0.782  0.00  0.00    -0.468 OA
ATOM     34  C   UNL     1       1.826   5.145  -0.992  0.00  0.00    +0.253 C 
ENDBRANCH  27  33
ENDBRANCH  24  25
ENDBRANCH  10  24
ENDBRANCH   8   9
ENDBRANCH   7   8
ENDBRANCH   5   7
ENDBRANCH   4   5
ENDBRANCH   3   4
ENDBRANCH   2   3
ENDBRANCH   1   2
BRANCH   1  35
ATOM     35  C   UNL     1       1.792   5.428 -12.026  0.00  0.00    +0.048 C 
BRANCH  35  36
ATOM     36  C   UNL     1       1.939   5.033 -13.488  0.00  0.00    +0.208 C 
BRANCH  36  37
ATOM     37  O   UNL     1       1.046   5.832 -14.254  0.00  0.00    -0.448 OA
BRANCH  37  38
ATOM     38  C   UNL     1       1.555   6.987 -14.830  0.00  0.00    +0.323 C 
ATOM     39  O   UNL     1       2.676   6.927 -15.364  0.00  0.00    -0.250 OA
BRANCH  38  40
ATOM     40  C   UNL     1       0.593   8.052 -15.140  0.00  0.00    +0.170 C 
BRANCH  40  41
ATOM     41  C   UNL     1       0.743   8.853 -16.202  0.00  0.00    +0.121 C 
BRANCH  41  43
ATOM     42  C   UNL     1       1.574  10.254 -17.948  0.00  0.00    +0.086 C 
ATOM     43  N   UNL     1       0.596   9.100 -17.480  0.00  0.00    +0.301 N 
ATOM     44  C   UNL     1       1.030   7.984 -18.324  0.00  0.00    +0.171 C 
ATOM     45  C   UNL     1      -0.711   9.455 -17.962  0.00  0.00    +0.114 C 
ATOM     46  C   UNL     1      -0.752  10.752 -18.748  0.00  0.00    +0.087 C 
ATOM     47  C   UNL     1      -0.294  11.767 -17.737  0.00  0.00    -0.012 A 
ATOM     48  C   UNL     1      -1.218  12.449 -16.955  0.00  0.00    +0.036 A 
ATOM     49  C   UNL     1      -0.938  12.834 -15.650  0.00  0.00    +0.172 A 
ATOM     50  C   UNL     1       0.196  12.323 -15.034  0.00  0.00    +0.172 A 
ATOM     51  C   UNL     1       0.947  11.407 -15.724  0.00  0.00    +0.041 A 
ATOM     52  C   UNL     1       0.846  11.366 -17.044  0.00  0.00    +0.027 A 
BRANCH  50  53
ATOM     53  O   UNL     1       0.652  12.855 -13.823  0.00  0.00    -0.468 OA
ATOM     54  C   UNL     1       0.414  14.226 -13.564  0.00  0.00    +0.253 C 
ENDBRANCH  50  53
BRANCH  49  55
ATOM     55  O   UNL     1      -1.737  13.745 -14.957  0.00  0.00    -0.468 OA
ATOM     56  C   UNL     1      -3.091  13.923 -15.366  0.00  0.00    +0.253 C 
ENDBRANCH  49  55
BRANCH  42  57
ATOM     57  C   UNL     1       2.728   9.865 -16.841  0.00  0.00    +0.086 C 
BRANCH  57  61
ATOM     58  C   UNL     1       6.457   9.082 -18.553  0.00  0.00    +0.172 A 
ATOM     59  C   UNL     1       6.162  10.398 -18.217  0.00  0.00    +0.172 A 
ATOM     60  C   UNL     1       4.906  10.743 -17.729  0.00  0.00    +0.036 A 
ATOM     61  C   UNL     1       3.990   9.733 -17.542  0.00  0.00    -0.013 A 
ATOM     62  C   UNL     1       4.146   8.611 -18.350  0.00  0.00    -0.001 A 
ATOM     63  C   UNL     1       5.414   8.180 -18.725  0.00  0.00    +0.040 A 
BRANCH  58  65
ATOM     64  C   UNL     1       7.867   7.370 -17.697  0.00  0.00    +0.253 C 
ATOM     65  O   UNL     1       7.764   8.663 -18.278  0.00  0.00    -0.468 OA
ENDBRANCH  58  65
BRANCH  59  66
ATOM     66  O   UNL     1       7.031  11.359 -18.749  0.00  0.00    -0.468 OA
ATOM     67  C   UNL     1       6.765  12.736 -18.744  0.00  0.00    +0.253 C 
ENDBRANCH  59  66
ENDBRANCH  57  61
ENDBRANCH  42  57
ENDBRANCH  41  43
ENDBRANCH  40  41
ENDBRANCH  38  40
ENDBRANCH  37  38
ENDBRANCH  36  37
ENDBRANCH  35  36
ENDBRANCH   1  35
TORSDOF 26
ENDMDL
