MODEL 1
REMARK VINA RESULT:     -10.3      0.000      0.000
REMARK  Name = 
REMARK  8 active torsions:
REMARK  status: ('A' for Active; 'I' for Inactive)
REMARK    1  A    between atoms: O_2  and  C_3
REMARK    2  A    between atoms: C_9  and  O_10
REMARK    3  A    between atoms: O_10  and  C_11
REMARK    4  A    between atoms: C_14  and  N_15
REMARK    5  A    between atoms: C_16  and  C_18
REMARK    6  A    between atoms: C_18  and  C_19
REMARK    7  A    between atoms: N_21  and  C_22
REMARK    8  A    between atoms: C_35  and  O_36
REMARK                            x       y       z     vdW  Elec       q    Type
REMARK                         _______ _______ _______ _____ _____    ______ ____
ROOT
ATOM      1  C   UNL     1       1.257   5.661  -9.125  0.00  0.00    +0.145 A 
ATOM      2  C   UNL     1      -0.073   5.286  -8.988  0.00  0.00    +0.039 A 
ATOM      3  C   UNL     1      -0.696   5.442  -7.756  0.00  0.00    +0.020 A 
ATOM      4  C   UNL     1       0.001   5.886  -6.638  0.00  0.00    +0.074 A 
ATOM      5  C   UNL     1       1.160   6.600  -6.914  0.00  0.00    +0.020 A 
ATOM      6  C   UNL     1       1.713   6.581  -8.188  0.00  0.00    +0.039 A 
ENDROOT
BRANCH   4   7
ATOM      7  N   UNL     1      -0.240   5.315  -5.347  0.00  0.00    -0.179 NA
ATOM      8  C   UNL     1      -1.405   5.718  -4.618  0.00  0.00    +0.253 C 
ATOM      9  O   UNL     1      -2.474   5.745  -5.274  0.00  0.00    -0.273 OA
BRANCH   8  10
ATOM     10  C   UNL     1      -1.362   5.750  -3.125  0.00  0.00    +0.141 C 
ATOM     11  C   UNL     1      -2.596   5.473  -2.347  0.00  0.00    +0.018 C 
ATOM     12  C   UNL     1      -2.206   6.888  -2.483  0.00  0.00    +0.018 C 
BRANCH  10  13
ATOM     13  C   UNL     1      -0.024   5.620  -2.485  0.00  0.00    +0.253 C 
ATOM     14  N   UNL     1       1.045   6.518  -2.717  0.00  0.00    -0.179 NA
ATOM     15  O   UNL     1       0.232   4.594  -1.787  0.00  0.00    -0.273 OA
BRANCH  14  16
ATOM     16  C   UNL     1       2.409   6.087  -2.786  0.00  0.00    +0.074 A 
ATOM     17  C   UNL     1       2.887   5.477  -3.938  0.00  0.00    +0.019 A 
ATOM     18  C   UNL     1       4.137   5.783  -4.460  0.00  0.00    +0.031 A 
ATOM     19  C   UNL     1       5.006   6.605  -3.754  0.00  0.00    +0.140 A 
ATOM     20  F   UNL     1       5.833   7.424  -4.439  0.00  0.00    -0.204 F 
ATOM     21  C   UNL     1       4.695   6.786  -2.413  0.00  0.00    +0.031 A 
ATOM     22  C   UNL     1       3.380   6.671  -1.980  0.00  0.00    +0.019 A 
ENDBRANCH  14  16
ENDBRANCH  10  13
ENDBRANCH   8  10
ENDBRANCH   4   7
BRANCH   1  23
ATOM     23  O   UNL     1       2.135   4.986  -9.976  0.00  0.00    -0.453 OA
BRANCH  23  32
ATOM     24  C   UNL     1       6.307   5.286 -12.279  0.00  0.00    +0.174 A 
ATOM     25  C   UNL     1       6.017   5.974 -11.109  0.00  0.00    +0.173 A 
ATOM     26  C   UNL     1       4.714   5.886 -10.650  0.00  0.00    +0.045 A 
ATOM     27  C   UNL     1       3.730   5.791 -11.625  0.00  0.00    +0.055 A 
ATOM     28  C   UNL     1       4.084   5.666 -12.963  0.00  0.00    +0.087 A 
ATOM     29  N   UNL     1       3.102   5.517 -13.880  0.00  0.00    -0.244 NA
ATOM     30  C   UNL     1       1.814   5.609 -13.507  0.00  0.00    +0.102 A 
ATOM     31  C   UNL     1       1.441   5.642 -12.174  0.00  0.00    +0.058 A 
ATOM     32  C   UNL     1       2.422   5.613 -11.193  0.00  0.00    +0.148 A 
ATOM     33  C   UNL     1       5.398   5.390 -13.325  0.00  0.00    +0.059 A 
BRANCH  25  34
ATOM     34  O   UNL     1       7.072   6.362 -10.282  0.00  0.00    -0.468 OA
ATOM     35  C   UNL     1       7.407   5.647  -9.113  0.00  0.00    +0.253 C 
ENDBRANCH  25  34
BRANCH  24  37
ATOM     36  C   UNL     1       8.685   5.746 -12.756  0.00  0.00    +0.253 C 
ATOM     37  O   UNL     1       7.602   4.875 -12.546  0.00  0.00    -0.468 OA
ENDBRANCH  24  37
ENDBRANCH  23  32
ENDBRANCH   1  23
TORSDOF 8
ENDMDL
MODEL 2
REMARK VINA RESULT:     -10.2      1.874      3.053
REMARK  Name = 
REMARK  8 active torsions:
REMARK  status: ('A' for Active; 'I' for Inactive)
REMARK    1  A    between atoms: O_2  and  C_3
REMARK    2  A    between atoms: C_9  and  O_10
REMARK    3  A    between atoms: O_10  and  C_11
REMARK    4  A    between atoms: C_14  and  N_15
REMARK    5  A    between atoms: C_16  and  C_18
REMARK    6  A    between atoms: C_18  and  C_19
REMARK    7  A    between atoms: N_21  and  C_22
REMARK    8  A    between atoms: C_35  and  O_36
REMARK                            x       y       z     vdW  Elec       q    Type
REMARK                         _______ _______ _______ _____ _____    ______ ____
ROOT
ATOM      1  C   UNL     1       3.284   5.858  -9.406  0.00  0.00    +0.145 A 
ATOM      2  C   UNL     1       3.219   4.531  -9.000  0.00  0.00    +0.039 A 
ATOM      3  C   UNL     1       2.164   4.121  -8.195  0.00  0.00    +0.020 A 
ATOM      4  C   UNL     1       1.218   5.021  -7.719  0.00  0.00    +0.074 A 
ATOM      5  C   UNL     1       1.103   6.195  -8.453  0.00  0.00    +0.020 A 
ATOM      6  C   UNL     1       2.076   6.544  -9.380  0.00  0.00    +0.039 A 
ENDROOT
BRANCH   4   7
ATOM      7  N   UNL     1       0.711   4.917  -6.384  0.00  0.00    -0.179 NA
ATOM      8  C   UNL     1      -0.632   5.337  -6.118  0.00  0.00    +0.253 C 
ATOM      9  O   UNL     1      -1.498   4.933  -6.931  0.00  0.00    -0.273 OA
BRANCH   8  10
ATOM     10  C   UNL     1      -0.971   5.910  -4.780  0.00  0.00    +0.141 C 
ATOM     11  C   UNL     1      -2.388   5.960  -4.339  0.00  0.00    +0.018 C 
ATOM     12  C   UNL     1      -1.807   7.220  -4.836  0.00  0.00    +0.018 C 
BRANCH  10  13
ATOM     13  C   UNL     1       0.131   5.994  -3.783  0.00  0.00    +0.253 C 
ATOM     14  N   UNL     1       1.246   6.854  -3.921  0.00  0.00    -0.179 NA
ATOM     15  O   UNL     1       0.154   5.178  -2.814  0.00  0.00    -0.273 OA
BRANCH  14  16
ATOM     16  C   UNL     1       2.563   6.477  -3.501  0.00  0.00    +0.074 A 
ATOM     17  C   UNL     1       3.334   5.642  -4.301  0.00  0.00    +0.019 A 
ATOM     18  C   UNL     1       4.687   5.875  -4.505  0.00  0.00    +0.031 A 
ATOM     19  C   UNL     1       5.340   6.871  -3.791  0.00  0.00    +0.140 A 
ATOM     20  F   UNL     1       6.347   7.549  -4.384  0.00  0.00    -0.204 F 
ATOM     21  C   UNL     1       4.666   7.338  -2.671  0.00  0.00    +0.031 A 
ATOM     22  C   UNL     1       3.279   7.269  -2.611  0.00  0.00    +0.019 A 
ENDBRANCH  14  16
ENDBRANCH  10  13
ENDBRANCH   8  10
ENDBRANCH   4   7
BRANCH   1  23
ATOM     23  O   UNL     1       4.500   6.521  -9.586  0.00  0.00    -0.453 OA
BRANCH  23  32
ATOM     24  C   UNL     1       5.933   6.100 -14.120  0.00  0.00    +0.174 A 
ATOM     25  C   UNL     1       4.756   5.554 -13.626  0.00  0.00    +0.173 A 
ATOM     26  C   UNL     1       4.562   5.647 -12.258  0.00  0.00    +0.045 A 
ATOM     27  C   UNL     1       5.705   5.580 -11.475  0.00  0.00    +0.055 A 
ATOM     28  C   UNL     1       6.959   5.549 -12.073  0.00  0.00    +0.087 A 
ATOM     29  N   UNL     1       8.054   5.541 -11.278  0.00  0.00    -0.244 NA
ATOM     30  C   UNL     1       7.917   5.446  -9.945  0.00  0.00    +0.102 A 
ATOM     31  C   UNL     1       6.683   5.566  -9.328  0.00  0.00    +0.058 A 
ATOM     32  C   UNL     1       5.550   5.758 -10.106  0.00  0.00    +0.148 A 
ATOM     33  C   UNL     1       7.106   5.828 -13.426  0.00  0.00    +0.059 A 
BRANCH  25  34
ATOM     34  O   UNL     1       3.705   5.316 -14.512  0.00  0.00    -0.468 OA
ATOM     35  C   UNL     1       2.356   5.387 -14.107  0.00  0.00    +0.253 C 
ENDBRANCH  25  34
BRANCH  24  37
ATOM     36  C   UNL     1       6.250   7.852 -15.831  0.00  0.00    +0.253 C 
ATOM     37  O   UNL     1       6.008   6.525 -15.436  0.00  0.00    -0.468 OA
ENDBRANCH  24  37
ENDBRANCH  23  32
ENDBRANCH   1  23
TORSDOF 8
ENDMDL
MODEL 3
REMARK VINA RESULT:     -10.0      2.841      9.209
REMARK  Name = 
REMARK  8 active torsions:
REMARK  status: ('A' for Active; 'I' for Inactive)
REMARK    1  A    between atoms: O_2  and  C_3
REMARK    2  A    between atoms: C_9  and  O_10
REMARK    3  A    between atoms: O_10  and  C_11
REMARK    4  A    between atoms: C_14  and  N_15
REMARK    5  A    between atoms: C_16  and  C_18
REMARK    6  A    between atoms: C_18  and  C_19
REMARK    7  A    between atoms: N_21  and  C_22
REMARK    8  A    between atoms: C_35  and  O_36
REMARK                            x       y       z     vdW  Elec       q    Type
REMARK                         _______ _______ _______ _____ _____    ______ ____
ROOT
ATOM      1  C   UNL     1      -1.438   5.850  -3.180  0.00  0.00    +0.145 A 
ATOM      2  C   UNL     1      -0.722   6.855  -3.817  0.00  0.00    +0.039 A 
ATOM      3  C   UNL     1      -0.821   6.987  -5.196  0.00  0.00    +0.020 A 
ATOM      4  C   UNL     1      -1.554   6.088  -5.963  0.00  0.00    +0.074 A 
ATOM      5  C   UNL     1      -2.532   5.386  -5.269  0.00  0.00    +0.020 A 
ATOM      6  C   UNL     1      -2.539   5.373  -3.881  0.00  0.00    +0.039 A 
ENDROOT
BRANCH   4   7
ATOM      7  N   UNL     1      -1.074   5.647  -7.237  0.00  0.00    -0.179 NA
ATOM      8  C   UNL     1       0.293   5.234  -7.357  0.00  0.00    +0.253 C 
ATOM      9  O   UNL     1       0.708   4.464  -6.458  0.00  0.00    -0.273 OA
BRANCH   8  10
ATOM     10  C   UNL     1       1.013   5.445  -8.649  0.00  0.00    +0.141 C 
ATOM     11  C   UNL     1       0.455   6.381  -9.658  0.00  0.00    +0.018 C 
ATOM     12  C   UNL     1       0.242   4.943  -9.903  0.00  0.00    +0.018 C 
BRANCH  10  13
ATOM     13  C   UNL     1       2.452   5.065  -8.690  0.00  0.00    +0.253 C 
ATOM     14  N   UNL     1       3.509   6.005  -8.716  0.00  0.00    -0.179 NA
ATOM     15  O   UNL     1       2.767   3.846  -8.831  0.00  0.00    -0.273 OA
BRANCH  14  16
ATOM     16  C   UNL     1       4.709   5.792  -9.469  0.00  0.00    +0.074 A 
ATOM     17  C   UNL     1       4.909   6.473 -10.663  0.00  0.00    +0.019 A 
ATOM     18  C   UNL     1       6.141   7.021 -10.991  0.00  0.00    +0.031 A 
ATOM     19  C   UNL     1       7.251   6.772 -10.194  0.00  0.00    +0.140 A 
ATOM     20  F   UNL     1       8.191   7.733 -10.062  0.00  0.00    -0.204 F 
ATOM     21  C   UNL     1       7.122   5.708  -9.312  0.00  0.00    +0.031 A 
ATOM     22  C   UNL     1       5.866   5.334  -8.849  0.00  0.00    +0.019 A 
ENDBRANCH  14  16
ENDBRANCH  10  13
ENDBRANCH   8  10
ENDBRANCH   4   7
BRANCH   1  23
ATOM     23  O   UNL     1      -0.953   5.197  -2.044  0.00  0.00    -0.453 OA
BRANCH  23  32
ATOM     24  C   UNL     1       2.440   7.943  -0.110  0.00  0.00    +0.174 A 
ATOM     25  C   UNL     1       2.504   6.557  -0.166  0.00  0.00    +0.173 A 
ATOM     26  C   UNL     1       1.372   5.908  -0.630  0.00  0.00    +0.045 A 
ATOM     27  C   UNL     1       0.158   6.505  -0.323  0.00  0.00    +0.055 A 
ATOM     28  C   UNL     1       0.129   7.744   0.305  0.00  0.00    +0.087 A 
ATOM     29  N   UNL     1      -1.071   8.323   0.538  0.00  0.00    -0.244 NA
ATOM     30  C   UNL     1      -2.204   7.652   0.272  0.00  0.00    +0.102 A 
ATOM     31  C   UNL     1      -2.198   6.460  -0.433  0.00  0.00    +0.058 A 
ATOM     32  C   UNL     1      -0.989   5.923  -0.850  0.00  0.00    +0.148 A 
ATOM     33  C   UNL     1       1.284   8.510   0.412  0.00  0.00    +0.059 A 
BRANCH  25  34
ATOM     34  O   UNL     1       3.756   5.943  -0.142  0.00  0.00    -0.468 OA
ATOM     35  C   UNL     1       4.124   4.958  -1.081  0.00  0.00    +0.253 C 
ENDBRANCH  25  34
BRANCH  24  37
ATOM     36  C   UNL     1       3.651  10.045  -0.566  0.00  0.00    +0.253 C 
ATOM     37  O   UNL     1       3.599   8.699  -0.168  0.00  0.00    -0.468 OA
ENDBRANCH  24  37
ENDBRANCH  23  32
ENDBRANCH   1  23
TORSDOF 8
ENDMDL
MODEL 4
REMARK VINA RESULT:      -9.9      2.516      9.294
REMARK  Name = 
REMARK  8 active torsions:
REMARK  status: ('A' for Active; 'I' for Inactive)
REMARK    1  A    between atoms: O_2  and  C_3
REMARK    2  A    between atoms: C_9  and  O_10
REMARK    3  A    between atoms: O_10  and  C_11
REMARK    4  A    between atoms: C_14  and  N_15
REMARK    5  A    between atoms: C_16  and  C_18
REMARK    6  A    between atoms: C_18  and  C_19
REMARK    7  A    between atoms: N_21  and  C_22
REMARK    8  A    between atoms: C_35  and  O_36
REMARK                            x       y       z     vdW  Elec       q    Type
REMARK                         _______ _______ _______ _____ _____    ______ ____
ROOT
ATOM      1  C   UNL     1       3.736   5.525  -5.491  0.00  0.00    +0.145 A 
ATOM      2  C   UNL     1       4.326   5.009  -6.638  0.00  0.00    +0.039 A 
ATOM      3  C   UNL     1       4.153   5.672  -7.846  0.00  0.00    +0.020 A 
ATOM      4  C   UNL     1       3.337   6.793  -7.951  0.00  0.00    +0.074 A 
ATOM      5  C   UNL     1       3.114   7.471  -6.759  0.00  0.00    +0.020 A 
ATOM      6  C   UNL     1       3.429   6.880  -5.543  0.00  0.00    +0.039 A 
ENDROOT
BRANCH   4   7
ATOM      7  N   UNL     1       2.494   6.983  -9.093  0.00  0.00    -0.179 NA
ATOM      8  C   UNL     1       1.600   5.932  -9.477  0.00  0.00    +0.253 C 
ATOM      9  O   UNL     1       0.939   5.414  -8.545  0.00  0.00    -0.273 OA
BRANCH   8  10
ATOM     10  C   UNL     1       1.260   5.748 -10.920  0.00  0.00    +0.141 C 
ATOM     11  C   UNL     1      -0.144   5.915 -11.373  0.00  0.00    +0.018 C 
ATOM     12  C   UNL     1       0.337   4.531 -11.212  0.00  0.00    +0.018 C 
BRANCH  10  13
ATOM     13  C   UNL     1       2.382   5.843 -11.895  0.00  0.00    +0.253 C 
ATOM     14  N   UNL     1       3.704   5.429 -11.609  0.00  0.00    -0.179 NA
ATOM     15  O   UNL     1       2.193   6.432 -13.001  0.00  0.00    -0.273 OA
BRANCH  14  16
ATOM     16  C   UNL     1       4.852   6.127 -12.106  0.00  0.00    +0.074 A 
ATOM     17  C   UNL     1       5.441   7.127 -11.342  0.00  0.00    +0.019 A 
ATOM     18  C   UNL     1       6.819   7.243 -11.231  0.00  0.00    +0.031 A 
ATOM     19  C   UNL     1       7.652   6.445 -12.005  0.00  0.00    +0.140 A 
ATOM     20  F   UNL     1       8.835   6.042 -11.492  0.00  0.00    -0.204 F 
ATOM     21  C   UNL     1       7.043   5.826 -13.088  0.00  0.00    +0.031 A 
ATOM     22  C   UNL     1       5.682   5.544 -13.056  0.00  0.00    +0.019 A 
ENDBRANCH  14  16
ENDBRANCH  10  13
ENDBRANCH   8  10
ENDBRANCH   4   7
BRANCH   1  23
ATOM     23  O   UNL     1       3.259   4.705  -4.466  0.00  0.00    -0.453 OA
BRANCH  23  32
ATOM     24  C   UNL     1      -1.192   5.292  -2.841  0.00  0.00    +0.174 A 
ATOM     25  C   UNL     1      -0.677   5.956  -3.947  0.00  0.00    +0.173 A 
ATOM     26  C   UNL     1       0.673   5.778  -4.197  0.00  0.00    +0.045 A 
ATOM     27  C   UNL     1       1.483   5.620  -3.082  0.00  0.00    +0.055 A 
ATOM     28  C   UNL     1       0.917   5.523  -1.816  0.00  0.00    +0.087 A 
ATOM     29  N   UNL     1       1.732   5.312  -0.758  0.00  0.00    -0.244 NA
ATOM     30  C   UNL     1       3.065   5.316  -0.924  0.00  0.00    +0.102 A 
ATOM     31  C   UNL     1       3.643   5.319  -2.182  0.00  0.00    +0.058 A 
ATOM     32  C   UNL     1       2.829   5.353  -3.305  0.00  0.00    +0.148 A 
ATOM     33  C   UNL     1      -0.452   5.338  -1.666  0.00  0.00    +0.059 A 
BRANCH  25  34
ATOM     34  O   UNL     1      -1.561   6.410  -4.926  0.00  0.00    -0.468 OA
ATOM     35  C   UNL     1      -1.870   5.644  -6.069  0.00  0.00    +0.253 C 
ENDBRANCH  25  34
BRANCH  24  37
ATOM     36  C   UNL     1      -3.572   5.906  -2.619  0.00  0.00    +0.253 C 
ATOM     37  O   UNL     1      -2.538   4.970  -2.783  0.00  0.00    -0.468 OA
ENDBRANCH  24  37
ENDBRANCH  23  32
ENDBRANCH   1  23
TORSDOF 8
ENDMDL
MODEL 5
REMARK VINA RESULT:      -9.9      2.698      5.062
REMARK  Name = 
REMARK  8 active torsions:
REMARK  status: ('A' for Active; 'I' for Inactive)
REMARK    1  A    between atoms: O_2  and  C_3
REMARK    2  A    between atoms: C_9  and  O_10
REMARK    3  A    between atoms: O_10  and  C_11
REMARK    4  A    between atoms: C_14  and  N_15
REMARK    5  A    between atoms: C_16  and  C_18
REMARK    6  A    between atoms: C_18  and  C_19
REMARK    7  A    between atoms: N_21  and  C_22
REMARK    8  A    between atoms: C_35  and  O_36
REMARK                            x       y       z     vdW  Elec       q    Type
REMARK                         _______ _______ _______ _____ _____    ______ ____
ROOT
ATOM      1  C   UNL     1       4.462   5.421  -4.689  0.00  0.00    +0.145 A 
ATOM      2  C   UNL     1       5.044   6.623  -4.304  0.00  0.00    +0.039 A 
ATOM      3  C   UNL     1       4.659   7.205  -3.103  0.00  0.00    +0.020 A 
ATOM      4  C   UNL     1       3.651   6.659  -2.318  0.00  0.00    +0.074 A 
ATOM      5  C   UNL     1       3.405   5.309  -2.533  0.00  0.00    +0.020 A 
ATOM      6  C   UNL     1       3.915   4.670  -3.656  0.00  0.00    +0.039 A 
ENDROOT
BRANCH   4   7
ATOM      7  N   UNL     1       2.700   7.499  -1.654  0.00  0.00    -0.179 NA
ATOM      8  C   UNL     1       2.291   7.166  -0.323  0.00  0.00    +0.253 C 
ATOM      9  O   UNL     1       3.216   6.866   0.470  0.00  0.00    -0.273 OA
BRANCH   8  10
ATOM     10  C   UNL     1       0.907   7.504   0.127  0.00  0.00    +0.141 C 
ATOM     11  C   UNL     1       0.687   8.671   1.018  0.00  0.00    +0.018 C 
ATOM     12  C   UNL     1       0.671   7.342   1.655  0.00  0.00    +0.018 C 
BRANCH  10  13
ATOM     13  C   UNL     1      -0.218   6.946  -0.673  0.00  0.00    +0.253 C 
ATOM     14  N   UNL     1      -0.166   5.692  -1.327  0.00  0.00    -0.179 NA
ATOM     15  O   UNL     1      -1.238   7.664  -0.892  0.00  0.00    -0.273 OA
BRANCH  14  16
ATOM     16  C   UNL     1      -0.782   5.464  -2.600  0.00  0.00    +0.074 A 
ATOM     17  C   UNL     1      -2.158   5.299  -2.687  0.00  0.00    +0.019 A 
ATOM     18  C   UNL     1      -2.901   5.894  -3.698  0.00  0.00    +0.031 A 
ATOM     19  C   UNL     1      -2.261   6.552  -4.740  0.00  0.00    +0.140 A 
ATOM     20  F   UNL     1      -2.854   7.632  -5.293  0.00  0.00    -0.204 F 
ATOM     21  C   UNL     1      -0.908   6.273  -4.877  0.00  0.00    +0.031 A 
ATOM     22  C   UNL     1      -0.162   5.878  -3.774  0.00  0.00    +0.019 A 
ENDBRANCH  14  16
ENDBRANCH  10  13
ENDBRANCH   8  10
ENDBRANCH   4   7
BRANCH   1  23
ATOM     23  O   UNL     1       4.222   5.107  -6.029  0.00  0.00    -0.453 OA
BRANCH  23  32
ATOM     24  C   UNL     1       4.540   5.607 -10.767  0.00  0.00    +0.174 A 
ATOM     25  C   UNL     1       5.619   5.729  -9.901  0.00  0.00    +0.173 A 
ATOM     26  C   UNL     1       5.328   5.697  -8.547  0.00  0.00    +0.045 A 
ATOM     27  C   UNL     1       4.110   6.247  -8.173  0.00  0.00    +0.055 A 
ATOM     28  C   UNL     1       3.212   6.678  -9.142  0.00  0.00    +0.087 A 
ATOM     29  N   UNL     1       2.012   7.157  -8.743  0.00  0.00    -0.244 NA
ATOM     30  C   UNL     1       1.752   7.317  -7.435  0.00  0.00    +0.102 A 
ATOM     31  C   UNL     1       2.593   6.811  -6.457  0.00  0.00    +0.058 A 
ATOM     32  C   UNL     1       3.753   6.150  -6.834  0.00  0.00    +0.148 A 
ATOM     33  C   UNL     1       3.401   6.349 -10.479  0.00  0.00    +0.059 A 
BRANCH  25  34
ATOM     34  O   UNL     1       6.902   5.486 -10.392  0.00  0.00    -0.468 OA
ATOM     35  C   UNL     1       7.778   6.532 -10.746  0.00  0.00    +0.253 C 
ENDBRANCH  25  34
BRANCH  24  37
ATOM     36  C   UNL     1       4.692   5.910 -13.212  0.00  0.00    +0.253 C 
ATOM     37  O   UNL     1       4.726   5.121 -12.050  0.00  0.00    -0.468 OA
ENDBRANCH  24  37
ENDBRANCH  23  32
ENDBRANCH   1  23
TORSDOF 8
ENDMDL
MODEL 6
REMARK VINA RESULT:      -9.9      2.661      9.641
REMARK  Name = 
REMARK  8 active torsions:
REMARK  status: ('A' for Active; 'I' for Inactive)
REMARK    1  A    between atoms: O_2  and  C_3
REMARK    2  A    between atoms: C_9  and  O_10
REMARK    3  A    between atoms: O_10  and  C_11
REMARK    4  A    between atoms: C_14  and  N_15
REMARK    5  A    between atoms: C_16  and  C_18
REMARK    6  A    between atoms: C_18  and  C_19
REMARK    7  A    between atoms: N_21  and  C_22
REMARK    8  A    between atoms: C_35  and  O_36
REMARK                            x       y       z     vdW  Elec       q    Type
REMARK                         _______ _______ _______ _____ _____    ______ ____
ROOT
ATOM      1  C   UNL     1       1.083   5.979  -5.401  0.00  0.00    +0.145 A 
ATOM      2  C   UNL     1       0.947   4.773  -6.078  0.00  0.00    +0.039 A 
ATOM      3  C   UNL     1       1.755   4.521  -7.180  0.00  0.00    +0.020 A 
ATOM      4  C   UNL     1       2.637   5.476  -7.670  0.00  0.00    +0.074 A 
ATOM      5  C   UNL     1       3.010   6.455  -6.757  0.00  0.00    +0.020 A 
ATOM      6  C   UNL     1       2.305   6.619  -5.572  0.00  0.00    +0.039 A 
ENDROOT
BRANCH   4   7
ATOM      7  N   UNL     1       2.817   5.656  -9.079  0.00  0.00    -0.179 NA
ATOM      8  C   UNL     1       1.784   6.302  -9.832  0.00  0.00    +0.253 C 
ATOM      9  O   UNL     1       1.321   7.353  -9.327  0.00  0.00    -0.273 OA
BRANCH   8  10
ATOM     10  C   UNL     1       1.562   5.914 -11.258  0.00  0.00    +0.141 C 
ATOM     11  C   UNL     1       0.205   6.027 -11.849  0.00  0.00    +0.018 C 
ATOM     12  C   UNL     1       0.639   4.677 -11.449  0.00  0.00    +0.018 C 
BRANCH  10  13
ATOM     13  C   UNL     1       2.763   5.854 -12.136  0.00  0.00    +0.253 C 
ATOM     14  N   UNL     1       4.053   5.499 -11.675  0.00  0.00    -0.179 NA
ATOM     15  O   UNL     1       2.673   6.253 -13.335  0.00  0.00    -0.273 OA
BRANCH  14  16
ATOM     16  C   UNL     1       5.245   6.113 -12.180  0.00  0.00    +0.074 A 
ATOM     17  C   UNL     1       5.945   7.020 -11.394  0.00  0.00    +0.019 A 
ATOM     18  C   UNL     1       7.331   7.006 -11.325  0.00  0.00    +0.031 A 
ATOM     19  C   UNL     1       8.063   6.173 -12.161  0.00  0.00    +0.140 A 
ATOM     20  F   UNL     1       9.219   5.642 -11.706  0.00  0.00    -0.204 F 
ATOM     21  C   UNL     1       7.368   5.662 -13.248  0.00  0.00    +0.031 A 
ATOM     22  C   UNL     1       5.989   5.502 -13.182  0.00  0.00    +0.019 A 
ENDBRANCH  14  16
ENDBRANCH  10  13
ENDBRANCH   8  10
ENDBRANCH   4   7
BRANCH   1  23
ATOM     23  O   UNL     1      -0.003   6.621  -4.801  0.00  0.00    -0.453 OA
BRANCH  23  32
ATOM     24  C   UNL     1       0.183   6.432  -0.034  0.00  0.00    +0.174 A 
ATOM     25  C   UNL     1       1.160   5.906  -0.869  0.00  0.00    +0.173 A 
ATOM     26  C   UNL     1       0.881   5.919  -2.225  0.00  0.00    +0.045 A 
ATOM     27  C   UNL     1      -0.451   5.753  -2.576  0.00  0.00    +0.055 A 
ATOM     28  C   UNL     1      -1.430   5.707  -1.591  0.00  0.00    +0.087 A 
ATOM     29  N   UNL     1      -2.724   5.601  -1.971  0.00  0.00    -0.244 NA
ATOM     30  C   UNL     1      -3.032   5.426  -3.267  0.00  0.00    +0.102 A 
ATOM     31  C   UNL     1      -2.084   5.559  -4.267  0.00  0.00    +0.058 A 
ATOM     32  C   UNL     1      -0.771   5.849  -3.925  0.00  0.00    +0.148 A 
ATOM     33  C   UNL     1      -1.135   6.067  -0.282  0.00  0.00    +0.059 A 
BRANCH  25  34
ATOM     34  O   UNL     1       2.458   5.771  -0.377  0.00  0.00    -0.468 OA
ATOM     35  C   UNL     1       3.486   5.173  -1.135  0.00  0.00    +0.253 C 
ENDBRANCH  25  34
BRANCH  24  37
ATOM     36  C   UNL     1       0.771   8.295   1.475  0.00  0.00    +0.253 C 
ATOM     37  O   UNL     1       0.523   6.938   1.209  0.00  0.00    -0.468 OA
ENDBRANCH  24  37
ENDBRANCH  23  32
ENDBRANCH   1  23
TORSDOF 8
ENDMDL
MODEL 7
REMARK VINA RESULT:      -9.9      2.654      9.722
REMARK  Name = 
REMARK  8 active torsions:
REMARK  status: ('A' for Active; 'I' for Inactive)
REMARK    1  A    between atoms: O_2  and  C_3
REMARK    2  A    between atoms: C_9  and  O_10
REMARK    3  A    between atoms: O_10  and  C_11
REMARK    4  A    between atoms: C_14  and  N_15
REMARK    5  A    between atoms: C_16  and  C_18
REMARK    6  A    between atoms: C_18  and  C_19
REMARK    7  A    between atoms: N_21  and  C_22
REMARK    8  A    between atoms: C_35  and  O_36
REMARK                            x       y       z     vdW  Elec       q    Type
REMARK                         _______ _______ _______ _____ _____    ______ ____
ROOT
ATOM      1  C   UNL     1       4.087   5.743  -2.102  0.00  0.00    +0.145 A 
ATOM      2  C   UNL     1       4.503   4.745  -2.974  0.00  0.00    +0.039 A 
ATOM      3  C   UNL     1       4.774   5.072  -4.297  0.00  0.00    +0.020 A 
ATOM      4  C   UNL     1       4.561   6.355  -4.788  0.00  0.00    +0.074 A 
ATOM      5  C   UNL     1       4.538   7.356  -3.826  0.00  0.00    +0.020 A 
ATOM      6  C   UNL     1       4.425   7.037  -2.479  0.00  0.00    +0.039 A 
ENDROOT
BRANCH   4   7
ATOM      7  N   UNL     1       4.019   6.559  -6.098  0.00  0.00    -0.179 NA
ATOM      8  C   UNL     1       3.168   5.554  -6.660  0.00  0.00    +0.253 C 
ATOM      9  O   UNL     1       2.276   5.109  -5.898  0.00  0.00    -0.273 OA
BRANCH   8  10
ATOM     10  C   UNL     1       3.158   5.343  -8.139  0.00  0.00    +0.141 C 
ATOM     11  C   UNL     1       1.886   5.007  -8.827  0.00  0.00    +0.018 C 
ATOM     12  C   UNL     1       2.816   3.891  -8.578  0.00  0.00    +0.018 C 
BRANCH  10  13
ATOM     13  C   UNL     1       4.304   5.902  -8.908  0.00  0.00    +0.253 C 
ATOM     14  N   UNL     1       4.159   6.844  -9.955  0.00  0.00    -0.179 NA
ATOM     15  O   UNL     1       5.466   5.436  -8.715  0.00  0.00    -0.273 OA
BRANCH  14  16
ATOM     16  C   UNL     1       4.986   6.827 -11.124  0.00  0.00    +0.074 A 
ATOM     17  C   UNL     1       6.161   7.568 -11.154  0.00  0.00    +0.019 A 
ATOM     18  C   UNL     1       7.332   7.055 -11.693  0.00  0.00    +0.031 A 
ATOM     19  C   UNL     1       7.321   5.833 -12.354  0.00  0.00    +0.140 A 
ATOM     20  F   UNL     1       8.409   5.037 -12.276  0.00  0.00    -0.204 F 
ATOM     21  C   UNL     1       6.066   5.372 -12.727  0.00  0.00    +0.031 A 
ATOM     22  C   UNL     1       4.939   5.759 -12.012  0.00  0.00    +0.019 A 
ENDBRANCH  14  16
ENDBRANCH  10  13
ENDBRANCH   8  10
ENDBRANCH   4   7
BRANCH   1  23
ATOM     23  O   UNL     1       3.188   5.493  -1.062  0.00  0.00    -0.453 OA
BRANCH  23  32
ATOM     24  C   UNL     1      -1.438   5.523  -2.245  0.00  0.00    +0.174 A 
ATOM     25  C   UNL     1      -0.403   5.659  -3.161  0.00  0.00    +0.173 A 
ATOM     26  C   UNL     1       0.873   5.773  -2.635  0.00  0.00    +0.045 A 
ATOM     27  C   UNL     1       0.974   6.431  -1.417  0.00  0.00    +0.055 A 
ATOM     28  C   UNL     1      -0.174   6.823  -0.740  0.00  0.00    +0.087 A 
ATOM     29  N   UNL     1      -0.041   7.411   0.471  0.00  0.00    -0.244 NA
ATOM     30  C   UNL     1       1.181   7.709   0.943  0.00  0.00    +0.102 A 
ATOM     31  C   UNL     1       2.333   7.247   0.329  0.00  0.00    +0.058 A 
ATOM     32  C   UNL     1       2.229   6.482  -0.824  0.00  0.00    +0.148 A 
ATOM     33  C   UNL     1      -1.423   6.359  -1.134  0.00  0.00    +0.059 A 
BRANCH  25  34
ATOM     34  O   UNL     1      -0.631   5.291  -4.487  0.00  0.00    -0.468 OA
ATOM     35  C   UNL     1      -0.974   6.236  -5.476  0.00  0.00    +0.253 C 
ENDBRANCH  25  34
BRANCH  24  37
ATOM     36  C   UNL     1      -3.749   5.584  -3.109  0.00  0.00    +0.253 C 
ATOM     37  O   UNL     1      -2.622   4.907  -2.614  0.00  0.00    -0.468 OA
ENDBRANCH  24  37
ENDBRANCH  23  32
ENDBRANCH   1  23
TORSDOF 8
ENDMDL
MODEL 8
REMARK VINA RESULT:      -9.8      2.689      4.282
REMARK  Name = 
REMARK  8 active torsions:
REMARK  status: ('A' for Active; 'I' for Inactive)
REMARK    1  A    between atoms: O_2  and  C_3
REMARK    2  A    between atoms: C_9  and  O_10
REMARK    3  A    between atoms: O_10  and  C_11
REMARK    4  A    between atoms: C_14  and  N_15
REMARK    5  A    between atoms: C_16  and  C_18
REMARK    6  A    between atoms: C_18  and  C_19
REMARK    7  A    between atoms: N_21  and  C_22
REMARK    8  A    between atoms: C_35  and  O_36
REMARK                            x       y       z     vdW  Elec       q    Type
REMARK                         _______ _______ _______ _____ _____    ______ ____
ROOT
ATOM      1  C   UNL     1       4.093   5.375  -8.628  0.00  0.00    +0.145 A 
ATOM      2  C   UNL     1       4.115   5.774  -7.298  0.00  0.00    +0.039 A 
ATOM      3  C   UNL     1       3.232   5.187  -6.401  0.00  0.00    +0.020 A 
ATOM      4  C   UNL     1       2.273   4.271  -6.816  0.00  0.00    +0.074 A 
ATOM      5  C   UNL     1       2.551   3.635  -8.020  0.00  0.00    +0.020 A 
ATOM      6  C   UNL     1       3.543   4.121  -8.861  0.00  0.00    +0.039 A 
ENDROOT
BRANCH   4   7
ATOM      7  N   UNL     1       0.952   4.289  -6.264  0.00  0.00    -0.179 NA
ATOM      8  C   UNL     1       0.190   5.501  -6.329  0.00  0.00    +0.253 C 
ATOM      9  O   UNL     1       0.192   6.085  -7.438  0.00  0.00    -0.273 OA
BRANCH   8  10
ATOM     10  C   UNL     1      -0.790   5.811  -5.244  0.00  0.00    +0.141 C 
ATOM     11  C   UNL     1      -2.245   5.685  -5.509  0.00  0.00    +0.018 C 
ATOM     12  C   UNL     1      -1.687   7.049  -5.525  0.00  0.00    +0.018 C 
BRANCH  10  13
ATOM     13  C   UNL     1      -0.276   5.800  -3.846  0.00  0.00    +0.253 C 
ATOM     14  N   UNL     1      -0.935   5.152  -2.775  0.00  0.00    -0.179 NA
ATOM     15  O   UNL     1       0.738   6.501  -3.554  0.00  0.00    -0.273 OA
BRANCH  14  16
ATOM     16  C   UNL     1      -0.957   5.691  -1.448  0.00  0.00    +0.074 A 
ATOM     17  C   UNL     1       0.195   5.671  -0.671  0.00  0.00    +0.019 A 
ATOM     18  C   UNL     1       0.568   6.759   0.105  0.00  0.00    +0.031 A 
ATOM     19  C   UNL     1      -0.284   7.847   0.240  0.00  0.00    +0.140 A 
ATOM     20  F   UNL     1       0.246   9.082   0.367  0.00  0.00    -0.204 F 
ATOM     21  C   UNL     1      -1.601   7.620  -0.137  0.00  0.00    +0.031 A 
ATOM     22  C   UNL     1      -1.898   6.648  -1.085  0.00  0.00    +0.019 A 
ENDBRANCH  14  16
ENDBRANCH  10  13
ENDBRANCH   8  10
ENDBRANCH   4   7
BRANCH   1  23
ATOM     23  O   UNL     1       4.368   6.260  -9.674  0.00  0.00    -0.453 OA
BRANCH  23  32
ATOM     24  C   UNL     1       4.694   6.269 -14.437  0.00  0.00    +0.174 A 
ATOM     25  C   UNL     1       3.976   5.328 -13.712  0.00  0.00    +0.173 A 
ATOM     26  C   UNL     1       4.103   5.386 -12.334  0.00  0.00    +0.045 A 
ATOM     27  C   UNL     1       5.339   5.793 -11.852  0.00  0.00    +0.055 A 
ATOM     28  C   UNL     1       6.321   6.229 -12.733  0.00  0.00    +0.087 A 
ATOM     29  N   UNL     1       7.494   6.672 -12.226  0.00  0.00    -0.244 NA
ATOM     30  C   UNL     1       7.735   6.577 -10.907  0.00  0.00    +0.102 A 
ATOM     31  C   UNL     1       6.741   6.233 -10.007  0.00  0.00    +0.058 A 
ATOM     32  C   UNL     1       5.467   5.945 -10.477  0.00  0.00    +0.148 A 
ATOM     33  C   UNL     1       6.013   6.496 -14.062  0.00  0.00    +0.059 A 
BRANCH  25  34
ATOM     34  O   UNL     1       2.914   4.672 -14.334  0.00  0.00    -0.468 OA
ATOM     35  C   UNL     1       1.575   4.878 -13.942  0.00  0.00    +0.253 C 
ENDBRANCH  25  34
BRANCH  24  37
ATOM     36  C   UNL     1       4.824   7.709 -16.438  0.00  0.00    +0.253 C 
ATOM     37  O   UNL     1       4.276   6.645 -15.703  0.00  0.00    -0.468 OA
ENDBRANCH  24  37
ENDBRANCH  23  32
ENDBRANCH   1  23
TORSDOF 8
ENDMDL
MODEL 9
REMARK VINA RESULT:      -9.8      3.782      9.582
REMARK  Name = 
REMARK  8 active torsions:
REMARK  status: ('A' for Active; 'I' for Inactive)
REMARK    1  A    between atoms: O_2  and  C_3
REMARK    2  A    between atoms: C_9  and  O_10
REMARK    3  A    between atoms: O_10  and  C_11
REMARK    4  A    between atoms: C_14  and  N_15
REMARK    5  A    between atoms: C_16  and  C_18
REMARK    6  A    between atoms: C_18  and  C_19
REMARK    7  A    between atoms: N_21  and  C_22
REMARK    8  A    between atoms: C_35  and  O_36
REMARK                            x       y       z     vdW  Elec       q    Type
REMARK                         _______ _______ _______ _____ _____    ______ ____
ROOT
ATOM      1  C   UNL     1      -2.662   6.152  -3.046  0.00  0.00    +0.145 A 
ATOM      2  C   UNL     1      -2.408   7.312  -3.767  0.00  0.00    +0.039 A 
ATOM      3  C   UNL     1      -2.254   7.231  -5.145  0.00  0.00    +0.020 A 
ATOM      4  C   UNL     1      -2.267   6.011  -5.810  0.00  0.00    +0.074 A 
ATOM      5  C   UNL     1      -2.902   4.979  -5.130  0.00  0.00    +0.020 A 
ATOM      6  C   UNL     1      -3.205   5.105  -3.781  0.00  0.00    +0.039 A 
ENDROOT
BRANCH   4   7
ATOM      7  N   UNL     1      -1.367   5.754  -6.893  0.00  0.00    -0.179 NA
ATOM      8  C   UNL     1       0.023   5.559  -6.606  0.00  0.00    +0.253 C 
ATOM      9  O   UNL     1       0.278   4.785  -5.653  0.00  0.00    -0.273 OA
BRANCH   8  10
ATOM     10  C   UNL     1       1.046   5.984  -7.609  0.00  0.00    +0.141 C 
ATOM     11  C   UNL     1       0.683   6.052  -9.047  0.00  0.00    +0.018 C 
ATOM     12  C   UNL     1       1.455   4.873  -8.618  0.00  0.00    +0.018 C 
BRANCH  10  13
ATOM     13  C   UNL     1       2.227   6.731  -7.095  0.00  0.00    +0.253 C 
ATOM     14  N   UNL     1       3.101   6.227  -6.103  0.00  0.00    -0.179 NA
ATOM     15  O   UNL     1       2.409   7.929  -7.462  0.00  0.00    -0.273 OA
BRANCH  14  16
ATOM     16  C   UNL     1       3.691   7.064  -5.102  0.00  0.00    +0.074 A 
ATOM     17  C   UNL     1       2.910   7.568  -4.069  0.00  0.00    +0.019 A 
ATOM     18  C   UNL     1       3.368   7.600  -2.759  0.00  0.00    +0.031 A 
ATOM     19  C   UNL     1       4.683   7.262  -2.470  0.00  0.00    +0.140 A 
ATOM     20  F   UNL     1       4.960   6.648  -1.299  0.00  0.00    -0.204 F 
ATOM     21  C   UNL     1       5.545   7.246  -3.558  0.00  0.00    +0.031 A 
ATOM     22  C   UNL     1       5.054   6.999  -4.834  0.00  0.00    +0.019 A 
ENDBRANCH  14  16
ENDBRANCH  10  13
ENDBRANCH   8  10
ENDBRANCH   4   7
BRANCH   1  23
ATOM     23  O   UNL     1      -2.181   5.964  -1.748  0.00  0.00    -0.453 OA
BRANCH  23  32
ATOM     24  C   UNL     1      -0.000   8.078   1.936  0.00  0.00    +0.174 A 
ATOM     25  C   UNL     1      -0.771   8.755   0.999  0.00  0.00    +0.173 A 
ATOM     26  C   UNL     1      -1.213   8.014  -0.084  0.00  0.00    +0.045 A 
ATOM     27  C   UNL     1      -0.361   7.012  -0.525  0.00  0.00    +0.055 A 
ATOM     28  C   UNL     1       0.798   6.720   0.184  0.00  0.00    +0.087 A 
ATOM     29  N   UNL     1       1.576   5.699  -0.242  0.00  0.00    -0.244 NA
ATOM     30  C   UNL     1       1.287   5.068  -1.393  0.00  0.00    +0.102 A 
ATOM     31  C   UNL     1       0.094   5.282  -2.063  0.00  0.00    +0.058 A 
ATOM     32  C   UNL     1      -0.817   6.197  -1.554  0.00  0.00    +0.148 A 
ATOM     33  C   UNL     1       1.000   7.241   1.456  0.00  0.00    +0.059 A 
BRANCH  25  34
ATOM     34  O   UNL     1      -1.368   9.961   1.370  0.00  0.00    -0.468 OA
ATOM     35  C   UNL     1      -2.486  10.009   2.227  0.00  0.00    +0.253 C 
ENDBRANCH  25  34
BRANCH  24  37
ATOM     36  C   UNL     1       1.047   9.387   3.748  0.00  0.00    +0.253 C 
ATOM     37  O   UNL     1       0.059   8.524   3.246  0.00  0.00    -0.468 OA
ENDBRANCH  24  37
ENDBRANCH  23  32
ENDBRANCH   1  23
TORSDOF 8
ENDMDL
