MODEL 1
REMARK VINA RESULT:      -7.1      0.000      0.000
REMARK  Name = 
REMARK  5 active torsions:
REMARK  status: ('A' for Active; 'I' for Inactive)
REMARK    1  A    between atoms: O_2  and  C_3
REMARK    2  A    between atoms: C_5  and  C_6
REMARK    3  A    between atoms: C_6  and  C_7
REMARK    4  A    between atoms: C_16  and  O_17
REMARK    5  A    between atoms: C_19  and  O_20
REMARK                            x       y       z     vdW  Elec       q    Type
REMARK                         _______ _______ _______ _____ _____    ______ ____
ROOT
ATOM      1  C   UNL     1       0.450   5.457  -8.279  0.00  0.00    +0.175 A 
ATOM      2  C   UNL     1       1.530   5.402  -7.407  0.00  0.00    +0.206 A 
ATOM      3  C   UNL     1       1.357   5.809  -6.102  0.00  0.00    +0.175 A 
ATOM      4  C   UNL     1       0.084   5.706  -5.572  0.00  0.00    +0.036 A 
ATOM      5  C   UNL     1      -1.038   5.474  -6.356  0.00  0.00    -0.011 A 
ATOM      6  C   UNL     1      -0.813   5.450  -7.727  0.00  0.00    +0.036 A 
ENDROOT
BRANCH   1   8
ATOM      7  C   UNL     1       0.197   5.576 -10.690  0.00  0.00    +0.253 C 
ATOM      8  O   UNL     1       0.577   4.854  -9.534  0.00  0.00    -0.468 OA
ENDBRANCH   1   8
BRANCH   2   9
ATOM      9  O   UNL     1       2.799   5.472  -7.972  0.00  0.00    -0.465 OA
ATOM     10  C   UNL     1       3.277   6.654  -8.565  0.00  0.00    +0.253 C 
ENDBRANCH   2   9
BRANCH   3  11
ATOM     11  O   UNL     1       2.472   5.807  -5.287  0.00  0.00    -0.468 OA
ATOM     12  C   UNL     1       3.093   6.974  -4.811  0.00  0.00    +0.253 C 
ENDBRANCH   3  11
BRANCH   5  13
ATOM     13  C   UNL     1      -2.291   6.160  -5.912  0.00  0.00    +0.057 C 
BRANCH  13  14
ATOM     14  C   UNL     1      -2.463   6.128  -4.448  0.00  0.00    +0.036 A 
ATOM     15  C   UNL     1      -2.026   7.244  -3.747  0.00  0.00    +0.170 A 
ATOM     16  N   UNL     1      -2.013   8.506  -4.418  0.00  0.00    -0.107 NA
ATOM     17  N   UNL     1      -1.714   7.145  -2.444  0.00  0.00    -0.193 NA
ATOM     18  C   UNL     1      -1.890   5.969  -1.828  0.00  0.00    +0.258 A 
ATOM     19  N   UNL     1      -1.345   5.785  -0.539  0.00  0.00    -0.086 NA
ATOM     20  N   UNL     1      -2.781   5.116  -2.389  0.00  0.00    -0.210 NA
ATOM     21  C   UNL     1      -2.946   5.066  -3.734  0.00  0.00    +0.101 A 
ENDBRANCH  13  14
ENDBRANCH   5  13
TORSDOF 5
ENDMDL
MODEL 2
REMARK VINA RESULT:      -6.8      0.866      2.810
REMARK  Name = 
REMARK  5 active torsions:
REMARK  status: ('A' for Active; 'I' for Inactive)
REMARK    1  A    between atoms: O_2  and  C_3
REMARK    2  A    between atoms: C_5  and  C_6
REMARK    3  A    between atoms: C_6  and  C_7
REMARK    4  A    between atoms: C_16  and  O_17
REMARK    5  A    between atoms: C_19  and  O_20
REMARK                            x       y       z     vdW  Elec       q    Type
REMARK                         _______ _______ _______ _____ _____    ______ ____
ROOT
ATOM      1  C   UNL     1       1.262   4.447  -6.162  0.00  0.00    +0.175 A 
ATOM      2  C   UNL     1       1.571   4.718  -7.490  0.00  0.00    +0.206 A 
ATOM      3  C   UNL     1       0.564   5.115  -8.343  0.00  0.00    +0.175 A 
ATOM      4  C   UNL     1      -0.522   5.761  -7.781  0.00  0.00    +0.036 A 
ATOM      5  C   UNL     1      -0.756   5.780  -6.413  0.00  0.00    -0.011 A 
ATOM      6  C   UNL     1       0.122   5.024  -5.646  0.00  0.00    +0.036 A 
ENDROOT
BRANCH   1   8
ATOM      7  C   UNL     1       2.961   5.371  -4.696  0.00  0.00    +0.253 C 
ATOM      8  O   UNL     1       2.312   4.248  -5.262  0.00  0.00    -0.468 OA
ENDBRANCH   1   8
BRANCH   2   9
ATOM      9  O   UNL     1       2.690   4.083  -8.017  0.00  0.00    -0.465 OA
ATOM     10  C   UNL     1       3.861   4.795  -8.333  0.00  0.00    +0.253 C 
ENDBRANCH   2   9
BRANCH   3  11
ATOM     11  O   UNL     1       0.899   5.305  -9.669  0.00  0.00    -0.468 OA
ATOM     12  C   UNL     1       0.081   4.919 -10.744  0.00  0.00    +0.253 C 
ENDBRANCH   3  11
BRANCH   5  13
ATOM     13  C   UNL     1      -2.193   5.730  -6.001  0.00  0.00    +0.057 C 
BRANCH  13  14
ATOM     14  C   UNL     1      -2.367   5.854  -4.542  0.00  0.00    +0.036 A 
ATOM     15  C   UNL     1      -1.975   7.058  -3.971  0.00  0.00    +0.170 A 
ATOM     16  N   UNL     1      -2.011   8.237  -4.779  0.00  0.00    -0.107 NA
ATOM     17  N   UNL     1      -1.662   7.117  -2.665  0.00  0.00    -0.193 NA
ATOM     18  C   UNL     1      -1.793   6.011  -1.922  0.00  0.00    +0.258 A 
ATOM     19  N   UNL     1      -1.244   5.993  -0.621  0.00  0.00    -0.086 NA
ATOM     20  N   UNL     1      -2.650   5.067  -2.382  0.00  0.00    -0.210 NA
ATOM     21  C   UNL     1      -2.809   4.861  -3.713  0.00  0.00    +0.101 A 
ENDBRANCH  13  14
ENDBRANCH   5  13
TORSDOF 5
ENDMDL
MODEL 3
REMARK VINA RESULT:      -6.8      4.027      6.796
REMARK  Name = 
REMARK  5 active torsions:
REMARK  status: ('A' for Active; 'I' for Inactive)
REMARK    1  A    between atoms: O_2  and  C_3
REMARK    2  A    between atoms: C_5  and  C_6
REMARK    3  A    between atoms: C_6  and  C_7
REMARK    4  A    between atoms: C_16  and  O_17
REMARK    5  A    between atoms: C_19  and  O_20
REMARK                            x       y       z     vdW  Elec       q    Type
REMARK                         _______ _______ _______ _____ _____    ______ ____
ROOT
ATOM      1  C   UNL     1       0.311   5.412  -2.736  0.00  0.00    +0.175 A 
ATOM      2  C   UNL     1      -0.897   5.372  -3.422  0.00  0.00    +0.206 A 
ATOM      3  C   UNL     1      -1.041   6.121  -4.569  0.00  0.00    +0.175 A 
ATOM      4  C   UNL     1       0.107   6.402  -5.287  0.00  0.00    +0.036 A 
ATOM      5  C   UNL     1       1.381   6.200  -4.772  0.00  0.00    -0.011 A 
ATOM      6  C   UNL     1       1.431   5.788  -3.447  0.00  0.00    +0.036 A 
ENDROOT
BRANCH   1   8
ATOM      7  C   UNL     1       1.708   4.576  -0.937  0.00  0.00    +0.253 C 
ATOM      8  O   UNL     1       0.518   4.499  -1.698  0.00  0.00    -0.468 OA
ENDBRANCH   1   8
BRANCH   2   9
ATOM      9  O   UNL     1      -2.030   5.051  -2.681  0.00  0.00    -0.465 OA
ATOM     10  C   UNL     1      -2.548   5.928  -1.711  0.00  0.00    +0.253 C 
ENDBRANCH   2   9
BRANCH   3  11
ATOM     11  O   UNL     1      -2.279   6.110  -5.180  0.00  0.00    -0.468 OA
ATOM     12  C   UNL     1      -2.529   5.522  -6.431  0.00  0.00    +0.253 C 
ENDBRANCH   3  11
BRANCH   5  13
ATOM     13  C   UNL     1       2.411   7.204  -5.183  0.00  0.00    +0.057 C 
BRANCH  13  14
ATOM     14  C   UNL     1       3.233   6.737  -6.315  0.00  0.00    +0.036 A 
ATOM     15  C   UNL     1       2.822   7.126  -7.583  0.00  0.00    +0.170 A 
ATOM     16  N   UNL     1       2.084   8.344  -7.715  0.00  0.00    -0.107 NA
ATOM     17  N   UNL     1       3.194   6.416  -8.662  0.00  0.00    -0.193 NA
ATOM     18  C   UNL     1       4.012   5.370  -8.493  0.00  0.00    +0.258 A 
ATOM     19  N   UNL     1       4.213   4.480  -9.570  0.00  0.00    -0.086 NA
ATOM     20  N   UNL     1       4.774   5.369  -7.372  0.00  0.00    -0.210 NA
ATOM     21  C   UNL     1       4.311   5.902  -6.215  0.00  0.00    +0.101 A 
ENDBRANCH  13  14
ENDBRANCH   5  13
TORSDOF 5
ENDMDL
MODEL 4
REMARK VINA RESULT:      -6.7      1.761      3.288
REMARK  Name = 
REMARK  5 active torsions:
REMARK  status: ('A' for Active; 'I' for Inactive)
REMARK    1  A    between atoms: O_2  and  C_3
REMARK    2  A    between atoms: C_5  and  C_6
REMARK    3  A    between atoms: C_6  and  C_7
REMARK    4  A    between atoms: C_16  and  O_17
REMARK    5  A    between atoms: C_19  and  O_20
REMARK                            x       y       z     vdW  Elec       q    Type
REMARK                         _______ _______ _______ _____ _____    ______ ____
ROOT
ATOM      1  C   UNL     1       1.728   6.175  -4.219  0.00  0.00    +0.175 A 
ATOM      2  C   UNL     1       2.278   5.233  -5.080  0.00  0.00    +0.206 A 
ATOM      3  C   UNL     1       1.444   4.525  -5.917  0.00  0.00    +0.175 A 
ATOM      4  C   UNL     1       0.256   5.130  -6.285  0.00  0.00    +0.036 A 
ATOM      5  C   UNL     1      -0.235   6.264  -5.651  0.00  0.00    -0.011 A 
ATOM      6  C   UNL     1       0.497   6.698  -4.553  0.00  0.00    +0.036 A 
ENDROOT
BRANCH   1   8
ATOM      7  C   UNL     1       2.779   6.843  -2.137  0.00  0.00    +0.253 C 
ATOM      8  O   UNL     1       2.591   7.028  -3.527  0.00  0.00    -0.468 OA
ENDBRANCH   1   8
BRANCH   2   9
ATOM      9  O   UNL     1       3.491   4.668  -4.701  0.00  0.00    -0.465 OA
ATOM     10  C   UNL     1       4.718   5.188  -5.151  0.00  0.00    +0.253 C 
ENDBRANCH   2   9
BRANCH   3  11
ATOM     11  O   UNL     1       2.021   3.548  -6.705  0.00  0.00    -0.468 OA
ATOM     12  C   UNL     1       2.504   3.777  -8.004  0.00  0.00    +0.253 C 
ENDBRANCH   3  11
BRANCH   5  13
ATOM     13  C   UNL     1      -1.723   6.335  -5.514  0.00  0.00    +0.057 C 
BRANCH  13  14
ATOM     14  C   UNL     1      -2.163   6.268  -4.108  0.00  0.00    +0.036 A 
ATOM     15  C   UNL     1      -2.109   7.452  -3.384  0.00  0.00    +0.170 A 
ATOM     16  N   UNL     1      -2.228   8.688  -4.091  0.00  0.00    -0.107 NA
ATOM     17  N   UNL     1      -2.040   7.421  -2.042  0.00  0.00    -0.193 NA
ATOM     18  C   UNL     1      -2.085   6.234  -1.423  0.00  0.00    +0.258 A 
ATOM     19  N   UNL     1      -1.773   6.169  -0.047  0.00  0.00    -0.086 NA
ATOM     20  N   UNL     1      -2.657   5.213  -2.106  0.00  0.00    -0.210 NA
ATOM     21  C   UNL     1      -2.545   5.129  -3.455  0.00  0.00    +0.101 A 
ENDBRANCH  13  14
ENDBRANCH   5  13
TORSDOF 5
ENDMDL
MODEL 5
REMARK VINA RESULT:      -6.7      4.206      6.248
REMARK  Name = 
REMARK  5 active torsions:
REMARK  status: ('A' for Active; 'I' for Inactive)
REMARK    1  A    between atoms: O_2  and  C_3
REMARK    2  A    between atoms: C_5  and  C_6
REMARK    3  A    between atoms: C_6  and  C_7
REMARK    4  A    between atoms: C_16  and  O_17
REMARK    5  A    between atoms: C_19  and  O_20
REMARK                            x       y       z     vdW  Elec       q    Type
REMARK                         _______ _______ _______ _____ _____    ______ ____
ROOT
ATOM      1  C   UNL     1       3.913   5.698 -12.260  0.00  0.00    +0.175 A 
ATOM      2  C   UNL     1       5.206   5.258 -12.519  0.00  0.00    +0.206 A 
ATOM      3  C   UNL     1       6.174   5.424 -11.553  0.00  0.00    +0.175 A 
ATOM      4  C   UNL     1       5.753   5.472 -10.237  0.00  0.00    +0.036 A 
ATOM      5  C   UNL     1       4.419   5.627  -9.883  0.00  0.00    -0.011 A 
ATOM      6  C   UNL     1       3.541   5.832 -10.940  0.00  0.00    +0.036 A 
ENDROOT
BRANCH   1   8
ATOM      7  C   UNL     1       1.554   5.632 -12.822  0.00  0.00    +0.253 C 
ATOM      8  O   UNL     1       2.899   5.344 -13.154  0.00  0.00    -0.468 OA
ENDBRANCH   1   8
BRANCH   2   9
ATOM      9  O   UNL     1       5.590   5.186 -13.854  0.00  0.00    -0.465 OA
ATOM     10  C   UNL     1       5.860   6.344 -14.606  0.00  0.00    +0.253 C 
ENDBRANCH   2   9
BRANCH   3  11
ATOM     11  O   UNL     1       7.461   5.039 -11.877  0.00  0.00    -0.468 OA
ATOM     12  C   UNL     1       8.548   5.926 -11.941  0.00  0.00    +0.253 C 
ENDBRANCH   3  11
BRANCH   5  13
ATOM     13  C   UNL     1       4.166   6.445  -8.657  0.00  0.00    +0.057 C 
BRANCH  13  14
ATOM     14  C   UNL     1       3.027   5.942  -7.868  0.00  0.00    +0.036 A 
ATOM     15  C   UNL     1       2.205   6.896  -7.284  0.00  0.00    +0.170 A 
ATOM     16  N   UNL     1       2.107   8.180  -7.905  0.00  0.00    -0.107 NA
ATOM     17  N   UNL     1       1.454   6.580  -6.215  0.00  0.00    -0.193 NA
ATOM     18  C   UNL     1       1.471   5.318  -5.768  0.00  0.00    +0.258 A 
ATOM     19  N   UNL     1       0.886   5.029  -4.516  0.00  0.00    -0.086 NA
ATOM     20  N   UNL     1       1.842   4.363  -6.655  0.00  0.00    -0.210 NA
ATOM     21  C   UNL     1       2.767   4.623  -7.612  0.00  0.00    +0.101 A 
ENDBRANCH  13  14
ENDBRANCH   5  13
TORSDOF 5
ENDMDL
MODEL 6
REMARK VINA RESULT:      -6.4      2.097      4.069
REMARK  Name = 
REMARK  5 active torsions:
REMARK  status: ('A' for Active; 'I' for Inactive)
REMARK    1  A    between atoms: O_2  and  C_3
REMARK    2  A    between atoms: C_5  and  C_6
REMARK    3  A    between atoms: C_6  and  C_7
REMARK    4  A    between atoms: C_16  and  O_17
REMARK    5  A    between atoms: C_19  and  O_20
REMARK                            x       y       z     vdW  Elec       q    Type
REMARK                         _______ _______ _______ _____ _____    ______ ____
ROOT
ATOM      1  C   UNL     1       2.776   6.637  -4.912  0.00  0.00    +0.175 A 
ATOM      2  C   UNL     1       1.983   6.450  -6.037  0.00  0.00    +0.206 A 
ATOM      3  C   UNL     1       0.882   5.627  -5.950  0.00  0.00    +0.175 A 
ATOM      4  C   UNL     1       0.292   5.490  -4.707  0.00  0.00    +0.036 A 
ATOM      5  C   UNL     1       0.905   5.917  -3.537  0.00  0.00    -0.011 A 
ATOM      6  C   UNL     1       2.198   6.403  -3.683  0.00  0.00    +0.036 A 
ENDROOT
BRANCH   1   8
ATOM      7  C   UNL     1       4.977   7.419  -4.254  0.00  0.00    +0.253 C 
ATOM      8  O   UNL     1       3.763   7.626  -4.950  0.00  0.00    -0.468 OA
ENDBRANCH   1   8
BRANCH   2   9
ATOM      9  O   UNL     1       2.594   6.630  -7.274  0.00  0.00    -0.465 OA
ATOM     10  C   UNL     1       3.551   5.721  -7.762  0.00  0.00    +0.253 C 
ENDBRANCH   2   9
BRANCH   3  11
ATOM     11  O   UNL     1       0.162   5.410  -7.109  0.00  0.00    -0.468 OA
ATOM     12  C   UNL     1      -1.236   5.285  -7.148  0.00  0.00    +0.253 C 
ENDBRANCH   3  11
BRANCH   5  13
ATOM     13  C   UNL     1       0.661   5.066  -2.331  0.00  0.00    +0.057 C 
BRANCH  13  14
ATOM     14  C   UNL     1       0.088   5.830  -1.208  0.00  0.00    +0.036 A 
ATOM     15  C   UNL     1      -1.288   6.022  -1.224  0.00  0.00    +0.170 A 
ATOM     16  N   UNL     1      -2.100   5.055  -1.893  0.00  0.00    -0.107 NA
ATOM     17  N   UNL     1      -1.837   7.044  -0.546  0.00  0.00    -0.193 NA
ATOM     18  C   UNL     1      -1.039   7.830   0.188  0.00  0.00    +0.258 A 
ATOM     19  N   UNL     1      -1.558   9.038   0.704  0.00  0.00    -0.086 NA
ATOM     20  N   UNL     1       0.143   7.299   0.583  0.00  0.00    -0.210 NA
ATOM     21  C   UNL     1       0.808   6.419  -0.205  0.00  0.00    +0.101 A 
ENDBRANCH  13  14
ENDBRANCH   5  13
TORSDOF 5
ENDMDL
MODEL 7
REMARK VINA RESULT:      -6.4      5.321      7.883
REMARK  Name = 
REMARK  5 active torsions:
REMARK  status: ('A' for Active; 'I' for Inactive)
REMARK    1  A    between atoms: O_2  and  C_3
REMARK    2  A    between atoms: C_5  and  C_6
REMARK    3  A    between atoms: C_6  and  C_7
REMARK    4  A    between atoms: C_16  and  O_17
REMARK    5  A    between atoms: C_19  and  O_20
REMARK                            x       y       z     vdW  Elec       q    Type
REMARK                         _______ _______ _______ _____ _____    ______ ____
ROOT
ATOM      1  C   UNL     1       1.691   6.113  -6.155  0.00  0.00    +0.175 A 
ATOM      2  C   UNL     1       2.592   6.499  -5.170  0.00  0.00    +0.206 A 
ATOM      3  C   UNL     1       3.901   6.079  -5.259  0.00  0.00    +0.175 A 
ATOM      4  C   UNL     1       4.393   5.809  -6.523  0.00  0.00    +0.036 A 
ATOM      5  C   UNL     1       3.572   5.685  -7.635  0.00  0.00    -0.011 A 
ATOM      6  C   UNL     1       2.207   5.754  -7.381  0.00  0.00    +0.036 A 
ENDROOT
BRANCH   1   8
ATOM      7  C   UNL     1      -0.707   5.912  -6.467  0.00  0.00    +0.253 C 
ATOM      8  O   UNL     1       0.426   6.706  -6.170  0.00  0.00    -0.468 OA
ENDBRANCH   1   8
BRANCH   2   9
ATOM      9  O   UNL     1       2.064   6.800  -3.918  0.00  0.00    -0.465 OA
ATOM     10  C   UNL     1       1.527   5.801  -3.086  0.00  0.00    +0.253 C 
ENDBRANCH   2   9
BRANCH   3  11
ATOM     11  O   UNL     1       4.747   6.425  -4.223  0.00  0.00    -0.468 OA
ATOM     12  C   UNL     1       5.510   7.604  -4.197  0.00  0.00    +0.253 C 
ENDBRANCH   3  11
BRANCH   5  13
ATOM     13  C   UNL     1       3.998   4.666  -8.644  0.00  0.00    +0.057 C 
BRANCH  13  14
ATOM     14  C   UNL     1       4.970   5.203  -9.613  0.00  0.00    +0.036 A 
ATOM     15  C   UNL     1       4.526   5.356 -10.919  0.00  0.00    +0.170 A 
ATOM     16  N   UNL     1       3.131   5.572 -11.142  0.00  0.00    -0.107 NA
ATOM     17  N   UNL     1       5.407   5.390 -11.934  0.00  0.00    -0.193 NA
ATOM     18  C   UNL     1       6.715   5.334 -11.652  0.00  0.00    +0.258 A 
ATOM     19  N   UNL     1       7.633   5.126 -12.705  0.00  0.00    -0.086 NA
ATOM     20  N   UNL     1       7.085   5.717 -10.406  0.00  0.00    -0.210 NA
ATOM     21  C   UNL     1       6.279   5.490  -9.339  0.00  0.00    +0.101 A 
ENDBRANCH  13  14
ENDBRANCH   5  13
TORSDOF 5
ENDMDL
MODEL 8
REMARK VINA RESULT:      -6.4      4.751      7.190
REMARK  Name = 
REMARK  5 active torsions:
REMARK  status: ('A' for Active; 'I' for Inactive)
REMARK    1  A    between atoms: O_2  and  C_3
REMARK    2  A    between atoms: C_5  and  C_6
REMARK    3  A    between atoms: C_6  and  C_7
REMARK    4  A    between atoms: C_16  and  O_17
REMARK    5  A    between atoms: C_19  and  O_20
REMARK                            x       y       z     vdW  Elec       q    Type
REMARK                         _______ _______ _______ _____ _____    ______ ____
ROOT
ATOM      1  C   UNL     1       2.042   5.303  -5.950  0.00  0.00    +0.175 A 
ATOM      2  C   UNL     1       0.765   5.122  -5.433  0.00  0.00    +0.206 A 
ATOM      3  C   UNL     1      -0.315   5.624  -6.127  0.00  0.00    +0.175 A 
ATOM      4  C   UNL     1      -0.179   5.758  -7.496  0.00  0.00    +0.036 A 
ATOM      5  C   UNL     1       1.049   5.667  -8.139  0.00  0.00    -0.011 A 
ATOM      6  C   UNL     1       2.151   5.531  -7.305  0.00  0.00    +0.036 A 
ENDROOT
BRANCH   1   8
ATOM      7  C   UNL     1       4.272   5.332  -4.994  0.00  0.00    +0.253 C 
ATOM      8  O   UNL     1       3.104   4.618  -5.353  0.00  0.00    -0.468 OA
ENDBRANCH   1   8
BRANCH   2   9
ATOM      9  O   UNL     1       0.662   4.954  -4.056  0.00  0.00    -0.465 OA
ATOM     10  C   UNL     1       0.887   6.019  -3.165  0.00  0.00    +0.253 C 
ENDBRANCH   2   9
BRANCH   3  11
ATOM     11  O   UNL     1      -1.559   5.487  -5.543  0.00  0.00    -0.468 OA
ATOM     12  C   UNL     1      -2.368   6.571  -5.165  0.00  0.00    +0.253 C 
ENDBRANCH   3  11
BRANCH   5  13
ATOM     13  C   UNL     1       1.230   6.571  -9.318  0.00  0.00    +0.057 C 
BRANCH  13  14
ATOM     14  C   UNL     1       1.290   5.830 -10.591  0.00  0.00    +0.036 A 
ATOM     15  C   UNL     1       2.411   6.045 -11.383  0.00  0.00    +0.170 A 
ATOM     16  N   UNL     1       3.630   6.430 -10.744  0.00  0.00    -0.107 NA
ATOM     17  N   UNL     1       2.362   5.805 -12.704  0.00  0.00    -0.193 NA
ATOM     18  C   UNL     1       1.236   5.301 -13.225  0.00  0.00    +0.258 A 
ATOM     19  N   UNL     1       1.086   5.272 -14.629  0.00  0.00    -0.086 NA
ATOM     20  N   UNL     1       0.416   4.637 -12.374  0.00  0.00    -0.210 NA
ATOM     21  C   UNL     1       0.304   5.016 -11.077  0.00  0.00    +0.101 A 
ENDBRANCH  13  14
ENDBRANCH   5  13
TORSDOF 5
ENDMDL
MODEL 9
REMARK VINA RESULT:      -6.3      3.889      5.872
REMARK  Name = 
REMARK  5 active torsions:
REMARK  status: ('A' for Active; 'I' for Inactive)
REMARK    1  A    between atoms: O_2  and  C_3
REMARK    2  A    between atoms: C_5  and  C_6
REMARK    3  A    between atoms: C_6  and  C_7
REMARK    4  A    between atoms: C_16  and  O_17
REMARK    5  A    between atoms: C_19  and  O_20
REMARK                            x       y       z     vdW  Elec       q    Type
REMARK                         _______ _______ _______ _____ _____    ______ ____
ROOT
ATOM      1  C   UNL     1      -0.634   5.648  -4.656  0.00  0.00    +0.175 A 
ATOM      2  C   UNL     1      -0.449   5.587  -3.280  0.00  0.00    +0.206 A 
ATOM      3  C   UNL     1       0.830   5.664  -2.774  0.00  0.00    +0.175 A 
ATOM      4  C   UNL     1       1.769   6.344  -3.530  0.00  0.00    +0.036 A 
ATOM      5  C   UNL     1       1.548   6.701  -4.853  0.00  0.00    -0.011 A 
ATOM      6  C   UNL     1       0.358   6.245  -5.404  0.00  0.00    +0.036 A 
ENDROOT
BRANCH   1   8
ATOM      7  C   UNL     1      -2.192   5.498  -6.510  0.00  0.00    +0.253 C 
ATOM      8  O   UNL     1      -1.937   5.777  -5.147  0.00  0.00    -0.468 OA
ENDBRANCH   1   8
BRANCH   2   9
ATOM      9  O   UNL     1      -1.427   4.929  -2.542  0.00  0.00    -0.465 OA
ATOM     10  C   UNL     1      -2.380   5.636  -1.787  0.00  0.00    +0.253 C 
ENDBRANCH   2   9
BRANCH   3  11
ATOM     11  O   UNL     1       0.978   5.527  -1.408  0.00  0.00    -0.468 OA
ATOM     12  C   UNL     1       1.306   6.588  -0.547  0.00  0.00    +0.253 C 
ENDBRANCH   3  11
BRANCH   5  13
ATOM     13  C   UNL     1       2.747   6.643  -5.747  0.00  0.00    +0.057 C 
BRANCH  13  14
ATOM     14  C   UNL     1       2.430   6.095  -7.079  0.00  0.00    +0.036 A 
ATOM     15  C   UNL     1       1.924   6.989  -8.013  0.00  0.00    +0.170 A 
ATOM     16  N   UNL     1       2.277   8.369  -7.895  0.00  0.00    -0.107 NA
ATOM     17  N   UNL     1       1.197   6.542  -9.052  0.00  0.00    -0.193 NA
ATOM     18  C   UNL     1       1.025   5.222  -9.196  0.00  0.00    +0.258 A 
ATOM     19  N   UNL     1       0.074   4.755 -10.130  0.00  0.00    -0.086 NA
ATOM     20  N   UNL     1       1.944   4.421  -8.604  0.00  0.00    -0.210 NA
ATOM     21  C   UNL     1       2.528   4.778  -7.433  0.00  0.00    +0.101 A 
ENDBRANCH  13  14
ENDBRANCH   5  13
TORSDOF 5
ENDMDL
