MODEL 1
REMARK VINA RESULT:      -8.7      0.000      0.000
REMARK  Name = 
REMARK  15 active torsions:
REMARK  status: ('A' for Active; 'I' for Inactive)
REMARK    1  A    between atoms: S_2  and  C_3
REMARK    2  A    between atoms: C_3  and  C_4
REMARK    3  A    between atoms: C_4  and  N_5
REMARK    4  A    between atoms: C_8  and  S_9
REMARK    5  A    between atoms: S_9  and  C_10
REMARK    6  A    between atoms: C_10  and  C_11
REMARK    7  A    between atoms: C_11  and  C_12
REMARK    8  A    between atoms: N_21  and  C_22
REMARK    9  A    between atoms: C_24  and  C_25
REMARK   10  A    between atoms: C_25  and  O_26
REMARK   11  A    between atoms: O_26  and  P_27
REMARK   12  A    between atoms: P_27  and  O_30
REMARK   13  A    between atoms: O_30  and  P_31
REMARK   14  A    between atoms: P_31  and  C_34
REMARK   15  A    between atoms: C_34  and  P_37
REMARK                            x       y       z     vdW  Elec       q    Type
REMARK                         _______ _______ _______ _____ _____    ______ ____
ROOT
ATOM      1  C   UNL     1      -0.682   5.390  -4.737  0.00  0.00    +0.241 C 
ATOM      2  C   UNL     1      -1.245   6.740  -5.622  0.00  0.00    +0.234 C 
ATOM      3  O   UNL     1      -2.648   6.228  -5.744  0.00  0.00    -0.216 OA
ATOM      4  C   UNL     1      -0.655   6.032  -7.044  0.00  0.00    +0.216 C 
ATOM      5  O   UNL     1      -1.397   4.728  -6.921  0.00  0.00    -0.218 OA
ATOM      6  C   UNL     1       0.694   5.271  -6.320  0.00  0.00    +0.180 C 
ATOM      7  O   UNL     1       0.655   6.044  -5.031  0.00  0.00    -0.331 OA
ENDROOT
BRANCH   1  13
ATOM      8  N   UNL     1      -0.467   7.071   1.072  0.00  0.00    -0.218 NA
ATOM      9  C   UNL     1       0.179   6.514  -0.053  0.00  0.00    +0.170 A 
ATOM     10  C   UNL     1      -0.546   6.307  -1.205  0.00  0.00    +0.150 A 
ATOM     11  N   UNL     1      -1.816   6.660  -1.513  0.00  0.00    -0.219 NA
ATOM     12  C   UNL     1      -2.033   6.063  -2.709  0.00  0.00    +0.182 A 
ATOM     13  N   UNL     1      -0.839   6.148  -3.358  0.00  0.00    -0.269 N 
ATOM     14  C   UNL     1       0.013   5.778  -2.364  0.00  0.00    +0.169 A 
ATOM     15  N   UNL     1       1.336   5.491  -2.352  0.00  0.00    -0.202 NA
ATOM     16  C   UNL     1       2.038   5.717  -1.217  0.00  0.00    +0.193 A 
ATOM     17  N   UNL     1       1.431   6.024  -0.045  0.00  0.00    -0.203 NA
BRANCH   8  18
ATOM     18  C   UNL     1      -1.893   6.830   1.272  0.00  0.00    +0.125 C 
BRANCH  18  19
ATOM     19  C   UNL     1      -2.416   7.841   2.249  0.00  0.00    +0.081 C 
BRANCH  19  21
ATOM     20  C   UNL     1      -1.469  10.304   2.812  0.00  0.00    +0.069 C 
ATOM     21  S   UNL     1      -1.901   9.527   1.900  0.00  0.00    -0.137 S 
ENDBRANCH  19  21
ENDBRANCH  18  19
ENDBRANCH   8  18
BRANCH  16  22
ATOM     22  S   UNL     1       3.825   5.673  -1.246  0.00  0.00    -0.075 S 
BRANCH  22  23
ATOM     23  C   UNL     1       4.326   5.459  -2.975  0.00  0.00    +0.074 C 
BRANCH  23  24
ATOM     24  C   UNL     1       5.306   6.574  -3.317  0.00  0.00    +0.115 C 
BRANCH  24  25
ATOM     25  C   UNL     1       4.672   7.366  -4.433  0.00  0.00    +0.399 C 
ATOM     26  F   UNL     1       5.285   8.602  -4.461  0.00  0.00    -0.170 F 
ATOM     27  F   UNL     1       4.887   6.707  -5.620  0.00  0.00    -0.170 F 
ATOM     28  F   UNL     1       3.337   7.495  -4.148  0.00  0.00    -0.170 F 
ENDBRANCH  24  25
ENDBRANCH  23  24
ENDBRANCH  22  23
ENDBRANCH  16  22
ENDBRANCH   1  13
BRANCH   6  29
ATOM     29  C   UNL     1       1.794   6.277  -6.988  0.00  0.00    +0.181 C 
BRANCH  29  30
ATOM     30  O   UNL     1       2.781   5.718  -7.601  0.00  0.00    -0.311 OA
BRANCH  30  31
ATOM     31  P   UNL     1       2.740   4.743  -8.876  0.00  0.00    +0.221 P 
ATOM     32  O   UNL     1       1.497   5.317  -9.892  0.00  0.00    -0.437 OA
ATOM     33  O   UNL     1       2.539   3.323  -8.431  0.00  0.00    -0.517 OA
BRANCH  31  34
ATOM     34  O   UNL     1       4.074   4.611  -9.886  0.00  0.00    -0.247 OA
BRANCH  34  35
ATOM     35  P   UNL     1       4.337   6.127 -10.570  0.00  0.00    +0.407 P 
ATOM     36  O   UNL     1       3.221   6.486 -11.808  0.00  0.00    -0.137 OA
ATOM     37  O   UNL     1       3.967   7.111  -9.465  0.00  0.00    -0.252 OA
BRANCH  35  38
ATOM     38  C   UNL     1       5.926   6.419 -11.280  0.00  0.00    +0.272 C 
ATOM     39 CL   UNL     1       6.374   8.148 -11.418  0.00  0.00    -0.080 Cl
ATOM     40 CL   UNL     1       7.155   5.799 -10.127  0.00  0.00    -0.080 Cl
BRANCH  38  41
ATOM     41  P   UNL     1       6.275   5.627 -12.847  0.00  0.00    +0.156 P 
ATOM     42  O   UNL     1       6.614   6.726 -14.068  0.00  0.00    -0.355 OA
ATOM     43  O   UNL     1       7.655   4.664 -12.563  0.00  0.00    -0.355 OA
ATOM     44  O   UNL     1       5.175   4.659 -13.217  0.00  0.00    -0.457 OA
ENDBRANCH  38  41
ENDBRANCH  35  38
ENDBRANCH  34  35
ENDBRANCH  31  34
ENDBRANCH  30  31
ENDBRANCH  29  30
ENDBRANCH   6  29
TORSDOF 15
ENDMDL
MODEL 2
REMARK VINA RESULT:      -8.2      2.331      4.046
REMARK  Name = 
REMARK  15 active torsions:
REMARK  status: ('A' for Active; 'I' for Inactive)
REMARK    1  A    between atoms: S_2  and  C_3
REMARK    2  A    between atoms: C_3  and  C_4
REMARK    3  A    between atoms: C_4  and  N_5
REMARK    4  A    between atoms: C_8  and  S_9
REMARK    5  A    between atoms: S_9  and  C_10
REMARK    6  A    between atoms: C_10  and  C_11
REMARK    7  A    between atoms: C_11  and  C_12
REMARK    8  A    between atoms: N_21  and  C_22
REMARK    9  A    between atoms: C_24  and  C_25
REMARK   10  A    between atoms: C_25  and  O_26
REMARK   11  A    between atoms: O_26  and  P_27
REMARK   12  A    between atoms: P_27  and  O_30
REMARK   13  A    between atoms: O_30  and  P_31
REMARK   14  A    between atoms: P_31  and  C_34
REMARK   15  A    between atoms: C_34  and  P_37
REMARK                            x       y       z     vdW  Elec       q    Type
REMARK                         _______ _______ _______ _____ _____    ______ ____
ROOT
ATOM      1  C   UNL     1       2.924   7.250  -3.273  0.00  0.00    +0.241 C 
ATOM      2  C   UNL     1       4.066   5.981  -3.179  0.00  0.00    +0.234 C 
ATOM      3  O   UNL     1       5.118   6.816  -2.514  0.00  0.00    -0.216 OA
ATOM      4  C   UNL     1       4.535   6.309  -4.773  0.00  0.00    +0.216 C 
ATOM      5  O   UNL     1       4.865   7.765  -4.572  0.00  0.00    -0.218 OA
ATOM      6  C   UNL     1       2.989   6.789  -5.322  0.00  0.00    +0.180 C 
ATOM      7  O   UNL     1       2.216   6.240  -4.156  0.00  0.00    -0.331 OA
ENDROOT
BRANCH   1  13
ATOM      8  N   UNL     1      -1.106   6.228   1.123  0.00  0.00    -0.218 NA
ATOM      9  C   UNL     1      -0.826   6.376  -0.252  0.00  0.00    +0.170 A 
ATOM     10  C   UNL     1       0.449   6.723  -0.640  0.00  0.00    +0.150 A 
ATOM     11  N   UNL     1       1.581   6.852   0.093  0.00  0.00    -0.219 NA
ATOM     12  C   UNL     1       2.476   7.358  -0.788  0.00  0.00    +0.182 A 
ATOM     13  N   UNL     1       2.173   6.758  -1.971  0.00  0.00    -0.269 N 
ATOM     14  C   UNL     1       0.818   6.875  -1.972  0.00  0.00    +0.169 A 
ATOM     15  N   UNL     1      -0.121   6.635  -2.918  0.00  0.00    -0.202 NA
ATOM     16  C   UNL     1      -1.364   6.277  -2.520  0.00  0.00    +0.193 A 
ATOM     17  N   UNL     1      -1.753   6.349  -1.225  0.00  0.00    -0.203 NA
BRANCH   8  18
ATOM     18  C   UNL     1      -0.355   7.014   2.097  0.00  0.00    +0.125 C 
BRANCH  18  19
ATOM     19  C   UNL     1      -1.190   8.191   2.508  0.00  0.00    +0.081 C 
BRANCH  19  21
ATOM     20  C   UNL     1       0.606   9.936   1.503  0.00  0.00    +0.069 C 
ATOM     21  S   UNL     1      -0.602   9.763   1.865  0.00  0.00    -0.137 S 
ENDBRANCH  19  21
ENDBRANCH  18  19
ENDBRANCH   8  18
BRANCH  16  22
ATOM     22  S   UNL     1      -2.533   5.633  -3.710  0.00  0.00    -0.075 S 
BRANCH  22  23
ATOM     23  C   UNL     1      -2.386   6.646  -5.205  0.00  0.00    +0.074 C 
BRANCH  23  24
ATOM     24  C   UNL     1      -2.350   5.705  -6.403  0.00  0.00    +0.115 C 
BRANCH  24  25
ATOM     25  C   UNL     1      -0.896   5.553  -6.776  0.00  0.00    +0.399 C 
ATOM     26  F   UNL     1      -0.237   6.681  -6.332  0.00  0.00    -0.170 F 
ATOM     27  F   UNL     1      -0.393   4.438  -6.150  0.00  0.00    -0.170 F 
ATOM     28  F   UNL     1      -0.824   5.457  -8.142  0.00  0.00    -0.170 F 
ENDBRANCH  24  25
ENDBRANCH  23  24
ENDBRANCH  22  23
ENDBRANCH  16  22
ENDBRANCH   1  13
BRANCH   6  29
ATOM     29  C   UNL     1       2.741   5.451  -6.225  0.00  0.00    +0.181 C 
BRANCH  29  30
ATOM     30  O   UNL     1       3.120   5.515  -7.456  0.00  0.00    -0.311 OA
BRANCH  30  31
ATOM     31  P   UNL     1       2.737   6.611  -8.563  0.00  0.00    +0.221 P 
ATOM     32  O   UNL     1       2.311   8.030  -7.720  0.00  0.00    -0.437 OA
ATOM     33  O   UNL     1       1.641   6.090  -9.446  0.00  0.00    -0.517 OA
BRANCH  31  34
ATOM     34  O   UNL     1       3.879   7.122  -9.683  0.00  0.00    -0.247 OA
BRANCH  34  35
ATOM     35  P   UNL     1       5.042   5.910  -9.801  0.00  0.00    +0.407 P 
ATOM     36  O   UNL     1       5.703   5.490  -8.287  0.00  0.00    -0.137 OA
ATOM     37  O   UNL     1       4.254   4.665 -10.199  0.00  0.00    -0.252 OA
BRANCH  35  38
ATOM     38  C   UNL     1       6.431   6.234 -10.840  0.00  0.00    +0.272 C 
ATOM     39 CL   UNL     1       6.879   7.964 -10.968  0.00  0.00    -0.080 Cl
ATOM     40 CL   UNL     1       7.877   5.524 -10.047  0.00  0.00    -0.080 Cl
BRANCH  38  41
ATOM     41  P   UNL     1       6.388   5.547 -12.493  0.00  0.00    +0.156 P 
ATOM     42  O   UNL     1       4.913   4.839 -12.862  0.00  0.00    -0.355 OA
ATOM     43  O   UNL     1       6.646   6.874 -13.533  0.00  0.00    -0.355 OA
ATOM     44  O   UNL     1       7.559   4.620 -12.721  0.00  0.00    -0.457 OA
ENDBRANCH  38  41
ENDBRANCH  35  38
ENDBRANCH  34  35
ENDBRANCH  31  34
ENDBRANCH  30  31
ENDBRANCH  29  30
ENDBRANCH   6  29
TORSDOF 15
ENDMDL
MODEL 3
REMARK VINA RESULT:      -8.1      6.391     10.242
REMARK  Name = 
REMARK  15 active torsions:
REMARK  status: ('A' for Active; 'I' for Inactive)
REMARK    1  A    between atoms: S_2  and  C_3
REMARK    2  A    between atoms: C_3  and  C_4
REMARK    3  A    between atoms: C_4  and  N_5
REMARK    4  A    between atoms: C_8  and  S_9
REMARK    5  A    between atoms: S_9  and  C_10
REMARK    6  A    between atoms: C_10  and  C_11
REMARK    7  A    between atoms: C_11  and  C_12
REMARK    8  A    between atoms: N_21  and  C_22
REMARK    9  A    between atoms: C_24  and  C_25
REMARK   10  A    between atoms: C_25  and  O_26
REMARK   11  A    between atoms: O_26  and  P_27
REMARK   12  A    between atoms: P_27  and  O_30
REMARK   13  A    between atoms: O_30  and  P_31
REMARK   14  A    between atoms: P_31  and  C_34
REMARK   15  A    between atoms: C_34  and  P_37
REMARK                            x       y       z     vdW  Elec       q    Type
REMARK                         _______ _______ _______ _____ _____    ______ ____
ROOT
ATOM      1  C   UNL     1       1.149   6.310  -6.102  0.00  0.00    +0.241 C 
ATOM      2  C   UNL     1       0.403   4.918  -5.447  0.00  0.00    +0.234 C 
ATOM      3  O   UNL     1      -0.971   5.515  -5.430  0.00  0.00    -0.216 OA
ATOM      4  C   UNL     1       0.857   5.427  -3.896  0.00  0.00    +0.216 C 
ATOM      5  O   UNL     1       0.214   6.788  -3.954  0.00  0.00    -0.218 OA
ATOM      6  C   UNL     1       2.327   6.160  -4.369  0.00  0.00    +0.180 C 
ATOM      7  O   UNL     1       2.399   5.533  -5.733  0.00  0.00    -0.331 OA
ENDROOT
BRANCH   1  13
ATOM      8  N   UNL     1       2.052   5.180 -11.978  0.00  0.00    -0.218 NA
ATOM      9  C   UNL     1       2.579   5.535 -10.718  0.00  0.00    +0.170 A 
ATOM     10  C   UNL     1       1.716   5.725  -9.662  0.00  0.00    +0.150 A 
ATOM     11  N   UNL     1       0.381   5.518  -9.577  0.00  0.00    -0.219 NA
ATOM     12  C   UNL     1       0.055   6.021  -8.362  0.00  0.00    +0.182 A 
ATOM     13  N   UNL     1       1.117   5.716  -7.568  0.00  0.00    -0.269 N 
ATOM     14  C   UNL     1       2.149   6.061  -8.384  0.00  0.00    +0.169 A 
ATOM     15  N   UNL     1       3.483   6.169  -8.178  0.00  0.00    -0.202 NA
ATOM     16  C   UNL     1       4.319   5.960  -9.222  0.00  0.00    +0.193 A 
ATOM     17  N   UNL     1       3.866   5.851 -10.494  0.00  0.00    -0.203 NA
BRANCH   8  18
ATOM     18  C   UNL     1       0.712   5.628 -12.346  0.00  0.00    +0.125 C 
BRANCH  18  19
ATOM     19  C   UNL     1       0.825   6.952 -13.041  0.00  0.00    +0.081 C 
BRANCH  19  21
ATOM     20  C   UNL     1       0.243   6.884 -15.676  0.00  0.00    +0.069 C 
ATOM     21  S   UNL     1       1.167   6.826 -14.802  0.00  0.00    -0.137 S 
ENDBRANCH  19  21
ENDBRANCH  18  19
ENDBRANCH   8  18
BRANCH  16  22
ATOM     22  S   UNL     1       6.073   5.761  -8.938  0.00  0.00    -0.075 S 
BRANCH  22  23
ATOM     23  C   UNL     1       6.929   6.480 -10.365  0.00  0.00    +0.074 C 
BRANCH  23  24
ATOM     24  C   UNL     1       7.895   5.431 -10.903  0.00  0.00    +0.115 C 
BRANCH  24  25
ATOM     25  C   UNL     1       8.283   5.886 -12.288  0.00  0.00    +0.399 C 
ATOM     26  F   UNL     1       7.906   4.893 -13.169  0.00  0.00    -0.170 F 
ATOM     27  F   UNL     1       7.610   7.049 -12.576  0.00  0.00    -0.170 F 
ATOM     28  F   UNL     1       9.643   6.058 -12.306  0.00  0.00    -0.170 F 
ENDBRANCH  24  25
ENDBRANCH  23  24
ENDBRANCH  22  23
ENDBRANCH  16  22
ENDBRANCH   1  13
BRANCH   6  29
ATOM     29  C   UNL     1       3.275   5.012  -3.698  0.00  0.00    +0.181 C 
BRANCH  29  30
ATOM     30  O   UNL     1       3.972   5.372  -2.675  0.00  0.00    -0.311 OA
BRANCH  30  31
ATOM     31  P   UNL     1       3.756   4.982  -1.133  0.00  0.00    +0.221 P 
ATOM     32  O   UNL     1       4.944   3.821  -0.750  0.00  0.00    -0.437 OA
ATOM     33  O   UNL     1       2.354   4.494  -0.917  0.00  0.00    -0.517 OA
BRANCH  31  34
ATOM     34  O   UNL     1       3.913   6.146   0.067  0.00  0.00    -0.247 OA
BRANCH  34  35
ATOM     35  P   UNL     1       3.224   7.567  -0.519  0.00  0.00    +0.407 P 
ATOM     36  O   UNL     1       3.999   8.134  -1.927  0.00  0.00    -0.137 OA
ATOM     37  O   UNL     1       1.848   7.142  -1.022  0.00  0.00    -0.252 OA
BRANCH  35  38
ATOM     38  C   UNL     1       3.185   8.948   0.578  0.00  0.00    +0.272 C 
ATOM     39 CL   UNL     1       4.632   9.112   1.623  0.00  0.00    -0.080 Cl
ATOM     40 CL   UNL     1       3.269  10.436  -0.423  0.00  0.00    -0.080 Cl
BRANCH  38  41
ATOM     41  P   UNL     1       1.732   9.128   1.608  0.00  0.00    +0.156 P 
ATOM     42  O   UNL     1       0.383   9.627   0.744  0.00  0.00    -0.355 OA
ATOM     43  O   UNL     1       1.442   7.572   2.245  0.00  0.00    -0.355 OA
ATOM     44  O   UNL     1       2.024  10.007   2.801  0.00  0.00    -0.457 OA
ENDBRANCH  38  41
ENDBRANCH  35  38
ENDBRANCH  34  35
ENDBRANCH  31  34
ENDBRANCH  30  31
ENDBRANCH  29  30
ENDBRANCH   6  29
TORSDOF 15
ENDMDL
MODEL 4
REMARK VINA RESULT:      -7.8      6.471     10.458
REMARK  Name = 
REMARK  15 active torsions:
REMARK  status: ('A' for Active; 'I' for Inactive)
REMARK    1  A    between atoms: S_2  and  C_3
REMARK    2  A    between atoms: C_3  and  C_4
REMARK    3  A    between atoms: C_4  and  N_5
REMARK    4  A    between atoms: C_8  and  S_9
REMARK    5  A    between atoms: S_9  and  C_10
REMARK    6  A    between atoms: C_10  and  C_11
REMARK    7  A    between atoms: C_11  and  C_12
REMARK    8  A    between atoms: N_21  and  C_22
REMARK    9  A    between atoms: C_24  and  C_25
REMARK   10  A    between atoms: C_25  and  O_26
REMARK   11  A    between atoms: O_26  and  P_27
REMARK   12  A    between atoms: P_27  and  O_30
REMARK   13  A    between atoms: O_30  and  P_31
REMARK   14  A    between atoms: P_31  and  C_34
REMARK   15  A    between atoms: C_34  and  P_37
REMARK                            x       y       z     vdW  Elec       q    Type
REMARK                         _______ _______ _______ _____ _____    ______ ____
ROOT
ATOM      1  C   UNL     1       2.514   5.241  -9.341  0.00  0.00    +0.241 C 
ATOM      2  C   UNL     1       1.985   6.841  -9.052  0.00  0.00    +0.234 C 
ATOM      3  O   UNL     1       3.325   7.459  -9.308  0.00  0.00    -0.216 OA
ATOM      4  C   UNL     1       2.199   6.592  -7.390  0.00  0.00    +0.216 C 
ATOM      5  O   UNL     1       3.645   6.174  -7.452  0.00  0.00    -0.218 OA
ATOM      6  C   UNL     1       1.775   4.936  -7.399  0.00  0.00    +0.180 C 
ATOM      7  O   UNL     1       1.147   4.928  -8.764  0.00  0.00    -0.331 OA
ENDROOT
BRANCH   1  13
ATOM      8  N   UNL     1       1.583   6.356 -15.215  0.00  0.00    -0.218 NA
ATOM      9  C   UNL     1       2.485   6.140 -14.152  0.00  0.00    +0.170 A 
ATOM     10  C   UNL     1       1.991   6.006 -12.874  0.00  0.00    +0.150 A 
ATOM     11  N   UNL     1       0.712   5.932 -12.435  0.00  0.00    -0.219 NA
ATOM     12  C   UNL     1       0.834   5.964 -11.086  0.00  0.00    +0.182 A 
ATOM     13  N   UNL     1       1.970   5.262 -10.827  0.00  0.00    -0.269 N 
ATOM     14  C   UNL     1       2.805   5.776 -11.769  0.00  0.00    +0.169 A 
ATOM     15  N   UNL     1       4.136   5.648 -11.983  0.00  0.00    -0.202 NA
ATOM     16  C   UNL     1       4.603   5.764 -13.248  0.00  0.00    +0.193 A 
ATOM     17  N   UNL     1       3.823   6.202 -14.265  0.00  0.00    -0.203 NA
BRANCH   8  18
ATOM     18  C   UNL     1       0.327   7.056 -14.960  0.00  0.00    +0.125 C 
BRANCH  18  19
ATOM     19  C   UNL     1       0.060   7.990 -16.103  0.00  0.00    +0.081 C 
BRANCH  19  21
ATOM     20  C   UNL     1       0.470  10.628 -16.499  0.00  0.00    +0.069 C 
ATOM     21  S   UNL     1       0.931   9.557 -15.985  0.00  0.00    -0.137 S 
ENDBRANCH  19  21
ENDBRANCH  18  19
ENDBRANCH   8  18
BRANCH  16  22
ATOM     22  S   UNL     1       6.281   5.279 -13.630  0.00  0.00    -0.075 S 
BRANCH  22  23
ATOM     23  C   UNL     1       7.181   5.186 -12.059  0.00  0.00    +0.074 C 
BRANCH  23  24
ATOM     24  C   UNL     1       7.872   6.526 -11.840  0.00  0.00    +0.115 C 
BRANCH  24  25
ATOM     25  C   UNL     1       7.203   7.156 -10.644  0.00  0.00    +0.399 C 
ATOM     26  F   UNL     1       8.193   7.725  -9.870  0.00  0.00    -0.170 F 
ATOM     27  F   UNL     1       6.335   8.127 -11.085  0.00  0.00    -0.170 F 
ATOM     28  F   UNL     1       6.559   6.162  -9.954  0.00  0.00    -0.170 F 
ENDBRANCH  24  25
ENDBRANCH  23  24
ENDBRANCH  22  23
ENDBRANCH  16  22
ENDBRANCH   1  13
BRANCH   6  29
ATOM     29  C   UNL     1       0.342   5.156  -6.647  0.00  0.00    +0.181 C 
BRANCH  29  30
ATOM     30  O   UNL     1       0.303   4.861  -5.393  0.00  0.00    -0.311 OA
BRANCH  30  31
ATOM     31  P   UNL     1      -0.137   5.792  -4.161  0.00  0.00    +0.221 P 
ATOM     32  O   UNL     1      -1.692   5.278  -3.690  0.00  0.00    -0.437 OA
ATOM     33  O   UNL     1      -0.082   7.236  -4.563  0.00  0.00    -0.517 OA
BRANCH  31  34
ATOM     34  O   UNL     1       0.750   5.788  -2.736  0.00  0.00    -0.247 OA
BRANCH  34  35
ATOM     35  P   UNL     1       2.362   6.050  -3.148  0.00  0.00    +0.407 P 
ATOM     36  O   UNL     1       2.982   4.829  -4.163  0.00  0.00    -0.137 OA
ATOM     37  O   UNL     1       2.328   7.278  -4.053  0.00  0.00    -0.252 OA
BRANCH  35  38
ATOM     38  C   UNL     1       3.516   6.178  -1.819  0.00  0.00    +0.272 C 
ATOM     39 CL   UNL     1       4.239   4.621  -1.306  0.00  0.00    -0.080 Cl
ATOM     40 CL   UNL     1       4.945   7.078  -2.428  0.00  0.00    -0.080 Cl
BRANCH  38  41
ATOM     41  P   UNL     1       2.973   7.049  -0.352  0.00  0.00    +0.156 P 
ATOM     42  O   UNL     1       1.458   6.554   0.172  0.00  0.00    -0.355 OA
ATOM     43  O   UNL     1       4.128   6.670   0.844  0.00  0.00    -0.355 OA
ATOM     44  O   UNL     1       3.067   8.544  -0.548  0.00  0.00    -0.457 OA
ENDBRANCH  38  41
ENDBRANCH  35  38
ENDBRANCH  34  35
ENDBRANCH  31  34
ENDBRANCH  30  31
ENDBRANCH  29  30
ENDBRANCH   6  29
TORSDOF 15
ENDMDL
MODEL 5
REMARK VINA RESULT:      -7.8      6.784      9.595
REMARK  Name = 
REMARK  15 active torsions:
REMARK  status: ('A' for Active; 'I' for Inactive)
REMARK    1  A    between atoms: S_2  and  C_3
REMARK    2  A    between atoms: C_3  and  C_4
REMARK    3  A    between atoms: C_4  and  N_5
REMARK    4  A    between atoms: C_8  and  S_9
REMARK    5  A    between atoms: S_9  and  C_10
REMARK    6  A    between atoms: C_10  and  C_11
REMARK    7  A    between atoms: C_11  and  C_12
REMARK    8  A    between atoms: N_21  and  C_22
REMARK    9  A    between atoms: C_24  and  C_25
REMARK   10  A    between atoms: C_25  and  O_26
REMARK   11  A    between atoms: O_26  and  P_27
REMARK   12  A    between atoms: P_27  and  O_30
REMARK   13  A    between atoms: O_30  and  P_31
REMARK   14  A    between atoms: P_31  and  C_34
REMARK   15  A    between atoms: C_34  and  P_37
REMARK                            x       y       z     vdW  Elec       q    Type
REMARK                         _______ _______ _______ _____ _____    ______ ____
ROOT
ATOM      1  C   UNL     1      -1.863   6.511  -3.983  0.00  0.00    +0.241 C 
ATOM      2  C   UNL     1      -2.184   5.017  -3.217  0.00  0.00    +0.234 C 
ATOM      3  O   UNL     1      -3.627   4.984  -3.617  0.00  0.00    -0.216 OA
ATOM      4  C   UNL     1      -2.406   5.837  -1.751  0.00  0.00    +0.216 C 
ATOM      5  O   UNL     1      -3.468   6.790  -2.233  0.00  0.00    -0.218 OA
ATOM      6  C   UNL     1      -1.249   7.060  -2.051  0.00  0.00    +0.180 C 
ATOM      7  O   UNL     1      -0.570   6.373  -3.202  0.00  0.00    -0.331 OA
ENDROOT
BRANCH   1  13
ATOM      8  N   UNL     1       1.200   5.143  -9.019  0.00  0.00    -0.218 NA
ATOM      9  C   UNL     1       1.174   5.746  -7.744  0.00  0.00    +0.170 A 
ATOM     10  C   UNL     1      -0.013   5.784  -7.046  0.00  0.00    +0.150 A 
ATOM     11  N   UNL     1      -1.210   5.219  -7.330  0.00  0.00    -0.219 NA
ATOM     12  C   UNL     1      -2.033   5.720  -6.378  0.00  0.00    +0.182 A 
ATOM     13  N   UNL     1      -1.260   5.800  -5.261  0.00  0.00    -0.269 N 
ATOM     14  C   UNL     1      -0.126   6.344  -5.778  0.00  0.00    +0.169 A 
ATOM     15  N   UNL     1       0.996   6.839  -5.205  0.00  0.00    -0.202 NA
ATOM     16  C   UNL     1       2.158   6.778  -5.897  0.00  0.00    +0.193 A 
ATOM     17  N   UNL     1       2.199   6.430  -7.205  0.00  0.00    -0.203 NA
BRANCH   8  18
ATOM     18  C   UNL     1      -0.004   5.161  -9.846  0.00  0.00    +0.125 C 
BRANCH  18  19
ATOM     19  C   UNL     1       0.405   5.301 -11.282  0.00  0.00    +0.081 C 
BRANCH  19  21
ATOM     20  C   UNL     1       2.733   5.798 -12.553  0.00  0.00    +0.069 C 
ATOM     21  S   UNL     1       2.037   6.019 -11.510  0.00  0.00    -0.137 S 
ENDBRANCH  19  21
ENDBRANCH  18  19
ENDBRANCH   8  18
BRANCH  16  22
ATOM     22  S   UNL     1       3.709   7.106  -5.070  0.00  0.00    -0.075 S 
BRANCH  22  23
ATOM     23  C   UNL     1       3.340   7.326  -3.309  0.00  0.00    +0.074 C 
BRANCH  23  24
ATOM     24  C   UNL     1       4.417   6.599  -2.514  0.00  0.00    +0.115 C 
BRANCH  24  25
ATOM     25  C   UNL     1       3.951   5.171  -2.380  0.00  0.00    +0.399 C 
ATOM     26  F   UNL     1       4.481   4.674  -1.207  0.00  0.00    -0.170 F 
ATOM     27  F   UNL     1       2.578   5.158  -2.318  0.00  0.00    -0.170 F 
ATOM     28  F   UNL     1       4.427   4.473  -3.459  0.00  0.00    -0.170 F 
ENDBRANCH  24  25
ENDBRANCH  23  24
ENDBRANCH  22  23
ENDBRANCH  16  22
ENDBRANCH   1  13
BRANCH   6  29
ATOM     29  C   UNL     1      -0.167   6.495  -0.965  0.00  0.00    +0.181 C 
BRANCH  29  30
ATOM     30  O   UNL     1       0.236   7.331  -0.071  0.00  0.00    -0.311 OA
BRANCH  30  31
ATOM     31  P   UNL     1      -0.585   7.943   1.166  0.00  0.00    +0.221 P 
ATOM     32  O   UNL     1      -1.751   6.779   1.603  0.00  0.00    -0.437 OA
ATOM     33  O   UNL     1      -1.178   9.268   0.785  0.00  0.00    -0.517 OA
BRANCH  31  34
ATOM     34  O   UNL     1       0.198   8.307   2.606  0.00  0.00    -0.247 OA
BRANCH  34  35
ATOM     35  P   UNL     1       1.301   9.536   2.280  0.00  0.00    +0.407 P 
ATOM     36  O   UNL     1       1.093  10.204   0.725  0.00  0.00    -0.137 OA
ATOM     37  O   UNL     1       0.888  10.673   3.210  0.00  0.00    -0.252 OA
BRANCH  35  38
ATOM     38  C   UNL     1       3.013   9.122   2.382  0.00  0.00    +0.272 C 
ATOM     39 CL   UNL     1       4.081  10.477   2.865  0.00  0.00    -0.080 Cl
ATOM     40 CL   UNL     1       3.212   7.976   3.750  0.00  0.00    -0.080 Cl
BRANCH  38  41
ATOM     41  P   UNL     1       3.741   8.320   0.957  0.00  0.00    +0.156 P 
ATOM     42  O   UNL     1       3.783   9.313  -0.395  0.00  0.00    -0.355 OA
ATOM     43  O   UNL     1       5.339   7.946   1.424  0.00  0.00    -0.355 OA
ATOM     44  O   UNL     1       3.076   6.990   0.689  0.00  0.00    -0.457 OA
ENDBRANCH  38  41
ENDBRANCH  35  38
ENDBRANCH  34  35
ENDBRANCH  31  34
ENDBRANCH  30  31
ENDBRANCH  29  30
ENDBRANCH   6  29
TORSDOF 15
ENDMDL
MODEL 6
REMARK VINA RESULT:      -7.6      6.796     10.401
REMARK  Name = 
REMARK  15 active torsions:
REMARK  status: ('A' for Active; 'I' for Inactive)
REMARK    1  A    between atoms: S_2  and  C_3
REMARK    2  A    between atoms: C_3  and  C_4
REMARK    3  A    between atoms: C_4  and  N_5
REMARK    4  A    between atoms: C_8  and  S_9
REMARK    5  A    between atoms: S_9  and  C_10
REMARK    6  A    between atoms: C_10  and  C_11
REMARK    7  A    between atoms: C_11  and  C_12
REMARK    8  A    between atoms: N_21  and  C_22
REMARK    9  A    between atoms: C_24  and  C_25
REMARK   10  A    between atoms: C_25  and  O_26
REMARK   11  A    between atoms: O_26  and  P_27
REMARK   12  A    between atoms: P_27  and  O_30
REMARK   13  A    between atoms: O_30  and  P_31
REMARK   14  A    between atoms: P_31  and  C_34
REMARK   15  A    between atoms: C_34  and  P_37
REMARK                            x       y       z     vdW  Elec       q    Type
REMARK                         _______ _______ _______ _____ _____    ______ ____
ROOT
ATOM      1  C   UNL     1       3.002   5.125  -2.856  0.00  0.00    +0.241 C 
ATOM      2  C   UNL     1       3.465   6.703  -2.387  0.00  0.00    +0.234 C 
ATOM      3  O   UNL     1       4.872   6.319  -2.046  0.00  0.00    -0.216 OA
ATOM      4  C   UNL     1       2.807   6.420  -0.852  0.00  0.00    +0.216 C 
ATOM      5  O   UNL     1       3.596   5.176  -0.540  0.00  0.00    -0.218 OA
ATOM      6  C   UNL     1       1.532   5.414  -1.384  0.00  0.00    +0.180 C 
ATOM      7  O   UNL     1       1.629   5.770  -2.841  0.00  0.00    -0.331 OA
ENDROOT
BRANCH   1  13
ATOM      8  N   UNL     1       2.755   5.260  -8.901  0.00  0.00    -0.218 NA
ATOM      9  C   UNL     1       2.083   5.173  -7.663  0.00  0.00    +0.170 A 
ATOM     10  C   UNL     1       2.824   5.110  -6.504  0.00  0.00    +0.150 A 
ATOM     11  N   UNL     1       4.159   5.232  -6.313  0.00  0.00    -0.219 NA
ATOM     12  C   UNL     1       4.323   4.930  -5.003  0.00  0.00    +0.182 A 
ATOM     13  N   UNL     1       3.224   5.447  -4.389  0.00  0.00    -0.269 N 
ATOM     14  C   UNL     1       2.245   5.038  -5.241  0.00  0.00    +0.169 A 
ATOM     15  N   UNL     1       0.894   5.065  -5.164  0.00  0.00    -0.202 NA
ATOM     16  C   UNL     1       0.181   5.146  -6.312  0.00  0.00    +0.193 A 
ATOM     17  N   UNL     1       0.758   4.995  -7.528  0.00  0.00    -0.203 NA
BRANCH   8  18
ATOM     18  C   UNL     1       4.078   4.658  -9.043  0.00  0.00    +0.125 C 
BRANCH  18  19
ATOM     19  C   UNL     1       4.659   5.086 -10.358  0.00  0.00    +0.081 C 
BRANCH  19  21
ATOM     20  C   UNL     1       5.584   7.564 -10.894  0.00  0.00    +0.069 C 
ATOM     21  S   UNL     1       4.552   6.855 -10.662  0.00  0.00    -0.137 S 
ENDBRANCH  19  21
ENDBRANCH  18  19
ENDBRANCH   8  18
BRANCH  16  22
ATOM     22  S   UNL     1      -1.567   5.518  -6.256  0.00  0.00    -0.075 S 
BRANCH  22  23
ATOM     23  C   UNL     1      -1.872   6.414  -4.710  0.00  0.00    +0.074 C 
BRANCH  23  24
ATOM     24  C   UNL     1      -2.581   5.463  -3.754  0.00  0.00    +0.115 C 
BRANCH  24  25
ATOM     25  C   UNL     1      -3.061   6.305  -2.598  0.00  0.00    +0.399 C 
ATOM     26  F   UNL     1      -2.446   7.536  -2.703  0.00  0.00    -0.170 F 
ATOM     27  F   UNL     1      -4.424   6.452  -2.693  0.00  0.00    -0.170 F 
ATOM     28  F   UNL     1      -2.688   5.675  -1.439  0.00  0.00    -0.170 F 
ENDBRANCH  24  25
ENDBRANCH  23  24
ENDBRANCH  22  23
ENDBRANCH  16  22
ENDBRANCH   1  13
BRANCH   6  29
ATOM     29  C   UNL     1       0.360   6.517  -1.106  0.00  0.00    +0.181 C 
BRANCH  29  30
ATOM     30  O   UNL     1       0.118   6.794   0.130  0.00  0.00    -0.311 OA
BRANCH  30  31
ATOM     31  P   UNL     1      -0.494   8.143   0.749  0.00  0.00    +0.221 P 
ATOM     32  O   UNL     1      -0.930   7.790   2.358  0.00  0.00    -0.437 OA
ATOM     33  O   UNL     1      -1.645   8.619  -0.090  0.00  0.00    -0.517 OA
BRANCH  31  34
ATOM     34  O   UNL     1       0.450   9.526   0.869  0.00  0.00    -0.247 OA
BRANCH  34  35
ATOM     35  P   UNL     1       1.686   9.196   1.964  0.00  0.00    +0.407 P 
ATOM     36  O   UNL     1       1.249   9.561   3.570  0.00  0.00    -0.137 OA
ATOM     37  O   UNL     1       1.795   7.674   1.964  0.00  0.00    -0.252 OA
BRANCH  35  38
ATOM     38  C   UNL     1       3.225  10.019   1.703  0.00  0.00    +0.272 C 
ATOM     39 CL   UNL     1       3.501  10.570   0.021  0.00  0.00    -0.080 Cl
ATOM     40 CL   UNL     1       3.168  11.570   2.606  0.00  0.00    -0.080 Cl
BRANCH  38  41
ATOM     41  P   UNL     1       4.702   9.177   2.262  0.00  0.00    +0.156 P 
ATOM     42  O   UNL     1       4.498   8.427   3.748  0.00  0.00    -0.355 OA
ATOM     43  O   UNL     1       5.013   7.990   1.076  0.00  0.00    -0.355 OA
ATOM     44  O   UNL     1       5.895  10.104   2.230  0.00  0.00    -0.457 OA
ENDBRANCH  38  41
ENDBRANCH  35  38
ENDBRANCH  34  35
ENDBRANCH  31  34
ENDBRANCH  30  31
ENDBRANCH  29  30
ENDBRANCH   6  29
TORSDOF 15
ENDMDL
MODEL 7
REMARK VINA RESULT:      -7.6      6.593     10.756
REMARK  Name = 
REMARK  15 active torsions:
REMARK  status: ('A' for Active; 'I' for Inactive)
REMARK    1  A    between atoms: S_2  and  C_3
REMARK    2  A    between atoms: C_3  and  C_4
REMARK    3  A    between atoms: C_4  and  N_5
REMARK    4  A    between atoms: C_8  and  S_9
REMARK    5  A    between atoms: S_9  and  C_10
REMARK    6  A    between atoms: C_10  and  C_11
REMARK    7  A    between atoms: C_11  and  C_12
REMARK    8  A    between atoms: N_21  and  C_22
REMARK    9  A    between atoms: C_24  and  C_25
REMARK   10  A    between atoms: C_25  and  O_26
REMARK   11  A    between atoms: O_26  and  P_27
REMARK   12  A    between atoms: P_27  and  O_30
REMARK   13  A    between atoms: O_30  and  P_31
REMARK   14  A    between atoms: P_31  and  C_34
REMARK   15  A    between atoms: C_34  and  P_37
REMARK                            x       y       z     vdW  Elec       q    Type
REMARK                         _______ _______ _______ _____ _____    ______ ____
ROOT
ATOM      1  C   UNL     1       2.872   5.269  -4.124  0.00  0.00    +0.241 C 
ATOM      2  C   UNL     1       4.359   6.110  -4.191  0.00  0.00    +0.234 C 
ATOM      3  O   UNL     1       5.175   4.888  -4.490  0.00  0.00    -0.216 OA
ATOM      4  C   UNL     1       4.471   6.011  -2.503  0.00  0.00    +0.216 C 
ATOM      5  O   UNL     1       4.346   4.513  -2.398  0.00  0.00    -0.218 OA
ATOM      6  C   UNL     1       2.791   6.118  -2.204  0.00  0.00    +0.180 C 
ATOM      7  O   UNL     1       2.405   6.603  -3.573  0.00  0.00    -0.331 OA
ENDROOT
BRANCH   1  13
ATOM      8  N   UNL     1       0.379   5.695  -9.621  0.00  0.00    -0.218 NA
ATOM      9  C   UNL     1       0.219   5.546  -8.226  0.00  0.00    +0.170 A 
ATOM     10  C   UNL     1       1.339   5.429  -7.434  0.00  0.00    +0.150 A 
ATOM     11  N   UNL     1       2.650   5.545  -7.753  0.00  0.00    -0.219 NA
ATOM     12  C   UNL     1       3.289   5.180  -6.615  0.00  0.00    +0.182 A 
ATOM     13  N   UNL     1       2.508   5.664  -5.611  0.00  0.00    -0.269 N 
ATOM     14  C   UNL     1       1.275   5.295  -6.051  0.00  0.00    +0.169 A 
ATOM     15  N   UNL     1       0.052   5.315  -5.471  0.00  0.00    -0.202 NA
ATOM     16  C   UNL     1      -1.039   5.449  -6.263  0.00  0.00    +0.193 A 
ATOM     17  N   UNL     1      -0.962   5.359  -7.612  0.00  0.00    -0.203 NA
BRANCH   8  18
ATOM     18  C   UNL     1       1.542   5.104 -10.276  0.00  0.00    +0.125 C 
BRANCH  18  19
ATOM     19  C   UNL     1       2.093   6.096 -11.257  0.00  0.00    +0.081 C 
BRANCH  19  21
ATOM     20  C   UNL     1       1.279   6.707 -13.756  0.00  0.00    +0.069 C 
ATOM     21  S   UNL     1       0.929   6.579 -12.538  0.00  0.00    -0.137 S 
ENDBRANCH  19  21
ENDBRANCH  18  19
ENDBRANCH   8  18
BRANCH  16  22
ATOM     22  S   UNL     1      -2.631   5.814  -5.537  0.00  0.00    -0.075 S 
BRANCH  22  23
ATOM     23  C   UNL     1      -2.522   5.402  -3.775  0.00  0.00    +0.074 C 
BRANCH  23  24
ATOM     24  C   UNL     1      -3.106   6.569  -2.988  0.00  0.00    +0.115 C 
BRANCH  24  25
ATOM     25  C   UNL     1      -1.959   7.509  -2.714  0.00  0.00    +0.399 C 
ATOM     26  F   UNL     1      -2.022   8.520  -3.650  0.00  0.00    -0.170 F 
ATOM     27  F   UNL     1      -2.106   8.029  -1.450  0.00  0.00    -0.170 F 
ATOM     28  F   UNL     1      -0.795   6.797  -2.847  0.00  0.00    -0.170 F 
ENDBRANCH  24  25
ENDBRANCH  23  24
ENDBRANCH  22  23
ENDBRANCH  16  22
ENDBRANCH   1  13
BRANCH   6  29
ATOM     29  C   UNL     1       2.856   7.632  -1.594  0.00  0.00    +0.181 C 
BRANCH  29  30
ATOM     30  O   UNL     1       2.495   7.769  -0.365  0.00  0.00    -0.311 OA
BRANCH  30  31
ATOM     31  P   UNL     1       3.421   7.869   0.943  0.00  0.00    +0.221 P 
ATOM     32  O   UNL     1       4.285   9.333   0.820  0.00  0.00    -0.437 OA
ATOM     33  O   UNL     1       4.306   6.661   1.041  0.00  0.00    -0.517 OA
BRANCH  31  34
ATOM     34  O   UNL     1       2.728   7.923   2.471  0.00  0.00    -0.247 OA
BRANCH  34  35
ATOM     35  P   UNL     1       1.291   8.792   2.340  0.00  0.00    +0.407 P 
ATOM     36  O   UNL     1       1.050   9.854   3.651  0.00  0.00    -0.137 OA
ATOM     37  O   UNL     1       1.523   9.733   1.161  0.00  0.00    -0.252 OA
BRANCH  35  38
ATOM     38  C   UNL     1      -0.200   7.856   2.220  0.00  0.00    +0.272 C 
ATOM     39 CL   UNL     1      -0.287   6.771   0.797  0.00  0.00    -0.080 Cl
ATOM     40 CL   UNL     1      -0.220   6.693   3.587  0.00  0.00    -0.080 Cl
BRANCH  38  41
ATOM     41  P   UNL     1      -1.740   8.764   2.321  0.00  0.00    +0.156 P 
ATOM     42  O   UNL     1      -1.655  10.269   1.586  0.00  0.00    -0.355 OA
ATOM     43  O   UNL     1      -2.880   7.802   1.493  0.00  0.00    -0.355 OA
ATOM     44  O   UNL     1      -2.229   8.834   3.749  0.00  0.00    -0.457 OA
ENDBRANCH  38  41
ENDBRANCH  35  38
ENDBRANCH  34  35
ENDBRANCH  31  34
ENDBRANCH  30  31
ENDBRANCH  29  30
ENDBRANCH   6  29
TORSDOF 15
ENDMDL
MODEL 8
REMARK VINA RESULT:      -7.5      6.501     10.330
REMARK  Name = 
REMARK  15 active torsions:
REMARK  status: ('A' for Active; 'I' for Inactive)
REMARK    1  A    between atoms: S_2  and  C_3
REMARK    2  A    between atoms: C_3  and  C_4
REMARK    3  A    between atoms: C_4  and  N_5
REMARK    4  A    between atoms: C_8  and  S_9
REMARK    5  A    between atoms: S_9  and  C_10
REMARK    6  A    between atoms: C_10  and  C_11
REMARK    7  A    between atoms: C_11  and  C_12
REMARK    8  A    between atoms: N_21  and  C_22
REMARK    9  A    between atoms: C_24  and  C_25
REMARK   10  A    between atoms: C_25  and  O_26
REMARK   11  A    between atoms: O_26  and  P_27
REMARK   12  A    between atoms: P_27  and  O_30
REMARK   13  A    between atoms: O_30  and  P_31
REMARK   14  A    between atoms: P_31  and  C_34
REMARK   15  A    between atoms: C_34  and  P_37
REMARK                            x       y       z     vdW  Elec       q    Type
REMARK                         _______ _______ _______ _____ _____    ______ ____
ROOT
ATOM      1  C   UNL     1       0.908   6.137  -7.232  0.00  0.00    +0.241 C 
ATOM      2  C   UNL     1       0.271   4.648  -6.686  0.00  0.00    +0.234 C 
ATOM      3  O   UNL     1      -1.149   5.125  -6.664  0.00  0.00    -0.216 OA
ATOM      4  C   UNL     1       0.650   5.090  -5.095  0.00  0.00    +0.216 C 
ATOM      5  O   UNL     1      -0.105   6.393  -5.081  0.00  0.00    -0.218 OA
ATOM      6  C   UNL     1       2.061   5.974  -5.484  0.00  0.00    +0.180 C 
ATOM      7  O   UNL     1       2.212   5.446  -6.883  0.00  0.00    -0.331 OA
ENDROOT
BRANCH   1  13
ATOM      8  N   UNL     1       2.019   5.471 -13.143  0.00  0.00    -0.218 NA
ATOM      9  C   UNL     1       2.490   5.784 -11.850  0.00  0.00    +0.170 A 
ATOM     10  C   UNL     1       1.593   5.835 -10.807  0.00  0.00    +0.150 A 
ATOM     11  N   UNL     1       0.277   5.517 -10.770  0.00  0.00    -0.219 NA
ATOM     12  C   UNL     1      -0.113   5.911  -9.534  0.00  0.00    +0.182 A 
ATOM     13  N   UNL     1       0.954   5.640  -8.733  0.00  0.00    -0.269 N 
ATOM     14  C   UNL     1       1.971   6.120  -9.499  0.00  0.00    +0.169 A 
ATOM     15  N   UNL     1       3.287   6.320  -9.252  0.00  0.00    -0.202 NA
ATOM     16  C   UNL     1       4.159   6.247 -10.286  0.00  0.00    +0.193 A 
ATOM     17  N   UNL     1       3.743   6.186 -11.574  0.00  0.00    -0.203 NA
BRANCH   8  18
ATOM     18  C   UNL     1       0.655   5.834 -13.517  0.00  0.00    +0.125 C 
BRANCH  18  19
ATOM     19  C   UNL     1       0.620   6.109 -14.991  0.00  0.00    +0.081 C 
BRANCH  19  21
ATOM     20  C   UNL     1       0.648   8.643 -15.918  0.00  0.00    +0.069 C 
ATOM     21  S   UNL     1       1.349   7.684 -15.457  0.00  0.00    -0.137 S 
ENDBRANCH  19  21
ENDBRANCH  18  19
ENDBRANCH   8  18
BRANCH  16  22
ATOM     22  S   UNL     1       5.917   6.171  -9.970  0.00  0.00    -0.075 S 
BRANCH  22  23
ATOM     23  C   UNL     1       6.703   7.415 -11.029  0.00  0.00    +0.074 C 
BRANCH  23  24
ATOM     24  C   UNL     1       7.044   6.748 -12.356  0.00  0.00    +0.115 C 
BRANCH  24  25
ATOM     25  C   UNL     1       8.282   5.923 -12.108  0.00  0.00    +0.399 C 
ATOM     26  F   UNL     1       7.900   4.598 -12.097  0.00  0.00    -0.170 F 
ATOM     27  F   UNL     1       9.173   6.146 -13.131  0.00  0.00    -0.170 F 
ATOM     28  F   UNL     1       8.792   6.290 -10.890  0.00  0.00    -0.170 F 
ENDBRANCH  24  25
ENDBRANCH  23  24
ENDBRANCH  22  23
ENDBRANCH  16  22
ENDBRANCH   1  13
BRANCH   6  29
ATOM     29  C   UNL     1       3.091   4.868  -4.865  0.00  0.00    +0.181 C 
BRANCH  29  30
ATOM     30  O   UNL     1       3.800   5.248  -3.857  0.00  0.00    -0.311 OA
BRANCH  30  31
ATOM     31  P   UNL     1       4.281   6.732  -3.479  0.00  0.00    +0.221 P 
ATOM     32  O   UNL     1       2.877   7.694  -3.388  0.00  0.00    -0.437 OA
ATOM     33  O   UNL     1       5.277   7.224  -4.488  0.00  0.00    -0.517 OA
BRANCH  31  34
ATOM     34  O   UNL     1       5.077   7.022  -2.029  0.00  0.00    -0.247 OA
BRANCH  34  35
ATOM     35  P   UNL     1       3.986   6.703  -0.786  0.00  0.00    +0.407 P 
ATOM     36  O   UNL     1       2.567   5.941  -1.343  0.00  0.00    -0.137 OA
ATOM     37  O   UNL     1       4.665   5.620   0.046  0.00  0.00    -0.252 OA
BRANCH  35  38
ATOM     38  C   UNL     1       3.429   8.084   0.162  0.00  0.00    +0.272 C 
ATOM     39 CL   UNL     1       3.528   9.659  -0.686  0.00  0.00    -0.080 Cl
ATOM     40 CL   UNL     1       1.661   7.894   0.406  0.00  0.00    -0.080 Cl
BRANCH  38  41
ATOM     41  P   UNL     1       4.134   8.286   1.795  0.00  0.00    +0.156 P 
ATOM     42  O   UNL     1       5.805   8.140   1.802  0.00  0.00    -0.355 OA
ATOM     43  O   UNL     1       3.711   9.869   2.270  0.00  0.00    -0.355 OA
ATOM     44  O   UNL     1       3.460   7.370   2.789  0.00  0.00    -0.457 OA
ENDBRANCH  38  41
ENDBRANCH  35  38
ENDBRANCH  34  35
ENDBRANCH  31  34
ENDBRANCH  30  31
ENDBRANCH  29  30
ENDBRANCH   6  29
TORSDOF 15
ENDMDL
MODEL 9
REMARK VINA RESULT:      -7.4      3.175      4.938
REMARK  Name = 
REMARK  15 active torsions:
REMARK  status: ('A' for Active; 'I' for Inactive)
REMARK    1  A    between atoms: S_2  and  C_3
REMARK    2  A    between atoms: C_3  and  C_4
REMARK    3  A    between atoms: C_4  and  N_5
REMARK    4  A    between atoms: C_8  and  S_9
REMARK    5  A    between atoms: S_9  and  C_10
REMARK    6  A    between atoms: C_10  and  C_11
REMARK    7  A    between atoms: C_11  and  C_12
REMARK    8  A    between atoms: N_21  and  C_22
REMARK    9  A    between atoms: C_24  and  C_25
REMARK   10  A    between atoms: C_25  and  O_26
REMARK   11  A    between atoms: O_26  and  P_27
REMARK   12  A    between atoms: P_27  and  O_30
REMARK   13  A    between atoms: O_30  and  P_31
REMARK   14  A    between atoms: P_31  and  C_34
REMARK   15  A    between atoms: C_34  and  P_37
REMARK                            x       y       z     vdW  Elec       q    Type
REMARK                         _______ _______ _______ _____ _____    ______ ____
ROOT
ATOM      1  C   UNL     1       2.785   7.219  -1.535  0.00  0.00    +0.241 C 
ATOM      2  C   UNL     1       3.614   5.730  -1.403  0.00  0.00    +0.234 C 
ATOM      3  O   UNL     1       4.739   6.290  -0.587  0.00  0.00    -0.216 OA
ATOM      4  C   UNL     1       4.316   6.007  -2.920  0.00  0.00    +0.216 C 
ATOM      5  O   UNL     1       4.923   7.347  -2.600  0.00  0.00    -0.218 OA
ATOM      6  C   UNL     1       2.978   6.832  -3.591  0.00  0.00    +0.180 C 
ATOM      7  O   UNL     1       1.981   6.421  -2.544  0.00  0.00    -0.331 OA
ENDROOT
BRANCH   1  13
ATOM      8  N   UNL     1      -1.845   6.916   2.349  0.00  0.00    -0.218 NA
ATOM      9  C   UNL     1      -1.385   7.042   1.021  0.00  0.00    +0.170 A 
ATOM     10  C   UNL     1      -0.030   7.133   0.789  0.00  0.00    +0.150 A 
ATOM     11  N   UNL     1       1.012   7.009   1.644  0.00  0.00    -0.219 NA
ATOM     12  C   UNL     1       2.086   7.347   0.891  0.00  0.00    +0.182 A 
ATOM     13  N   UNL     1       1.807   6.854  -0.346  0.00  0.00    -0.269 N 
ATOM     14  C   UNL     1       0.512   7.244  -0.487  0.00  0.00    +0.169 A 
ATOM     15  N   UNL     1      -0.341   7.226  -1.538  0.00  0.00    -0.202 NA
ATOM     16  C   UNL     1      -1.668   7.117  -1.294  0.00  0.00    +0.193 A 
ATOM     17  N   UNL     1      -2.181   7.230  -0.045  0.00  0.00    -0.203 NA
BRANCH   8  18
ATOM     18  C   UNL     1      -1.069   7.506   3.436  0.00  0.00    +0.125 C 
BRANCH  18  19
ATOM     19  C   UNL     1      -1.638   8.858   3.750  0.00  0.00    +0.081 C 
BRANCH  19  21
ATOM     20  C   UNL     1       0.533  10.301   3.053  0.00  0.00    +0.069 C 
ATOM     21  S   UNL     1      -0.737  10.221   3.001  0.00  0.00    -0.137 S 
ENDBRANCH  19  21
ENDBRANCH  18  19
ENDBRANCH   8  18
BRANCH  16  22
ATOM     22  S   UNL     1      -2.797   6.756  -2.633  0.00  0.00    -0.075 S 
BRANCH  22  23
ATOM     23  C   UNL     1      -2.073   7.448  -4.143  0.00  0.00    +0.074 C 
BRANCH  23  24
ATOM     24  C   UNL     1      -2.936   7.004  -5.318  0.00  0.00    +0.115 C 
BRANCH  24  25
ATOM     25  C   UNL     1      -2.440   5.634  -5.711  0.00  0.00    +0.399 C 
ATOM     26  F   UNL     1      -1.195   5.467  -5.141  0.00  0.00    -0.170 F 
ATOM     27  F   UNL     1      -3.311   4.691  -5.221  0.00  0.00    -0.170 F 
ATOM     28  F   UNL     1      -2.355   5.598  -7.079  0.00  0.00    -0.170 F 
ENDBRANCH  24  25
ENDBRANCH  23  24
ENDBRANCH  22  23
ENDBRANCH  16  22
ENDBRANCH   1  13
BRANCH   6  29
ATOM     29  C   UNL     1       2.553   5.615  -4.594  0.00  0.00    +0.181 C 
BRANCH  29  30
ATOM     30  O   UNL     1       2.442   5.916  -5.842  0.00  0.00    -0.311 OA
BRANCH  30  31
ATOM     31  P   UNL     1       2.074   4.952  -7.072  0.00  0.00    +0.221 P 
ATOM     32  O   UNL     1       0.534   5.431  -7.625  0.00  0.00    -0.437 OA
ATOM     33  O   UNL     1       2.132   3.517  -6.637  0.00  0.00    -0.517 OA
BRANCH  31  34
ATOM     34  O   UNL     1       3.026   4.940  -8.455  0.00  0.00    -0.247 OA
BRANCH  34  35
ATOM     35  P   UNL     1       2.497   6.201  -9.439  0.00  0.00    +0.407 P 
ATOM     36  O   UNL     1       1.756   7.454  -8.551  0.00  0.00    -0.137 OA
ATOM     37  O   UNL     1       3.781   6.845  -9.953  0.00  0.00    -0.252 OA
BRANCH  35  38
ATOM     38  C   UNL     1       1.347   5.793 -10.713  0.00  0.00    +0.272 C 
ATOM     39 CL   UNL     1       0.515   4.222 -10.491  0.00  0.00    -0.080 Cl
ATOM     40 CL   UNL     1      -0.012   6.961 -10.610  0.00  0.00    -0.080 Cl
BRANCH  38  41
ATOM     41  P   UNL     1       1.941   5.874 -12.400  0.00  0.00    +0.156 P 
ATOM     42  O   UNL     1       3.573   5.510 -12.531  0.00  0.00    -0.355 OA
ATOM     43  O   UNL     1       1.037   4.701 -13.247  0.00  0.00    -0.355 OA
ATOM     44  O   UNL     1       1.582   7.198 -13.034  0.00  0.00    -0.457 OA
ENDBRANCH  38  41
ENDBRANCH  35  38
ENDBRANCH  34  35
ENDBRANCH  31  34
ENDBRANCH  30  31
ENDBRANCH  29  30
ENDBRANCH   6  29
TORSDOF 15
ENDMDL
