MODEL 1
REMARK VINA RESULT:      -6.8      0.000      0.000
REMARK  Name = 
REMARK  6 active torsions:
REMARK  status: ('A' for Active; 'I' for Inactive)
REMARK    1  A    between atoms: N_2  and  C_4
REMARK    2  A    between atoms: C_4  and  C_5
REMARK    3  A    between atoms: C_5  and  O_6
REMARK    4  A    between atoms: O_6  and  C_7
REMARK    5  A    between atoms: C_7  and  C_9
REMARK    6  A    between atoms: C_7  and  C_15
REMARK                            x       y       z     vdW  Elec       q    Type
REMARK                         _______ _______ _______ _____ _____    ______ ____
ROOT
ATOM      1  C   UNL     1       1.424   5.984  -6.344  0.00  0.00    +0.146 C 
ATOM      2  C   UNL     1       1.543   7.126  -7.316  0.00  0.00    +0.040 C 
ENDROOT
BRANCH   1   3
ATOM      3  C   UNL     1       2.509   6.006  -5.334  0.00  0.00    +0.007 A 
ATOM      4  C   UNL     1       2.869   4.804  -4.765  0.00  0.00    -0.002 A 
ATOM      5  C   UNL     1       4.069   4.789  -4.067  0.00  0.00    -0.000 A 
ATOM      6  C   UNL     1       5.017   5.780  -4.247  0.00  0.00    -0.000 A 
ATOM      7  C   UNL     1       4.668   6.968  -4.866  0.00  0.00    -0.000 A 
ATOM      8  C   UNL     1       3.359   7.075  -5.312  0.00  0.00    -0.002 A 
ENDBRANCH   1   3
BRANCH   1   9
ATOM      9  C   UNL     1       0.144   6.119  -5.586  0.00  0.00    +0.087 A 
ATOM     10  N   UNL     1      -0.111   7.220  -4.867  0.00  0.00    -0.246 NA
ATOM     11  C   UNL     1      -1.387   7.619  -4.647  0.00  0.00    +0.099 A 
ATOM     12  C   UNL     1      -2.423   7.148  -5.440  0.00  0.00    +0.021 A 
ATOM     13  C   UNL     1      -2.233   5.933  -6.053  0.00  0.00    +0.003 A 
ATOM     14  C   UNL     1      -0.958   5.423  -6.064  0.00  0.00    +0.017 A 
ENDBRANCH   1   9
BRANCH   1  15
ATOM     15  O   UNL     1       1.365   4.774  -7.023  0.00  0.00    -0.347 OA
BRANCH  15  16
ATOM     16  C   UNL     1       1.898   5.010  -8.299  0.00  0.00    +0.160 C 
BRANCH  16  17
ATOM     17  C   UNL     1       2.897   3.928  -8.630  0.00  0.00    +0.105 C 
BRANCH  17  19
ATOM     18  C   UNL     1       4.883   5.165  -8.212  0.00  0.00    +0.090 C 
ATOM     19  N   UNL     1       4.098   4.479  -9.206  0.00  0.00    -0.268 NA
ATOM     20  C   UNL     1       3.740   5.355 -10.308  0.00  0.00    +0.090 C 
ENDBRANCH  17  19
ENDBRANCH  16  17
ENDBRANCH  15  16
ENDBRANCH   1  15
TORSDOF 6
ENDMDL
MODEL 2
REMARK VINA RESULT:      -6.6      2.836      5.540
REMARK  Name = 
REMARK  6 active torsions:
REMARK  status: ('A' for Active; 'I' for Inactive)
REMARK    1  A    between atoms: N_2  and  C_4
REMARK    2  A    between atoms: C_4  and  C_5
REMARK    3  A    between atoms: C_5  and  O_6
REMARK    4  A    between atoms: O_6  and  C_7
REMARK    5  A    between atoms: C_7  and  C_9
REMARK    6  A    between atoms: C_7  and  C_15
REMARK                            x       y       z     vdW  Elec       q    Type
REMARK                         _______ _______ _______ _____ _____    ______ ____
ROOT
ATOM      1  C   UNL     1       3.704   5.793  -9.309  0.00  0.00    +0.146 C 
ATOM      2  C   UNL     1       3.618   4.328  -8.979  0.00  0.00    +0.040 C 
ENDROOT
BRANCH   1   3
ATOM      3  C   UNL     1       4.962   6.125 -10.020  0.00  0.00    +0.007 A 
ATOM      4  C   UNL     1       4.996   7.307 -10.727  0.00  0.00    -0.002 A 
ATOM      5  C   UNL     1       6.252   7.749 -11.122  0.00  0.00    -0.000 A 
ATOM      6  C   UNL     1       7.404   7.263 -10.532  0.00  0.00    -0.000 A 
ATOM      7  C   UNL     1       7.360   6.103  -9.777  0.00  0.00    -0.000 A 
ATOM      8  C   UNL     1       6.116   5.508  -9.628  0.00  0.00    -0.002 A 
ENDBRANCH   1   3
BRANCH   1   9
ATOM      9  C   UNL     1       2.591   6.151 -10.238  0.00  0.00    +0.087 A 
ATOM     10  N   UNL     1       2.451   5.519 -11.410  0.00  0.00    -0.246 NA
ATOM     11  C   UNL     1       1.232   5.402 -11.989  0.00  0.00    +0.099 A 
ATOM     12  C   UNL     1       0.074   5.584 -11.247  0.00  0.00    +0.021 A 
ATOM     13  C   UNL     1       0.174   6.372 -10.125  0.00  0.00    +0.003 A 
ATOM     14  C   UNL     1       1.436   6.680  -9.679  0.00  0.00    +0.017 A 
ENDBRANCH   1   9
BRANCH   1  15
ATOM     15  O   UNL     1       3.533   6.559  -8.162  0.00  0.00    -0.347 OA
BRANCH  15  16
ATOM     16  C   UNL     1       3.529   5.661  -7.084  0.00  0.00    +0.160 C 
BRANCH  16  17
ATOM     17  C   UNL     1       4.473   6.160  -6.016  0.00  0.00    +0.105 C 
BRANCH  17  19
ATOM     18  C   UNL     1       4.832   7.770  -4.305  0.00  0.00    +0.090 C 
ATOM     19  N   UNL     1       3.910   7.274  -5.295  0.00  0.00    -0.268 NA
ATOM     20  C   UNL     1       2.649   6.868  -4.699  0.00  0.00    +0.090 C 
ENDBRANCH  17  19
ENDBRANCH  16  17
ENDBRANCH  15  16
ENDBRANCH   1  15
TORSDOF 6
ENDMDL
MODEL 3
REMARK VINA RESULT:      -6.6      1.910      4.827
REMARK  Name = 
REMARK  6 active torsions:
REMARK  status: ('A' for Active; 'I' for Inactive)
REMARK    1  A    between atoms: N_2  and  C_4
REMARK    2  A    between atoms: C_4  and  C_5
REMARK    3  A    between atoms: C_5  and  O_6
REMARK    4  A    between atoms: O_6  and  C_7
REMARK    5  A    between atoms: C_7  and  C_9
REMARK    6  A    between atoms: C_7  and  C_15
REMARK                            x       y       z     vdW  Elec       q    Type
REMARK                         _______ _______ _______ _____ _____    ______ ____
ROOT
ATOM      1  C   UNL     1       1.430   5.852  -6.279  0.00  0.00    +0.146 C 
ATOM      2  C   UNL     1       1.650   4.439  -6.745  0.00  0.00    +0.040 C 
ENDROOT
BRANCH   1   3
ATOM      3  C   UNL     1       0.065   6.046  -5.735  0.00  0.00    +0.007 A 
ATOM      4  C   UNL     1      -0.180   7.210  -5.039  0.00  0.00    -0.002 A 
ATOM      5  C   UNL     1      -1.514   7.519  -4.808  0.00  0.00    -0.000 A 
ATOM      6  C   UNL     1      -2.525   6.926  -5.541  0.00  0.00    -0.000 A 
ATOM      7  C   UNL     1      -2.268   5.786  -6.283  0.00  0.00    -0.000 A 
ATOM      8  C   UNL     1      -0.961   5.321  -6.271  0.00  0.00    -0.002 A 
ENDBRANCH   1   3
BRANCH   1   9
ATOM      9  C   UNL     1       2.373   6.149  -5.160  0.00  0.00    +0.087 A 
ATOM     10  N   UNL     1       2.587   5.250  -4.191  0.00  0.00    -0.246 NA
ATOM     11  C   UNL     1       3.764   5.227  -3.520  0.00  0.00    +0.099 A 
ATOM     12  C   UNL     1       4.888   5.850  -4.040  0.00  0.00    +0.021 A 
ATOM     13  C   UNL     1       4.674   6.889  -4.913  0.00  0.00    +0.003 A 
ATOM     14  C   UNL     1       3.404   7.044  -5.412  0.00  0.00    +0.017 A 
ENDBRANCH   1   9
BRANCH   1  15
ATOM     15  O   UNL     1       1.720   6.749  -7.299  0.00  0.00    -0.347 OA
BRANCH  15  16
ATOM     16  C   UNL     1       1.832   5.990  -8.474  0.00  0.00    +0.160 C 
BRANCH  16  17
ATOM     17  C   UNL     1       1.291   6.788  -9.636  0.00  0.00    +0.105 C 
BRANCH  17  19
ATOM     18  C   UNL     1       0.204   4.827 -10.426  0.00  0.00    +0.090 C 
ATOM     19  N   UNL     1       0.056   6.229 -10.128  0.00  0.00    -0.268 NA
ATOM     20  C   UNL     1      -0.379   6.983 -11.290  0.00  0.00    +0.090 C 
ENDBRANCH  17  19
ENDBRANCH  16  17
ENDBRANCH  15  16
ENDBRANCH   1  15
TORSDOF 6
ENDMDL
MODEL 4
REMARK VINA RESULT:      -6.6      1.437      1.821
REMARK  Name = 
REMARK  6 active torsions:
REMARK  status: ('A' for Active; 'I' for Inactive)
REMARK    1  A    between atoms: N_2  and  C_4
REMARK    2  A    between atoms: C_4  and  C_5
REMARK    3  A    between atoms: C_5  and  O_6
REMARK    4  A    between atoms: O_6  and  C_7
REMARK    5  A    between atoms: C_7  and  C_9
REMARK    6  A    between atoms: C_7  and  C_15
REMARK                            x       y       z     vdW  Elec       q    Type
REMARK                         _______ _______ _______ _____ _____    ______ ____
ROOT
ATOM      1  C   UNL     1       1.613   6.197  -6.467  0.00  0.00    +0.146 C 
ATOM      2  C   UNL     1       1.692   7.523  -7.174  0.00  0.00    +0.040 C 
ENDROOT
BRANCH   1   3
ATOM      3  C   UNL     1       2.643   6.075  -5.409  0.00  0.00    +0.007 A 
ATOM      4  C   UNL     1       2.941   4.807  -4.958  0.00  0.00    -0.002 A 
ATOM      5  C   UNL     1       4.102   4.679  -4.208  0.00  0.00    -0.000 A 
ATOM      6  C   UNL     1       5.084   5.653  -4.232  0.00  0.00    -0.000 A 
ATOM      7  C   UNL     1       4.801   6.911  -4.734  0.00  0.00    -0.000 A 
ATOM      8  C   UNL     1       3.520   7.107  -5.229  0.00  0.00    -0.002 A 
ENDBRANCH   1   3
BRANCH   1   9
ATOM      9  C   UNL     1       0.292   6.090  -5.779  0.00  0.00    +0.087 A 
ATOM     10  N   UNL     1      -0.138   7.067  -4.970  0.00  0.00    -0.246 NA
ATOM     11  C   UNL     1      -1.464   7.278  -4.788  0.00  0.00    +0.099 A 
ATOM     12  C   UNL     1      -2.392   6.771  -5.685  0.00  0.00    +0.021 A 
ATOM     13  C   UNL     1      -2.017   5.662  -6.405  0.00  0.00    +0.003 A 
ATOM     14  C   UNL     1      -0.687   5.318  -6.390  0.00  0.00    +0.017 A 
ENDBRANCH   1   9
BRANCH   1  15
ATOM     15  O   UNL     1       1.676   5.155  -7.383  0.00  0.00    -0.347 OA
BRANCH  15  16
ATOM     16  C   UNL     1       2.298   5.672  -8.530  0.00  0.00    +0.160 C 
BRANCH  16  17
ATOM     17  C   UNL     1       1.806   4.922  -9.744  0.00  0.00    +0.105 C 
BRANCH  17  19
ATOM     18  C   UNL     1      -0.056   4.501 -11.161  0.00  0.00    +0.090 C 
ATOM     19  N   UNL     1       0.482   5.346 -10.125  0.00  0.00    -0.268 NA
ATOM     20  C   UNL     1       0.526   6.739 -10.535  0.00  0.00    +0.090 C 
ENDBRANCH  17  19
ENDBRANCH  16  17
ENDBRANCH  15  16
ENDBRANCH   1  15
TORSDOF 6
ENDMDL
MODEL 5
REMARK VINA RESULT:      -6.5      1.191      4.315
REMARK  Name = 
REMARK  6 active torsions:
REMARK  status: ('A' for Active; 'I' for Inactive)
REMARK    1  A    between atoms: N_2  and  C_4
REMARK    2  A    between atoms: C_4  and  C_5
REMARK    3  A    between atoms: C_5  and  O_6
REMARK    4  A    between atoms: O_6  and  C_7
REMARK    5  A    between atoms: C_7  and  C_9
REMARK    6  A    between atoms: C_7  and  C_15
REMARK                            x       y       z     vdW  Elec       q    Type
REMARK                         _______ _______ _______ _____ _____    ______ ____
ROOT
ATOM      1  C   UNL     1       1.484   5.457  -6.357  0.00  0.00    +0.146 C 
ATOM      2  C   UNL     1       1.429   3.966  -6.165  0.00  0.00    +0.040 C 
ENDROOT
BRANCH   1   3
ATOM      3  C   UNL     1       0.139   6.074  -6.264  0.00  0.00    +0.007 A 
ATOM      4  C   UNL     1      -0.929   5.337  -6.725  0.00  0.00    -0.002 A 
ATOM      5  C   UNL     1      -2.190   5.786  -6.356  0.00  0.00    -0.000 A 
ATOM      6  C   UNL     1      -2.360   6.662  -5.300  0.00  0.00    -0.000 A 
ATOM      7  C   UNL     1      -1.276   7.365  -4.801  0.00  0.00    -0.000 A 
ATOM      8  C   UNL     1      -0.046   7.106  -5.388  0.00  0.00    -0.002 A 
ENDBRANCH   1   3
BRANCH   1   9
ATOM      9  C   UNL     1       2.298   6.061  -5.261  0.00  0.00    +0.087 A 
ATOM     10  N   UNL     1       2.492   5.401  -4.112  0.00  0.00    -0.246 NA
ATOM     11  C   UNL     1       3.604   5.623  -3.369  0.00  0.00    +0.099 A 
ATOM     12  C   UNL     1       4.720   6.228  -3.927  0.00  0.00    +0.021 A 
ATOM     13  C   UNL     1       4.507   7.043  -5.012  0.00  0.00    +0.003 A 
ATOM     14  C   UNL     1       3.277   6.977  -5.621  0.00  0.00    +0.017 A 
ENDBRANCH   1   9
BRANCH   1  15
ATOM     15  O   UNL     1       2.121   5.769  -7.551  0.00  0.00    -0.347 OA
BRANCH  15  16
ATOM     16  C   UNL     1       2.434   4.545  -8.164  0.00  0.00    +0.160 C 
BRANCH  16  17
ATOM     17  C   UNL     1       3.373   4.793  -9.320  0.00  0.00    +0.105 C 
BRANCH  17  19
ATOM     18  C   UNL     1       4.406   6.754 -10.180  0.00  0.00    +0.090 C 
ATOM     19  N   UNL     1       4.277   5.880  -9.040  0.00  0.00    -0.268 NA
ATOM     20  C   UNL     1       5.561   5.340  -8.629  0.00  0.00    +0.090 C 
ENDBRANCH  17  19
ENDBRANCH  16  17
ENDBRANCH  15  16
ENDBRANCH   1  15
TORSDOF 6
ENDMDL
MODEL 6
REMARK VINA RESULT:      -6.3      2.212      4.862
REMARK  Name = 
REMARK  6 active torsions:
REMARK  status: ('A' for Active; 'I' for Inactive)
REMARK    1  A    between atoms: N_2  and  C_4
REMARK    2  A    between atoms: C_4  and  C_5
REMARK    3  A    between atoms: C_5  and  O_6
REMARK    4  A    between atoms: O_6  and  C_7
REMARK    5  A    between atoms: C_7  and  C_9
REMARK    6  A    between atoms: C_7  and  C_15
REMARK                            x       y       z     vdW  Elec       q    Type
REMARK                         _______ _______ _______ _____ _____    ______ ____
ROOT
ATOM      1  C   UNL     1       1.031   5.901  -7.738  0.00  0.00    +0.146 C 
ATOM      2  C   UNL     1       1.952   7.089  -7.670  0.00  0.00    +0.040 C 
ENDROOT
BRANCH   1   3
ATOM      3  C   UNL     1      -0.023   5.963  -6.697  0.00  0.00    +0.007 A 
ATOM      4  C   UNL     1       0.062   6.977  -5.769  0.00  0.00    -0.002 A 
ATOM      5  C   UNL     1      -1.074   7.207  -5.005  0.00  0.00    -0.000 A 
ATOM      6  C   UNL     1      -2.312   6.731  -5.397  0.00  0.00    -0.000 A 
ATOM      7  C   UNL     1      -2.401   5.748  -6.368  0.00  0.00    -0.000 A 
ATOM      8  C   UNL     1      -1.207   5.320  -6.928  0.00  0.00    -0.002 A 
ENDBRANCH   1   3
BRANCH   1   9
ATOM      9  C   UNL     1       0.322   5.908  -9.052  0.00  0.00    +0.087 A 
ATOM     10  N   UNL     1       0.270   7.022  -9.794  0.00  0.00    -0.246 NA
ATOM     11  C   UNL     1       0.154   6.947 -11.142  0.00  0.00    +0.099 A 
ATOM     12  C   UNL     1       0.456   5.773 -11.816  0.00  0.00    +0.021 A 
ATOM     13  C   UNL     1       0.352   4.603 -11.102  0.00  0.00    +0.003 A 
ATOM     14  C   UNL     1       0.233   4.703  -9.737  0.00  0.00    +0.017 A 
ENDBRANCH   1   9
BRANCH   1  15
ATOM     15  O   UNL     1       1.758   4.719  -7.678  0.00  0.00    -0.347 OA
BRANCH  15  16
ATOM     16  C   UNL     1       2.961   5.027  -7.024  0.00  0.00    +0.160 C 
BRANCH  16  17
ATOM     17  C   UNL     1       2.946   4.419  -5.642  0.00  0.00    +0.105 C 
BRANCH  17  19
ATOM     18  C   UNL     1       4.770   4.887  -4.191  0.00  0.00    +0.090 C 
ATOM     19  N   UNL     1       3.481   5.329  -4.660  0.00  0.00    -0.268 NA
ATOM     20  C   UNL     1       2.531   5.468  -3.570  0.00  0.00    +0.090 C 
ENDBRANCH  17  19
ENDBRANCH  16  17
ENDBRANCH  15  16
ENDBRANCH   1  15
TORSDOF 6
ENDMDL
MODEL 7
REMARK VINA RESULT:      -6.2      1.260      5.122
REMARK  Name = 
REMARK  6 active torsions:
REMARK  status: ('A' for Active; 'I' for Inactive)
REMARK    1  A    between atoms: N_2  and  C_4
REMARK    2  A    between atoms: C_4  and  C_5
REMARK    3  A    between atoms: C_5  and  O_6
REMARK    4  A    between atoms: O_6  and  C_7
REMARK    5  A    between atoms: C_7  and  C_9
REMARK    6  A    between atoms: C_7  and  C_15
REMARK                            x       y       z     vdW  Elec       q    Type
REMARK                         _______ _______ _______ _____ _____    ______ ____
ROOT
ATOM      1  C   UNL     1       2.555   5.241  -6.712  0.00  0.00    +0.146 C 
ATOM      2  C   UNL     1       2.126   3.830  -6.411  0.00  0.00    +0.040 C 
ENDROOT
BRANCH   1   3
ATOM      3  C   UNL     1       3.624   5.699  -5.794  0.00  0.00    +0.007 A 
ATOM      4  C   UNL     1       3.787   7.058  -5.640  0.00  0.00    -0.002 A 
ATOM      5  C   UNL     1       4.566   7.465  -4.565  0.00  0.00    -0.000 A 
ATOM      6  C   UNL     1       4.837   6.612  -3.510  0.00  0.00    -0.000 A 
ATOM      7  C   UNL     1       4.624   5.251  -3.647  0.00  0.00    -0.000 A 
ATOM      8  C   UNL     1       4.101   4.824  -4.859  0.00  0.00    -0.002 A 
ENDBRANCH   1   3
BRANCH   1   9
ATOM      9  C   UNL     1       3.133   5.292  -8.088  0.00  0.00    +0.087 A 
ATOM     10  N   UNL     1       2.714   6.209  -8.970  0.00  0.00    -0.246 NA
ATOM     11  C   UNL     1       3.537   6.643  -9.956  0.00  0.00    +0.099 A 
ATOM     12  C   UNL     1       4.908   6.455  -9.869  0.00  0.00    +0.021 A 
ATOM     13  C   UNL     1       5.343   5.408  -9.092  0.00  0.00    +0.003 A 
ATOM     14  C   UNL     1       4.426   4.817  -8.256  0.00  0.00    +0.017 A 
ENDBRANCH   1   9
BRANCH   1  15
ATOM     15  O   UNL     1       1.457   6.093  -6.704  0.00  0.00    -0.347 OA
BRANCH  15  16
ATOM     16  C   UNL     1       0.425   5.403  -6.050  0.00  0.00    +0.160 C 
BRANCH  16  17
ATOM     17  C   UNL     1      -0.285   6.345  -5.109  0.00  0.00    +0.105 C 
BRANCH  17  19
ATOM     18  C   UNL     1      -2.115   5.527  -6.386  0.00  0.00    +0.090 C 
ATOM     19  N   UNL     1      -1.714   6.157  -5.154  0.00  0.00    -0.268 NA
ATOM     20  C   UNL     1      -2.370   7.439  -4.967  0.00  0.00    +0.090 C 
ENDBRANCH  17  19
ENDBRANCH  16  17
ENDBRANCH  15  16
ENDBRANCH   1  15
TORSDOF 6
ENDMDL
MODEL 8
REMARK VINA RESULT:      -6.1      1.707      5.295
REMARK  Name = 
REMARK  6 active torsions:
REMARK  status: ('A' for Active; 'I' for Inactive)
REMARK    1  A    between atoms: N_2  and  C_4
REMARK    2  A    between atoms: C_4  and  C_5
REMARK    3  A    between atoms: C_5  and  O_6
REMARK    4  A    between atoms: O_6  and  C_7
REMARK    5  A    between atoms: C_7  and  C_9
REMARK    6  A    between atoms: C_7  and  C_15
REMARK                            x       y       z     vdW  Elec       q    Type
REMARK                         _______ _______ _______ _____ _____    ______ ____
ROOT
ATOM      1  C   UNL     1       1.662   5.921  -6.399  0.00  0.00    +0.146 C 
ATOM      2  C   UNL     1       2.498   7.141  -6.120  0.00  0.00    +0.040 C 
ENDROOT
BRANCH   1   3
ATOM      3  C   UNL     1       0.212   6.221  -6.332  0.00  0.00    +0.007 A 
ATOM      4  C   UNL     1      -0.655   5.267  -6.820  0.00  0.00    -0.002 A 
ATOM      5  C   UNL     1      -1.991   5.419  -6.476  0.00  0.00    -0.000 A 
ATOM      6  C   UNL     1      -2.374   6.225  -5.420  0.00  0.00    -0.000 A 
ATOM      7  C   UNL     1      -1.486   7.147  -4.894  0.00  0.00    -0.000 A 
ATOM      8  C   UNL     1      -0.218   7.176  -5.455  0.00  0.00    -0.002 A 
ENDBRANCH   1   3
BRANCH   1   9
ATOM      9  C   UNL     1       1.929   5.455  -7.792  0.00  0.00    +0.087 A 
ATOM     10  N   UNL     1       1.983   6.329  -8.806  0.00  0.00    -0.246 NA
ATOM     11  C   UNL     1       2.731   6.065  -9.905  0.00  0.00    +0.099 A 
ATOM     12  C   UNL     1       3.730   5.104  -9.868  0.00  0.00    +0.021 A 
ATOM     13  C   UNL     1       3.596   4.105  -8.934  0.00  0.00    +0.003 A 
ATOM     14  C   UNL     1       2.658   4.284  -7.946  0.00  0.00    +0.017 A 
ENDBRANCH   1   9
BRANCH   1  15
ATOM     15  O   UNL     1       2.022   4.882  -5.551  0.00  0.00    -0.347 OA
BRANCH  15  16
ATOM     16  C   UNL     1       2.635   5.475  -4.436  0.00  0.00    +0.160 C 
BRANCH  16  17
ATOM     17  C   UNL     1       3.807   4.628  -4.003  0.00  0.00    +0.105 C 
BRANCH  17  19
ATOM     18  C   UNL     1       3.788   4.699  -1.627  0.00  0.00    +0.090 C 
ATOM     19  N   UNL     1       4.440   5.167  -2.825  0.00  0.00    -0.268 NA
ATOM     20  C   UNL     1       4.441   6.617  -2.905  0.00  0.00    +0.090 C 
ENDBRANCH  17  19
ENDBRANCH  16  17
ENDBRANCH  15  16
ENDBRANCH   1  15
TORSDOF 6
ENDMDL
MODEL 9
REMARK VINA RESULT:      -6.1      1.717      5.193
REMARK  Name = 
REMARK  6 active torsions:
REMARK  status: ('A' for Active; 'I' for Inactive)
REMARK    1  A    between atoms: N_2  and  C_4
REMARK    2  A    between atoms: C_4  and  C_5
REMARK    3  A    between atoms: C_5  and  O_6
REMARK    4  A    between atoms: O_6  and  C_7
REMARK    5  A    between atoms: C_7  and  C_9
REMARK    6  A    between atoms: C_7  and  C_15
REMARK                            x       y       z     vdW  Elec       q    Type
REMARK                         _______ _______ _______ _____ _____    ______ ____
ROOT
ATOM      1  C   UNL     1       3.130   6.229  -6.962  0.00  0.00    +0.146 C 
ATOM      2  C   UNL     1       2.361   7.517  -7.085  0.00  0.00    +0.040 C 
ENDROOT
BRANCH   1   3
ATOM      3  C   UNL     1       3.896   5.926  -8.194  0.00  0.00    +0.007 A 
ATOM      4  C   UNL     1       3.594   6.656  -9.323  0.00  0.00    -0.002 A 
ATOM      5  C   UNL     1       4.510   6.583 -10.364  0.00  0.00    -0.000 A 
ATOM      6  C   UNL     1       5.802   6.136 -10.155  0.00  0.00    -0.000 A 
ATOM      7  C   UNL     1       6.118   5.448  -8.996  0.00  0.00    -0.000 A 
ATOM      8  C   UNL     1       5.094   5.281  -8.076  0.00  0.00    -0.002 A 
ENDBRANCH   1   3
BRANCH   1   9
ATOM      9  C   UNL     1       4.135   6.363  -5.866  0.00  0.00    +0.087 A 
ATOM     10  N   UNL     1       4.342   7.545  -5.270  0.00  0.00    -0.246 NA
ATOM     11  C   UNL     1       4.782   7.604  -3.990  0.00  0.00    +0.099 A 
ATOM     12  C   UNL     1       4.676   6.503  -3.153  0.00  0.00    +0.021 A 
ATOM     13  C   UNL     1       4.629   5.268  -3.754  0.00  0.00    +0.003 A 
ATOM     14  C   UNL     1       4.412   5.232  -5.110  0.00  0.00    +0.017 A 
ENDBRANCH   1   9
BRANCH   1  15
ATOM     15  O   UNL     1       2.280   5.190  -6.605  0.00  0.00    -0.347 OA
BRANCH  15  16
ATOM     16  C   UNL     1       1.196   5.778  -5.934  0.00  0.00    +0.160 C 
BRANCH  16  17
ATOM     17  C   UNL     1      -0.054   4.978  -6.211  0.00  0.00    +0.105 C 
BRANCH  17  19
ATOM     18  C   UNL     1      -2.340   5.594  -6.415  0.00  0.00    +0.090 C 
ATOM     19  N   UNL     1      -1.198   5.540  -5.538  0.00  0.00    -0.268 NA
ATOM     20  C   UNL     1      -0.852   6.854  -5.025  0.00  0.00    +0.090 C 
ENDBRANCH  17  19
ENDBRANCH  16  17
ENDBRANCH  15  16
ENDBRANCH   1  15
TORSDOF 6
ENDMDL
