MODEL 1
REMARK VINA RESULT:      -8.2      0.000      0.000
REMARK  Name = 
REMARK  6 active torsions:
REMARK  status: ('A' for Active; 'I' for Inactive)
REMARK    1  A    between atoms: C_9  and  O_10
REMARK    2  A    between atoms: O_10  and  C_11
REMARK    3  A    between atoms: N_13  and  C_14
REMARK    4  A    between atoms: N_13  and  C_17
REMARK    5  A    between atoms: C_14  and  C_15
REMARK    6  A    between atoms: C_17  and  C_18
REMARK                            x       y       z     vdW  Elec       q    Type
REMARK                         _______ _______ _______ _____ _____    ______ ____
ROOT
ATOM      1  C   UNL     1       5.949   7.616 -11.298  0.00  0.00    +0.003 C 
ATOM      2  C   UNL     1       6.031   6.223 -11.347  0.00  0.00    +0.028 C 
ATOM      3  C   UNL     1       7.554   5.639 -11.404  0.00  0.00    +0.152 C 
ATOM      4  O   UNL     1       8.184   6.944 -10.920  0.00  0.00    -0.223 OA
ATOM      5  C   UNL     1       7.566   5.083  -9.839  0.00  0.00    +0.033 C 
ATOM      6  C   UNL     1       6.747   6.222  -9.182  0.00  0.00    +0.003 C 
ATOM      7  C   UNL     1       5.561   5.470  -9.991  0.00  0.00    +0.003 C 
ATOM      8  C   UNL     1       4.335   6.606  -9.826  0.00  0.00    +0.004 C 
ATOM      9  C   UNL     1       3.389   5.362 -10.476  0.00  0.00    +0.022 C 
ATOM     10  C   UNL     1       1.988   6.097 -10.271  0.00  0.00    -0.026 A 
ATOM     11  C   UNL     1       1.816   6.866  -9.114  0.00  0.00    -0.023 A 
ATOM     12  C   UNL     1       2.959   7.457  -8.361  0.00  0.00    +0.026 C 
ATOM     13  C   UNL     1       0.591   6.731  -8.455  0.00  0.00    +0.033 A 
ATOM     14  C   UNL     1      -0.075   5.511  -8.404  0.00  0.00    +0.150 A 
ATOM     15  C   UNL     1       0.101   4.741  -9.528  0.00  0.00    +0.037 A 
ATOM     16  C   UNL     1       0.981   5.159 -10.536  0.00  0.00    -0.001 A 
ATOM     17  C   UNL     1       3.743   5.885 -11.984  0.00  0.00    +0.004 C 
ATOM     18  C   UNL     1       4.003   6.319  -8.272  0.00  0.00    +0.005 C 
ATOM     19  C   UNL     1       5.167   5.412 -12.287  0.00  0.00    +0.003 C 
ENDROOT
BRANCH  14  20
ATOM     20  O   UNL     1      -0.654   5.070  -7.204  0.00  0.00    -0.410 OA
BRANCH  20  21
ATOM     21  C   UNL     1       0.195   4.930  -6.117  0.00  0.00    +0.409 C 
ATOM     22  N   UNL     1       0.314   5.790  -5.000  0.00  0.00    -0.243 N 
ATOM     23  O   UNL     1       1.085   4.028  -6.127  0.00  0.00    -0.226 OA
BRANCH  22  24
ATOM     24  C   UNL     1       1.277   6.879  -5.213  0.00  0.00    +0.114 C 
BRANCH  24  25
ATOM     25  C   UNL     1       2.337   6.802  -4.116  0.00  0.00    +0.116 C 
ATOM     26 CL   UNL     1       3.897   7.322  -4.817  0.00  0.00    -0.112 Cl
ENDBRANCH  24  25
ENDBRANCH  22  24
BRANCH  22  27
ATOM     27  C   UNL     1       0.531   5.195  -3.677  0.00  0.00    +0.114 C 
BRANCH  27  28
ATOM     28  C   UNL     1      -0.636   5.341  -2.763  0.00  0.00    +0.116 C 
ATOM     29 CL   UNL     1      -1.957   6.206  -3.603  0.00  0.00    -0.112 Cl
ENDBRANCH  27  28
ENDBRANCH  22  27
ENDBRANCH  20  21
ENDBRANCH  14  20
TORSDOF 6
ENDMDL
MODEL 2
REMARK VINA RESULT:      -8.1      3.157      7.435
REMARK  Name = 
REMARK  6 active torsions:
REMARK  status: ('A' for Active; 'I' for Inactive)
REMARK    1  A    between atoms: C_9  and  O_10
REMARK    2  A    between atoms: O_10  and  C_11
REMARK    3  A    between atoms: N_13  and  C_14
REMARK    4  A    between atoms: N_13  and  C_17
REMARK    5  A    between atoms: C_14  and  C_15
REMARK    6  A    between atoms: C_17  and  C_18
REMARK                            x       y       z     vdW  Elec       q    Type
REMARK                         _______ _______ _______ _____ _____    ______ ____
ROOT
ATOM      1  C   UNL     1       3.221   4.717  -1.093  0.00  0.00    +0.003 C 
ATOM      2  C   UNL     1       2.720   6.019  -1.036  0.00  0.00    +0.028 C 
ATOM      3  C   UNL     1       3.560   7.022  -0.060  0.00  0.00    +0.152 C 
ATOM      4  O   UNL     1       4.792   6.118  -0.018  0.00  0.00    -0.223 OA
ATOM      5  C   UNL     1       4.266   7.883  -1.291  0.00  0.00    +0.033 C 
ATOM      6  C   UNL     1       4.492   6.719  -2.288  0.00  0.00    +0.003 C 
ATOM      7  C   UNL     1       2.882   6.867  -2.408  0.00  0.00    +0.003 C 
ATOM      8  C   UNL     1       2.529   5.469  -3.272  0.00  0.00    +0.004 C 
ATOM      9  C   UNL     1       0.997   6.182  -3.378  0.00  0.00    +0.022 C 
ATOM     10  C   UNL     1       0.389   5.110  -4.391  0.00  0.00    -0.026 A 
ATOM     11  C   UNL     1       1.230   4.600  -5.387  0.00  0.00    -0.023 A 
ATOM     12  C   UNL     1       2.714   4.576  -5.254  0.00  0.00    +0.026 C 
ATOM     13  C   UNL     1       0.680   4.487  -6.667  0.00  0.00    +0.033 A 
ATOM     14  C   UNL     1      -0.235   5.418  -7.148  0.00  0.00    +0.150 A 
ATOM     15  C   UNL     1      -1.054   5.938  -6.176  0.00  0.00    +0.037 A 
ATOM     16  C   UNL     1      -0.847   5.604  -4.830  0.00  0.00    -0.001 A 
ATOM     17  C   UNL     1       0.576   5.477  -1.965  0.00  0.00    +0.004 C 
ATOM     18  C   UNL     1       3.084   5.974  -4.702  0.00  0.00    +0.005 C 
ATOM     19  C   UNL     1       1.243   6.292  -0.854  0.00  0.00    +0.003 C 
ENDROOT
BRANCH  14  20
ATOM     20  O   UNL     1      -0.122   5.909  -8.458  0.00  0.00    -0.410 OA
BRANCH  20  21
ATOM     21  C   UNL     1       1.156   6.209  -8.904  0.00  0.00    +0.409 C 
ATOM     22  N   UNL     1       1.951   5.463  -9.805  0.00  0.00    -0.243 N 
ATOM     23  O   UNL     1       1.794   7.171  -8.380  0.00  0.00    -0.226 OA
BRANCH  22  24
ATOM     24  C   UNL     1       2.763   4.435  -9.142  0.00  0.00    +0.114 C 
BRANCH  24  25
ATOM     25  C   UNL     1       4.235   4.732  -9.423  0.00  0.00    +0.116 C 
ATOM     26 CL   UNL     1       4.959   5.403  -7.933  0.00  0.00    -0.112 Cl
ENDBRANCH  24  25
ENDBRANCH  22  24
BRANCH  22  27
ATOM     27  C   UNL     1       2.777   6.189 -10.776  0.00  0.00    +0.114 C 
BRANCH  27  28
ATOM     28  C   UNL     1       2.137   6.324 -12.115  0.00  0.00    +0.116 C 
ATOM     29 CL   UNL     1       0.875   5.071 -12.311  0.00  0.00    -0.112 Cl
ENDBRANCH  27  28
ENDBRANCH  22  27
ENDBRANCH  20  21
ENDBRANCH  14  20
TORSDOF 6
ENDMDL
MODEL 3
REMARK VINA RESULT:      -7.9      3.064      5.624
REMARK  Name = 
REMARK  6 active torsions:
REMARK  status: ('A' for Active; 'I' for Inactive)
REMARK    1  A    between atoms: C_9  and  O_10
REMARK    2  A    between atoms: O_10  and  C_11
REMARK    3  A    between atoms: N_13  and  C_14
REMARK    4  A    between atoms: N_13  and  C_17
REMARK    5  A    between atoms: C_14  and  C_15
REMARK    6  A    between atoms: C_17  and  C_18
REMARK                            x       y       z     vdW  Elec       q    Type
REMARK                         _______ _______ _______ _____ _____    ______ ____
ROOT
ATOM      1  C   UNL     1       2.479   3.992  -8.841  0.00  0.00    +0.003 C 
ATOM      2  C   UNL     1       2.631   5.335  -9.192  0.00  0.00    +0.028 C 
ATOM      3  C   UNL     1       1.845   5.768 -10.554  0.00  0.00    +0.152 C 
ATOM      4  O   UNL     1       0.935   4.540 -10.545  0.00  0.00    -0.223 OA
ATOM      5  C   UNL     1       0.653   6.626  -9.781  0.00  0.00    +0.033 C 
ATOM      6  C   UNL     1       0.479   5.715  -8.540  0.00  0.00    +0.003 C 
ATOM      7  C   UNL     1       1.913   6.383  -8.185  0.00  0.00    +0.003 C 
ATOM      8  C   UNL     1       2.373   5.407  -6.897  0.00  0.00    +0.004 C 
ATOM      9  C   UNL     1       3.595   6.568  -6.736  0.00  0.00    +0.022 C 
ATOM     10  C   UNL     1       4.173   6.006  -5.359  0.00  0.00    -0.026 A 
ATOM     11  C   UNL     1       3.262   5.505  -4.423  0.00  0.00    -0.023 A 
ATOM     12  C   UNL     1       1.917   4.986  -4.804  0.00  0.00    +0.026 C 
ATOM     13  C   UNL     1       3.474   5.870  -3.091  0.00  0.00    +0.033 A 
ATOM     14  C   UNL     1       3.968   7.125  -2.753  0.00  0.00    +0.150 A 
ATOM     15  C   UNL     1       4.851   7.635  -3.673  0.00  0.00    +0.037 A 
ATOM     16  C   UNL     1       5.088   6.951  -4.874  0.00  0.00    -0.001 A 
ATOM     17  C   UNL     1       4.530   5.723  -7.777  0.00  0.00    +0.004 C 
ATOM     18  C   UNL     1       1.361   6.029  -5.803  0.00  0.00    +0.005 C 
ATOM     19  C   UNL     1       3.986   6.007  -9.180  0.00  0.00    +0.003 C 
ENDROOT
BRANCH  14  20
ATOM     20  O   UNL     1       3.402   7.846  -1.690  0.00  0.00    -0.410 OA
BRANCH  20  21
ATOM     21  C   UNL     1       2.660   7.121  -0.770  0.00  0.00    +0.409 C 
ATOM     22  N   UNL     1       1.267   7.195  -0.538  0.00  0.00    -0.243 N 
ATOM     23  O   UNL     1       3.254   6.395   0.083  0.00  0.00    -0.226 OA
BRANCH  22  24
ATOM     24  C   UNL     1       0.900   8.222   0.447  0.00  0.00    +0.114 C 
BRANCH  24  25
ATOM     25  C   UNL     1      -0.297   7.713   1.247  0.00  0.00    +0.116 C 
ATOM     26 CL   UNL     1      -1.762   8.533   0.633  0.00  0.00    -0.112 Cl
ENDBRANCH  24  25
ENDBRANCH  22  24
BRANCH  22  27
ATOM     27  C   UNL     1       0.539   5.955  -0.247  0.00  0.00    +0.114 C 
BRANCH  27  28
ATOM     28  C   UNL     1       0.232   5.149  -1.462  0.00  0.00    +0.116 C 
ATOM     29 CL   UNL     1      -0.803   6.097  -2.571  0.00  0.00    -0.112 Cl
ENDBRANCH  27  28
ENDBRANCH  22  27
ENDBRANCH  20  21
ENDBRANCH  14  20
TORSDOF 6
ENDMDL
MODEL 4
REMARK VINA RESULT:      -7.9      3.189      7.503
REMARK  Name = 
REMARK  6 active torsions:
REMARK  status: ('A' for Active; 'I' for Inactive)
REMARK    1  A    between atoms: C_9  and  O_10
REMARK    2  A    between atoms: O_10  and  C_11
REMARK    3  A    between atoms: N_13  and  C_14
REMARK    4  A    between atoms: N_13  and  C_17
REMARK    5  A    between atoms: C_14  and  C_15
REMARK    6  A    between atoms: C_17  and  C_18
REMARK                            x       y       z     vdW  Elec       q    Type
REMARK                         _______ _______ _______ _____ _____    ______ ____
ROOT
ATOM      1  C   UNL     1       3.155   4.669  -1.125  0.00  0.00    +0.003 C 
ATOM      2  C   UNL     1       2.565   5.934  -1.086  0.00  0.00    +0.028 C 
ATOM      3  C   UNL     1       3.223   6.951   0.007  0.00  0.00    +0.152 C 
ATOM      4  O   UNL     1       4.501   6.126   0.161  0.00  0.00    -0.223 OA
ATOM      5  C   UNL     1       4.001   7.900  -1.110  0.00  0.00    +0.033 C 
ATOM      6  C   UNL     1       4.414   6.791  -2.110  0.00  0.00    +0.003 C 
ATOM      7  C   UNL     1       2.821   6.841  -2.405  0.00  0.00    +0.003 C 
ATOM      8  C   UNL     1       2.660   5.457  -3.344  0.00  0.00    +0.004 C 
ATOM      9  C   UNL     1       1.105   6.074  -3.601  0.00  0.00    +0.022 C 
ATOM     10  C   UNL     1       0.685   5.004  -4.708  0.00  0.00    -0.026 A 
ATOM     11  C   UNL     1       1.663   4.586  -5.618  0.00  0.00    -0.023 A 
ATOM     12  C   UNL     1       3.122   4.651  -5.319  0.00  0.00    +0.026 C 
ATOM     13  C   UNL     1       1.266   4.486  -6.954  0.00  0.00    +0.033 A 
ATOM     14  C   UNL     1       0.350   5.375  -7.507  0.00  0.00    +0.150 A 
ATOM     15  C   UNL     1      -0.605   5.805  -6.618  0.00  0.00    +0.037 A 
ATOM     16  C   UNL     1      -0.525   5.436  -5.268  0.00  0.00    -0.001 A 
ATOM     17  C   UNL     1       0.577   5.293  -2.266  0.00  0.00    +0.004 C 
ATOM     18  C   UNL     1       3.334   6.048  -4.688  0.00  0.00    +0.005 C 
ATOM     19  C   UNL     1       1.063   6.106  -1.064  0.00  0.00    +0.003 C 
ENDROOT
BRANCH  14  20
ATOM     20  O   UNL     1       0.574   5.920  -8.781  0.00  0.00    -0.410 OA
BRANCH  20  21
ATOM     21  C   UNL     1       1.552   5.316  -9.555  0.00  0.00    +0.409 C 
ATOM     22  N   UNL     1       2.895   5.729  -9.723  0.00  0.00    -0.243 N 
ATOM     23  O   UNL     1       1.240   4.364 -10.332  0.00  0.00    -0.226 OA
BRANCH  22  24
ATOM     24  C   UNL     1       3.068   6.694 -10.817  0.00  0.00    +0.114 C 
BRANCH  24  25
ATOM     25  C   UNL     1       4.349   6.341 -11.569  0.00  0.00    +0.116 C 
ATOM     26 CL   UNL     1       5.551   7.625 -11.250  0.00  0.00    -0.112 Cl
ENDBRANCH  24  25
ENDBRANCH  22  24
BRANCH  22  27
ATOM     27  C   UNL     1       3.939   4.701  -9.806  0.00  0.00    +0.114 C 
BRANCH  27  28
ATOM     28  C   UNL     1       4.704   4.530  -8.539  0.00  0.00    +0.116 C 
ATOM     29 CL   UNL     1       6.275   5.375  -8.663  0.00  0.00    -0.112 Cl
ENDBRANCH  27  28
ENDBRANCH  22  27
ENDBRANCH  20  21
ENDBRANCH  14  20
TORSDOF 6
ENDMDL
MODEL 5
REMARK VINA RESULT:      -7.9      3.201      8.457
REMARK  Name = 
REMARK  6 active torsions:
REMARK  status: ('A' for Active; 'I' for Inactive)
REMARK    1  A    between atoms: C_9  and  O_10
REMARK    2  A    between atoms: O_10  and  C_11
REMARK    3  A    between atoms: N_13  and  C_14
REMARK    4  A    between atoms: N_13  and  C_17
REMARK    5  A    between atoms: C_14  and  C_15
REMARK    6  A    between atoms: C_17  and  C_18
REMARK                            x       y       z     vdW  Elec       q    Type
REMARK                         _______ _______ _______ _____ _____    ______ ____
ROOT
ATOM      1  C   UNL     1      -2.372   5.215  -4.016  0.00  0.00    +0.003 C 
ATOM      2  C   UNL     1      -1.835   6.397  -3.502  0.00  0.00    +0.028 C 
ATOM      3  C   UNL     1      -2.289   6.732  -1.971  0.00  0.00    +0.152 C 
ATOM      4  O   UNL     1      -2.758   5.306  -1.686  0.00  0.00    -0.223 OA
ATOM      5  C   UNL     1      -0.823   6.359  -1.288  0.00  0.00    +0.033 C 
ATOM      6  C   UNL     1      -0.448   5.154  -2.186  0.00  0.00    +0.003 C 
ATOM      7  C   UNL     1      -0.234   6.359  -3.249  0.00  0.00    +0.003 C 
ATOM      8  C   UNL     1      -0.068   5.467  -4.663  0.00  0.00    +0.004 C 
ATOM      9  C   UNL     1       0.382   6.970  -5.301  0.00  0.00    +0.022 C 
ATOM     10  C   UNL     1       0.833   6.414  -6.727  0.00  0.00    -0.026 A 
ATOM     11  C   UNL     1       1.480   5.173  -6.771  0.00  0.00    -0.023 A 
ATOM     12  C   UNL     1       1.311   4.139  -5.711  0.00  0.00    +0.026 C 
ATOM     13  C   UNL     1       2.591   5.081  -7.612  0.00  0.00    +0.033 A 
ATOM     14  C   UNL     1       3.458   6.155  -7.789  0.00  0.00    +0.150 A 
ATOM     15  C   UNL     1       2.836   7.379  -7.731  0.00  0.00    +0.037 A 
ATOM     16  C   UNL     1       1.477   7.461  -7.399  0.00  0.00    -0.001 A 
ATOM     17  C   UNL     1      -1.186   7.295  -5.630  0.00  0.00    +0.004 C 
ATOM     18  C   UNL     1       1.424   4.917  -4.378  0.00  0.00    +0.005 C 
ATOM     19  C   UNL     1      -1.839   7.681  -4.300  0.00  0.00    +0.003 C 
ENDROOT
BRANCH  14  20
ATOM     20  O   UNL     1       4.847   5.952  -7.784  0.00  0.00    -0.410 OA
BRANCH  20  21
ATOM     21  C   UNL     1       5.453   5.755  -9.015  0.00  0.00    +0.409 C 
ATOM     22  N   UNL     1       5.032   6.250 -10.272  0.00  0.00    -0.243 N 
ATOM     23  O   UNL     1       6.416   4.937  -9.117  0.00  0.00    -0.226 OA
BRANCH  22  24
ATOM     24  C   UNL     1       4.079   5.361 -10.951  0.00  0.00    +0.114 C 
BRANCH  24  25
ATOM     25  C   UNL     1       2.902   6.203 -11.436  0.00  0.00    +0.116 C 
ATOM     26 CL   UNL     1       1.393   5.401 -10.912  0.00  0.00    -0.112 Cl
ENDBRANCH  24  25
ENDBRANCH  22  24
BRANCH  22  27
ATOM     27  C   UNL     1       6.053   6.695 -11.227  0.00  0.00    +0.114 C 
BRANCH  27  28
ATOM     28  C   UNL     1       6.458   5.639 -12.196  0.00  0.00    +0.116 C 
ATOM     29 CL   UNL     1       8.242   5.555 -12.289  0.00  0.00    -0.112 Cl
ENDBRANCH  27  28
ENDBRANCH  22  27
ENDBRANCH  20  21
ENDBRANCH  14  20
TORSDOF 6
ENDMDL
MODEL 6
REMARK VINA RESULT:      -7.8      3.068      4.808
REMARK  Name = 
REMARK  6 active torsions:
REMARK  status: ('A' for Active; 'I' for Inactive)
REMARK    1  A    between atoms: C_9  and  O_10
REMARK    2  A    between atoms: O_10  and  C_11
REMARK    3  A    between atoms: N_13  and  C_14
REMARK    4  A    between atoms: N_13  and  C_17
REMARK    5  A    between atoms: C_14  and  C_15
REMARK    6  A    between atoms: C_17  and  C_18
REMARK                            x       y       z     vdW  Elec       q    Type
REMARK                         _______ _______ _______ _____ _____    ______ ____
ROOT
ATOM      1  C   UNL     1       0.070   7.089 -11.396  0.00  0.00    +0.003 C 
ATOM      2  C   UNL     1       0.534   5.786 -11.588  0.00  0.00    +0.028 C 
ATOM      3  C   UNL     1       0.803   5.390 -13.147  0.00  0.00    +0.152 C 
ATOM      4  O   UNL     1       0.825   6.842 -13.622  0.00  0.00    -0.223 OA
ATOM      5  C   UNL     1       2.459   5.428 -13.035  0.00  0.00    +0.033 C 
ATOM      6  C   UNL     1       2.598   6.629 -12.067  0.00  0.00    +0.003 C 
ATOM      7  C   UNL     1       2.033   5.514 -11.034  0.00  0.00    +0.003 C 
ATOM      8  C   UNL     1       1.686   6.495  -9.715  0.00  0.00    +0.004 C 
ATOM      9  C   UNL     1       1.465   5.006  -8.941  0.00  0.00    +0.022 C 
ATOM     10  C   UNL     1       1.288   5.609  -7.474  0.00  0.00    -0.026 A 
ATOM     11  C   UNL     1       2.072   6.713  -7.122  0.00  0.00    -0.023 A 
ATOM     12  C   UNL     1       2.640   7.653  -8.130  0.00  0.00    +0.026 C 
ATOM     13  C   UNL     1       2.645   6.688  -5.848  0.00  0.00    +0.033 A 
ATOM     14  C   UNL     1       3.086   5.499  -5.274  0.00  0.00    +0.150 A 
ATOM     15  C   UNL     1       2.333   4.406  -5.627  0.00  0.00    +0.037 A 
ATOM     16  C   UNL     1       1.308   4.534  -6.576  0.00  0.00    -0.001 A 
ATOM     17  C   UNL     1      -0.100   4.998  -9.412  0.00  0.00    +0.004 C 
ATOM     18  C   UNL     1       3.211   6.741  -9.242  0.00  0.00    +0.005 C 
ATOM     19  C   UNL     1      -0.108   4.606 -10.892  0.00  0.00    +0.003 C 
ENDROOT
BRANCH  14  20
ATOM     20  O   UNL     1       4.319   5.451  -4.606  0.00  0.00    -0.410 OA
BRANCH  20  21
ATOM     21  C   UNL     1       4.371   6.033  -3.349  0.00  0.00    +0.409 C 
ATOM     22  N   UNL     1       3.592   5.705  -2.215  0.00  0.00    -0.243 N 
ATOM     23  O   UNL     1       5.076   7.071  -3.166  0.00  0.00    -0.226 OA
BRANCH  22  24
ATOM     24  C   UNL     1       2.321   6.440  -2.158  0.00  0.00    +0.114 C 
BRANCH  24  25
ATOM     25  C   UNL     1       1.180   5.426  -2.183  0.00  0.00    +0.116 C 
ATOM     26 CL   UNL     1      -0.040   5.993  -3.359  0.00  0.00    -0.112 Cl
ENDBRANCH  24  25
ENDBRANCH  22  24
BRANCH  22  27
ATOM     27  C   UNL     1       4.231   5.729  -0.895  0.00  0.00    +0.114 C 
BRANCH  27  28
ATOM     28  C   UNL     1       3.792   6.870  -0.044  0.00  0.00    +0.116 C 
ATOM     29 CL   UNL     1       5.124   7.363   1.043  0.00  0.00    -0.112 Cl
ENDBRANCH  27  28
ENDBRANCH  22  27
ENDBRANCH  20  21
ENDBRANCH  14  20
TORSDOF 6
ENDMDL
MODEL 7
REMARK VINA RESULT:      -7.7      4.004      7.340
REMARK  Name = 
REMARK  6 active torsions:
REMARK  status: ('A' for Active; 'I' for Inactive)
REMARK    1  A    between atoms: C_9  and  O_10
REMARK    2  A    between atoms: O_10  and  C_11
REMARK    3  A    between atoms: N_13  and  C_14
REMARK    4  A    between atoms: N_13  and  C_17
REMARK    5  A    between atoms: C_14  and  C_15
REMARK    6  A    between atoms: C_17  and  C_18
REMARK                            x       y       z     vdW  Elec       q    Type
REMARK                         _______ _______ _______ _____ _____    ______ ____
ROOT
ATOM      1  C   UNL     1       2.086   4.572  -5.479  0.00  0.00    +0.003 C 
ATOM      2  C   UNL     1       1.997   5.965  -5.473  0.00  0.00    +0.028 C 
ATOM      3  C   UNL     1       2.700   6.680  -4.186  0.00  0.00    +0.152 C 
ATOM      4  O   UNL     1       3.524   5.446  -3.818  0.00  0.00    -0.223 OA
ATOM      5  C   UNL     1       4.005   7.268  -5.027  0.00  0.00    +0.033 C 
ATOM      6  C   UNL     1       4.214   6.076  -5.994  0.00  0.00    +0.003 C 
ATOM      7  C   UNL     1       2.861   6.703  -6.629  0.00  0.00    +0.003 C 
ATOM      8  C   UNL     1       2.440   5.466  -7.685  0.00  0.00    +0.004 C 
ATOM      9  C   UNL     1       1.315   6.608  -8.230  0.00  0.00    +0.022 C 
ATOM     10  C   UNL     1       0.811   5.756  -9.482  0.00  0.00    -0.026 A 
ATOM     11  C   UNL     1       1.758   5.000 -10.183  0.00  0.00    -0.023 A 
ATOM     12  C   UNL     1       3.030   4.528  -9.565  0.00  0.00    +0.026 C 
ATOM     13  C   UNL     1       1.676   5.040 -11.577  0.00  0.00    +0.033 A 
ATOM     14  C   UNL     1       1.295   6.197 -12.248  0.00  0.00    +0.150 A 
ATOM     15  C   UNL     1       0.379   6.955 -11.562  0.00  0.00    +0.037 A 
ATOM     16  C   UNL     1       0.003   6.595 -10.260  0.00  0.00    -0.001 A 
ATOM     17  C   UNL     1       0.246   6.085  -7.109  0.00  0.00    +0.004 C 
ATOM     18  C   UNL     1       3.575   5.756  -8.797  0.00  0.00    +0.005 C 
ATOM     19  C   UNL     1       0.695   6.676  -5.770  0.00  0.00    +0.003 C 
ENDROOT
BRANCH  14  20
ATOM     20  O   UNL     1       1.991   6.611 -13.395  0.00  0.00    -0.410 OA
BRANCH  20  21
ATOM     21  C   UNL     1       3.044   5.810 -13.810  0.00  0.00    +0.409 C 
ATOM     22  N   UNL     1       4.411   6.161 -13.898  0.00  0.00    -0.243 N 
ATOM     23  O   UNL     1       2.806   4.669 -14.309  0.00  0.00    -0.226 OA
BRANCH  22  24
ATOM     24  C   UNL     1       4.769   6.760 -15.191  0.00  0.00    +0.114 C 
BRANCH  24  25
ATOM     25  C   UNL     1       6.167   7.362 -15.069  0.00  0.00    +0.116 C 
ATOM     26 CL   UNL     1       7.157   6.743 -16.422  0.00  0.00    -0.112 Cl
ENDBRANCH  24  25
ENDBRANCH  22  24
BRANCH  22  27
ATOM     27  C   UNL     1       5.417   5.161 -13.525  0.00  0.00    +0.114 C 
BRANCH  27  28
ATOM     28  C   UNL     1       5.852   5.259 -12.104  0.00  0.00    +0.116 C 
ATOM     29 CL   UNL     1       5.547   6.911 -11.490  0.00  0.00    -0.112 Cl
ENDBRANCH  27  28
ENDBRANCH  22  27
ENDBRANCH  20  21
ENDBRANCH  14  20
TORSDOF 6
ENDMDL
MODEL 8
REMARK VINA RESULT:      -7.6      2.963      5.182
REMARK  Name = 
REMARK  6 active torsions:
REMARK  status: ('A' for Active; 'I' for Inactive)
REMARK    1  A    between atoms: C_9  and  O_10
REMARK    2  A    between atoms: O_10  and  C_11
REMARK    3  A    between atoms: N_13  and  C_14
REMARK    4  A    between atoms: N_13  and  C_17
REMARK    5  A    between atoms: C_14  and  C_15
REMARK    6  A    between atoms: C_17  and  C_18
REMARK                            x       y       z     vdW  Elec       q    Type
REMARK                         _______ _______ _______ _____ _____    ______ ____
ROOT
ATOM      1  C   UNL     1       2.336   4.429  -9.887  0.00  0.00    +0.003 C 
ATOM      2  C   UNL     1       2.246   5.821  -9.959  0.00  0.00    +0.028 C 
ATOM      3  C   UNL     1       1.455   6.377 -11.273  0.00  0.00    +0.152 C 
ATOM      4  O   UNL     1       0.796   5.032 -11.576  0.00  0.00    -0.223 OA
ATOM      5  C   UNL     1       0.087   6.834 -10.451  0.00  0.00    +0.033 C 
ATOM      6  C   UNL     1       0.034   5.672  -9.427  0.00  0.00    +0.003 C 
ATOM      7  C   UNL     1       1.297   6.496  -8.833  0.00  0.00    +0.003 C 
ATOM      8  C   UNL     1       1.875   5.375  -7.723  0.00  0.00    +0.004 C 
ATOM      9  C   UNL     1       2.845   6.676  -7.241  0.00  0.00    +0.022 C 
ATOM     10  C   UNL     1       3.456   5.957  -5.955  0.00  0.00    -0.026 A 
ATOM     11  C   UNL     1       2.614   5.121  -5.211  0.00  0.00    -0.023 A 
ATOM     12  C   UNL     1       1.412   4.462  -5.796  0.00  0.00    +0.026 C 
ATOM     13  C   UNL     1       2.693   5.238  -3.821  0.00  0.00    +0.033 A 
ATOM     14  C   UNL     1       2.923   6.465  -3.208  0.00  0.00    +0.150 A 
ATOM     15  C   UNL     1       3.734   7.300  -3.937  0.00  0.00    +0.037 A 
ATOM     16  C   UNL     1       4.151   6.929  -5.223  0.00  0.00    -0.001 A 
ATOM     17  C   UNL     1       3.970   6.242  -8.344  0.00  0.00    +0.004 C 
ATOM     18  C   UNL     1       0.714   5.572  -6.618  0.00  0.00    +0.005 C 
ATOM     19  C   UNL     1       3.447   6.705  -9.706  0.00  0.00    +0.003 C 
ENDROOT
BRANCH  14  20
ATOM     20  O   UNL     1       2.182   6.841  -2.077  0.00  0.00    -0.410 OA
BRANCH  20  21
ATOM     21  C   UNL     1       1.057   6.085  -1.788  0.00  0.00    +0.409 C 
ATOM     22  N   UNL     1      -0.297   6.452  -1.969  0.00  0.00    -0.243 N 
ATOM     23  O   UNL     1       1.180   4.989  -1.163  0.00  0.00    -0.226 OA
BRANCH  22  24
ATOM     24  C   UNL     1      -0.861   7.160  -0.812  0.00  0.00    +0.114 C 
BRANCH  24  25
ATOM     25  C   UNL     1      -1.828   6.218  -0.099  0.00  0.00    +0.116 C 
ATOM     26 CL   UNL     1      -1.965   6.750   1.602  0.00  0.00    -0.112 Cl
ENDBRANCH  24  25
ENDBRANCH  22  24
BRANCH  22  27
ATOM     27  C   UNL     1      -1.245   5.430  -2.428  0.00  0.00    +0.114 C 
BRANCH  27  28
ATOM     28  C   UNL     1      -1.768   5.681  -3.801  0.00  0.00    +0.116 C 
ATOM     29 CL   UNL     1      -1.324   7.333  -4.324  0.00  0.00    -0.112 Cl
ENDBRANCH  27  28
ENDBRANCH  22  27
ENDBRANCH  20  21
ENDBRANCH  14  20
TORSDOF 6
ENDMDL
MODEL 9
REMARK VINA RESULT:      -7.6      2.743      4.579
REMARK  Name = 
REMARK  6 active torsions:
REMARK  status: ('A' for Active; 'I' for Inactive)
REMARK    1  A    between atoms: C_9  and  O_10
REMARK    2  A    between atoms: O_10  and  C_11
REMARK    3  A    between atoms: N_13  and  C_14
REMARK    4  A    between atoms: N_13  and  C_17
REMARK    5  A    between atoms: C_14  and  C_15
REMARK    6  A    between atoms: C_17  and  C_18
REMARK                            x       y       z     vdW  Elec       q    Type
REMARK                         _______ _______ _______ _____ _____    ______ ____
ROOT
ATOM      1  C   UNL     1       1.596   4.625 -14.009  0.00  0.00    +0.003 C 
ATOM      2  C   UNL     1       2.167   5.897 -14.087  0.00  0.00    +0.028 C 
ATOM      3  C   UNL     1       1.463   6.885 -15.178  0.00  0.00    +0.152 C 
ATOM      4  O   UNL     1       0.194   6.040 -15.281  0.00  0.00    -0.223 OA
ATOM      5  C   UNL     1       0.704   7.843 -14.055  0.00  0.00    +0.033 C 
ATOM      6  C   UNL     1       0.336   6.746 -13.025  0.00  0.00    +0.003 C 
ATOM      7  C   UNL     1       1.936   6.823 -12.777  0.00  0.00    +0.003 C 
ATOM      8  C   UNL     1       2.144   5.458 -11.819  0.00  0.00    +0.004 C 
ATOM      9  C   UNL     1       3.697   6.102 -11.618  0.00  0.00    +0.022 C 
ATOM     10  C   UNL     1       4.163   5.057 -10.505  0.00  0.00    -0.026 A 
ATOM     11  C   UNL     1       3.218   4.642  -9.560  0.00  0.00    -0.023 A 
ATOM     12  C   UNL     1       1.750   4.681  -9.817  0.00  0.00    +0.026 C 
ATOM     13  C   UNL     1       3.653   4.571  -8.235  0.00  0.00    +0.033 A 
ATOM     14  C   UNL     1       4.573   5.482  -7.724  0.00  0.00    +0.150 A 
ATOM     15  C   UNL     1       5.495   5.909  -8.647  0.00  0.00    +0.037 A 
ATOM     16  C   UNL     1       5.382   5.515  -9.988  0.00  0.00    -0.001 A 
ATOM     17  C   UNL     1       4.196   5.304 -12.954  0.00  0.00    +0.004 C 
ATOM     18  C   UNL     1       1.500   6.064 -10.466  0.00  0.00    +0.005 C 
ATOM     19  C   UNL     1       3.665   6.089 -14.155  0.00  0.00    +0.003 C 
ENDROOT
BRANCH  14  20
ATOM     20  O   UNL     1       4.378   6.046  -6.453  0.00  0.00    -0.410 OA
BRANCH  20  21
ATOM     21  C   UNL     1       3.081   6.406  -6.123  0.00  0.00    +0.409 C 
ATOM     22  N   UNL     1       2.188   5.722  -5.265  0.00  0.00    -0.243 N 
ATOM     23  O   UNL     1       2.523   7.370  -6.729  0.00  0.00    -0.226 OA
BRANCH  22  24
ATOM     24  C   UNL     1       1.394   4.699  -5.958  0.00  0.00    +0.114 C 
BRANCH  24  25
ATOM     25  C   UNL     1      -0.080   5.088  -5.858  0.00  0.00    +0.116 C 
ATOM     26 CL   UNL     1      -0.649   5.528  -7.494  0.00  0.00    -0.112 Cl
ENDBRANCH  24  25
ENDBRANCH  22  24
BRANCH  22  27
ATOM     27  C   UNL     1       1.315   6.511  -4.389  0.00  0.00    +0.114 C 
BRANCH  27  28
ATOM     28  C   UNL     1       1.578   6.292  -2.938  0.00  0.00    +0.116 C 
ATOM     29 CL   UNL     1       0.410   5.106  -2.285  0.00  0.00    -0.112 Cl
ENDBRANCH  27  28
ENDBRANCH  22  27
ENDBRANCH  20  21
ENDBRANCH  14  20
TORSDOF 6
ENDMDL
