MODEL 1
REMARK VINA RESULT:      -6.7      0.000      0.000
REMARK  Name = 
REMARK  2 active torsions:
REMARK  status: ('A' for Active; 'I' for Inactive)
REMARK    1  A    between atoms: C_2  and  C_3
REMARK    2  A    between atoms: C_2  and  N_12
REMARK                            x       y       z     vdW  Elec       q    Type
REMARK                         _______ _______ _______ _____ _____    ______ ____
ROOT
ATOM      1  C   UNL     1       4.025   5.271  -8.420  0.00  0.00    +0.026 A 
ATOM      2  S   UNL     1       3.796   5.482 -10.111  0.00  0.00    -0.090 S 
ATOM      3  C   UNL     1       5.426   5.628 -10.649  0.00  0.00    +0.029 A 
ATOM      4  C   UNL     1       6.099   5.551  -9.437  0.00  0.00    +0.006 A 
ATOM      5  C   UNL     1       7.432   5.960  -9.536  0.00  0.00    +0.001 A 
ATOM      6  C   UNL     1       7.718   7.067 -10.331  0.00  0.00    +0.000 A 
ATOM      7  C   UNL     1       7.113   7.066 -11.584  0.00  0.00    +0.001 A 
ATOM      8  C   UNL     1       6.043   6.192 -11.772  0.00  0.00    +0.006 A 
ATOM      9  C   UNL     1       5.375   5.157  -8.392  0.00  0.00    +0.004 A 
ENDROOT
BRANCH   1  11
ATOM     10  C   UNL     1       4.275   5.755  -6.100  0.00  0.00    +0.027 C 
ATOM     11  C   UNL     1       3.290   6.274  -7.341  0.00  0.00    +0.109 C 
BRANCH  11  12
ATOM     12  N   UNL     1       2.165   5.196  -6.983  0.00  0.00    -0.264 N 
ATOM     13  C   UNL     1       0.929   5.921  -6.840  0.00  0.00    +0.188 C 
ATOM     14  O   UNL     1       0.937   7.031  -6.250  0.00  0.00    -0.524 OA
ATOM     15  N   UNL     1      -0.332   5.273  -6.945  0.00  0.00    -0.102 NA
ATOM     16  O   UNL     1       2.487   4.571  -5.810  0.00  0.00    -0.418 OA
ENDBRANCH  11  12
ENDBRANCH   1  11
TORSDOF 2
ENDMDL
MODEL 2
REMARK VINA RESULT:      -6.5      3.276      7.245
REMARK  Name = 
REMARK  2 active torsions:
REMARK  status: ('A' for Active; 'I' for Inactive)
REMARK    1  A    between atoms: C_2  and  C_3
REMARK    2  A    between atoms: C_2  and  N_12
REMARK                            x       y       z     vdW  Elec       q    Type
REMARK                         _______ _______ _______ _____ _____    ______ ____
ROOT
ATOM      1  C   UNL     1       0.511   5.206  -7.127  0.00  0.00    +0.026 A 
ATOM      2  S   UNL     1       0.860   5.305  -5.447  0.00  0.00    -0.090 S 
ATOM      3  C   UNL     1      -0.679   5.751  -4.815  0.00  0.00    +0.029 A 
ATOM      4  C   UNL     1      -1.412   5.855  -5.990  0.00  0.00    +0.006 A 
ATOM      5  C   UNL     1      -2.631   6.516  -5.806  0.00  0.00    +0.001 A 
ATOM      6  C   UNL     1      -2.650   7.628  -4.968  0.00  0.00    +0.000 A 
ATOM      7  C   UNL     1      -1.996   7.461  -3.750  0.00  0.00    +0.001 A 
ATOM      8  C   UNL     1      -1.115   6.385  -3.645  0.00  0.00    +0.006 A 
ATOM      9  C   UNL     1      -0.835   5.363  -7.084  0.00  0.00    +0.004 A 
ENDROOT
BRANCH   1  11
ATOM     10  C   UNL     1       0.618   5.340  -9.504  0.00  0.00    +0.027 C 
ATOM     11  C   UNL     1       1.378   6.082  -8.219  0.00  0.00    +0.109 C 
BRANCH  11  12
ATOM     12  N   UNL     1       2.577   5.024  -8.236  0.00  0.00    -0.264 N 
ATOM     13  C   UNL     1       3.792   5.780  -8.403  0.00  0.00    +0.188 C 
ATOM     14  O   UNL     1       3.803   6.746  -9.207  0.00  0.00    -0.524 OA
ATOM     15  N   UNL     1       5.058   5.244  -8.045  0.00  0.00    -0.102 NA
ATOM     16  O   UNL     1       2.408   4.159  -9.281  0.00  0.00    -0.418 OA
ENDBRANCH  11  12
ENDBRANCH   1  11
TORSDOF 2
ENDMDL
MODEL 3
REMARK VINA RESULT:      -6.3      4.164      7.138
REMARK  Name = 
REMARK  2 active torsions:
REMARK  status: ('A' for Active; 'I' for Inactive)
REMARK    1  A    between atoms: C_2  and  C_3
REMARK    2  A    between atoms: C_2  and  N_12
REMARK                            x       y       z     vdW  Elec       q    Type
REMARK                         _______ _______ _______ _____ _____    ______ ____
ROOT
ATOM      1  C   UNL     1       0.987   4.949  -6.504  0.00  0.00    +0.026 A 
ATOM      2  S   UNL     1       0.975   5.121  -4.793  0.00  0.00    -0.090 S 
ATOM      3  C   UNL     1      -0.658   5.599  -4.522  0.00  0.00    +0.029 A 
ATOM      4  C   UNL     1      -1.125   5.652  -5.828  0.00  0.00    +0.006 A 
ATOM      5  C   UNL     1      -2.347   6.324  -5.934  0.00  0.00    +0.001 A 
ATOM      6  C   UNL     1      -2.530   7.472  -5.168  0.00  0.00    +0.000 A 
ATOM      7  C   UNL     1      -2.150   7.357  -3.834  0.00  0.00    +0.001 A 
ATOM      8  C   UNL     1      -1.324   6.285  -3.499  0.00  0.00    +0.006 A 
ATOM      9  C   UNL     1      -0.335   5.111  -6.753  0.00  0.00    +0.004 A 
ENDROOT
BRANCH   1  11
ATOM     10  C   UNL     1       1.592   7.237  -6.787  0.00  0.00    +0.027 C 
ATOM     11  C   UNL     1       2.075   5.773  -7.424  0.00  0.00    +0.109 C 
BRANCH  11  12
ATOM     12  N   UNL     1       1.061   5.901  -8.653  0.00  0.00    -0.264 N 
ATOM     13  C   UNL     1       1.479   4.936  -9.636  0.00  0.00    +0.188 C 
ATOM     14  O   UNL     1       2.707   4.783  -9.856  0.00  0.00    -0.524 OA
ATOM     15  N   UNL     1       0.595   4.470 -10.646  0.00  0.00    -0.102 NA
ATOM     16  O   UNL     1       1.127   7.166  -9.170  0.00  0.00    -0.418 OA
ENDBRANCH  11  12
ENDBRANCH   1  11
TORSDOF 2
ENDMDL
MODEL 4
REMARK VINA RESULT:      -6.3      1.825      2.832
REMARK  Name = 
REMARK  2 active torsions:
REMARK  status: ('A' for Active; 'I' for Inactive)
REMARK    1  A    between atoms: C_2  and  C_3
REMARK    2  A    between atoms: C_2  and  N_12
REMARK                            x       y       z     vdW  Elec       q    Type
REMARK                         _______ _______ _______ _____ _____    ______ ____
ROOT
ATOM      1  C   UNL     1       4.336   6.157  -9.573  0.00  0.00    +0.026 A 
ATOM      2  S   UNL     1       5.845   5.485  -9.097  0.00  0.00    -0.090 S 
ATOM      3  C   UNL     1       6.893   6.152 -10.290  0.00  0.00    +0.029 A 
ATOM      4  C   UNL     1       5.979   6.856 -11.063  0.00  0.00    +0.006 A 
ATOM      5  C   UNL     1       6.508   7.245 -12.298  0.00  0.00    +0.001 A 
ATOM      6  C   UNL     1       7.319   6.339 -12.976  0.00  0.00    +0.000 A 
ATOM      7  C   UNL     1       8.297   5.726 -12.197  0.00  0.00    +0.001 A 
ATOM      8  C   UNL     1       8.141   5.793 -10.814  0.00  0.00    +0.006 A 
ATOM      9  C   UNL     1       4.764   7.003 -10.541  0.00  0.00    +0.004 A 
ENDROOT
BRANCH   1  11
ATOM     10  C   UNL     1       2.420   6.267 -10.988  0.00  0.00    +0.027 C 
ATOM     11  C   UNL     1       3.043   5.184  -9.883  0.00  0.00    +0.109 C 
BRANCH  11  12
ATOM     12  N   UNL     1       2.184   5.810  -8.690  0.00  0.00    -0.264 N 
ATOM     13  C   UNL     1       2.402   4.972  -7.539  0.00  0.00    +0.188 C 
ATOM     14  O   UNL     1       2.439   3.725  -7.692  0.00  0.00    -0.524 OA
ATOM     15  N   UNL     1       2.155   5.438  -6.220  0.00  0.00    -0.102 NA
ATOM     16  O   UNL     1       0.860   5.811  -9.032  0.00  0.00    -0.418 OA
ENDBRANCH  11  12
ENDBRANCH   1  11
TORSDOF 2
ENDMDL
MODEL 5
REMARK VINA RESULT:      -6.2      6.306      7.705
REMARK  Name = 
REMARK  2 active torsions:
REMARK  status: ('A' for Active; 'I' for Inactive)
REMARK    1  A    between atoms: C_2  and  C_3
REMARK    2  A    between atoms: C_2  and  N_12
REMARK                            x       y       z     vdW  Elec       q    Type
REMARK                         _______ _______ _______ _____ _____    ______ ____
ROOT
ATOM      1  C   UNL     1       0.772   6.076  -3.156  0.00  0.00    +0.026 A 
ATOM      2  S   UNL     1       1.436   5.501  -4.634  0.00  0.00    -0.090 S 
ATOM      3  C   UNL     1       0.187   5.925  -5.743  0.00  0.00    +0.029 A 
ATOM      4  C   UNL     1      -0.747   6.472  -4.873  0.00  0.00    +0.006 A 
ATOM      5  C   UNL     1      -2.007   6.617  -5.461  0.00  0.00    +0.001 A 
ATOM      6  C   UNL     1      -2.462   5.595  -6.291  0.00  0.00    +0.000 A 
ATOM      7  C   UNL     1      -1.537   5.137  -7.225  0.00  0.00    +0.001 A 
ATOM      8  C   UNL     1      -0.200   5.467  -7.008  0.00  0.00    +0.006 A 
ATOM      9  C   UNL     1      -0.318   6.721  -3.638  0.00  0.00    +0.004 A 
ENDROOT
BRANCH   1  11
ATOM     10  C   UNL     1      -0.645   5.994  -1.241  0.00  0.00    +0.027 C 
ATOM     11  C   UNL     1       0.592   5.067  -1.867  0.00  0.00    +0.109 C 
BRANCH  11  12
ATOM     12  N   UNL     1       1.693   5.843  -1.005  0.00  0.00    -0.264 N 
ATOM     13  C   UNL     1       2.811   4.946  -0.860  0.00  0.00    +0.188 C 
ATOM     14  O   UNL     1       2.591   3.728  -0.638  0.00  0.00    -0.524 OA
ATOM     15  N   UNL     1       4.110   5.421  -0.535  0.00  0.00    -0.102 NA
ATOM     16  O   UNL     1       1.175   6.157   0.221  0.00  0.00    -0.418 OA
ENDBRANCH  11  12
ENDBRANCH   1  11
TORSDOF 2
ENDMDL
MODEL 6
REMARK VINA RESULT:      -6.2      2.174      2.328
REMARK  Name = 
REMARK  2 active torsions:
REMARK  status: ('A' for Active; 'I' for Inactive)
REMARK    1  A    between atoms: C_2  and  C_3
REMARK    2  A    between atoms: C_2  and  N_12
REMARK                            x       y       z     vdW  Elec       q    Type
REMARK                         _______ _______ _______ _____ _____    ______ ____
ROOT
ATOM      1  C   UNL     1       3.442   5.542  -9.889  0.00  0.00    +0.026 A 
ATOM      2  S   UNL     1       3.928   5.690 -11.531  0.00  0.00    -0.090 S 
ATOM      3  C   UNL     1       5.642   5.636 -11.373  0.00  0.00    +0.029 A 
ATOM      4  C   UNL     1       5.766   5.551  -9.993  0.00  0.00    +0.006 A 
ATOM      5  C   UNL     1       7.067   5.812  -9.553  0.00  0.00    +0.001 A 
ATOM      6  C   UNL     1       7.772   6.841 -10.172  0.00  0.00    +0.000 A 
ATOM      7  C   UNL     1       7.717   6.840 -11.563  0.00  0.00    +0.001 A 
ATOM      8  C   UNL     1       6.716   6.075 -12.159  0.00  0.00    +0.006 A 
ATOM      9  C   UNL     1       4.647   5.288  -9.322  0.00  0.00    +0.004 A 
ENDROOT
BRANCH   1  11
ATOM     10  C   UNL     1       2.846   6.147  -7.661  0.00  0.00    +0.027 C 
ATOM     11  C   UNL     1       2.461   6.670  -9.197  0.00  0.00    +0.109 C 
BRANCH  11  12
ATOM     12  N   UNL     1       1.180   5.716  -9.269  0.00  0.00    -0.264 N 
ATOM     13  C   UNL     1       0.463   6.077 -10.465  0.00  0.00    +0.188 C 
ATOM     14  O   UNL     1       0.352   7.292 -10.766  0.00  0.00    -0.524 OA
ATOM     15  N   UNL     1      -0.465   5.190 -11.074  0.00  0.00    -0.102 NA
ATOM     16  O   UNL     1       0.397   5.920  -8.166  0.00  0.00    -0.418 OA
ENDBRANCH  11  12
ENDBRANCH   1  11
TORSDOF 2
ENDMDL
MODEL 7
REMARK VINA RESULT:      -6.2      4.006      5.040
REMARK  Name = 
REMARK  2 active torsions:
REMARK  status: ('A' for Active; 'I' for Inactive)
REMARK    1  A    between atoms: C_2  and  C_3
REMARK    2  A    between atoms: C_2  and  N_12
REMARK                            x       y       z     vdW  Elec       q    Type
REMARK                         _______ _______ _______ _____ _____    ______ ____
ROOT
ATOM      1  C   UNL     1       0.754   5.117  -4.902  0.00  0.00    +0.026 A 
ATOM      2  S   UNL     1      -0.280   5.195  -6.274  0.00  0.00    -0.090 S 
ATOM      3  C   UNL     1       0.866   5.436  -7.537  0.00  0.00    +0.029 A 
ATOM      4  C   UNL     1       2.043   5.496  -6.802  0.00  0.00    +0.006 A 
ATOM      5  C   UNL     1       3.114   6.004  -7.544  0.00  0.00    +0.001 A 
ATOM      6  C   UNL     1       2.867   7.075  -8.399  0.00  0.00    +0.000 A 
ATOM      7  C   UNL     1       1.737   6.941  -9.201  0.00  0.00    +0.001 A 
ATOM      8  C   UNL     1       0.806   5.972  -8.830  0.00  0.00    +0.006 A 
ATOM      9  C   UNL     1       1.956   5.115  -5.530  0.00  0.00    +0.004 A 
ENDROOT
BRANCH   1  11
ATOM     10  C   UNL     1       1.916   5.582  -2.874  0.00  0.00    +0.027 C 
ATOM     11  C   UNL     1       0.529   6.127  -3.622  0.00  0.00    +0.109 C 
BRANCH  11  12
ATOM     12  N   UNL     1      -0.381   5.068  -2.844  0.00  0.00    -0.264 N 
ATOM     13  C   UNL     1      -1.669   5.686  -2.661  0.00  0.00    +0.188 C 
ATOM     14  O   UNL     1      -1.724   6.902  -2.348  0.00  0.00    -0.524 OA
ATOM     15  N   UNL     1      -2.835   4.916  -2.402  0.00  0.00    -0.102 NA
ATOM     16  O   UNL     1       0.184   4.783  -1.631  0.00  0.00    -0.418 OA
ENDBRANCH  11  12
ENDBRANCH   1  11
TORSDOF 2
ENDMDL
MODEL 8
REMARK VINA RESULT:      -6.2      4.936      6.422
REMARK  Name = 
REMARK  2 active torsions:
REMARK  status: ('A' for Active; 'I' for Inactive)
REMARK    1  A    between atoms: C_2  and  C_3
REMARK    2  A    between atoms: C_2  and  N_12
REMARK                            x       y       z     vdW  Elec       q    Type
REMARK                         _______ _______ _______ _____ _____    ______ ____
ROOT
ATOM      1  C   UNL     1       0.404   6.338  -3.713  0.00  0.00    +0.026 A 
ATOM      2  S   UNL     1       1.372   5.619  -2.488  0.00  0.00    -0.090 S 
ATOM      3  C   UNL     1       2.953   5.886  -3.118  0.00  0.00    +0.029 A 
ATOM      4  C   UNL     1       2.643   6.503  -4.322  0.00  0.00    +0.006 A 
ATOM      5  C   UNL     1       3.733   6.551  -5.197  0.00  0.00    +0.001 A 
ATOM      6  C   UNL     1       4.559   5.432  -5.273  0.00  0.00    +0.000 A 
ATOM      7  C   UNL     1       4.940   4.896  -4.046  0.00  0.00    +0.001 A 
ATOM      8  C   UNL     1       4.201   5.281  -2.928  0.00  0.00    +0.006 A 
ATOM      9  C   UNL     1       1.380   6.898  -4.467  0.00  0.00    +0.004 A 
ENDROOT
BRANCH   1  11
ATOM     10  C   UNL     1      -0.522   6.263  -5.908  0.00  0.00    +0.027 C 
ATOM     11  C   UNL     1      -0.782   5.475  -4.462  0.00  0.00    +0.109 C 
BRANCH  11  12
ATOM     12  N   UNL     1      -1.920   6.511  -4.029  0.00  0.00    -0.264 N 
ATOM     13  C   UNL     1      -2.613   5.921  -2.913  0.00  0.00    +0.188 C 
ATOM     14  O   UNL     1      -2.867   4.690  -2.935  0.00  0.00    -0.524 OA
ATOM     15  N   UNL     1      -3.382   6.707  -2.013  0.00  0.00    -0.102 NA
ATOM     16  O   UNL     1      -2.782   6.705  -5.074  0.00  0.00    -0.418 OA
ENDBRANCH  11  12
ENDBRANCH   1  11
TORSDOF 2
ENDMDL
MODEL 9
REMARK VINA RESULT:      -6.1      3.946      7.227
REMARK  Name = 
REMARK  2 active torsions:
REMARK  status: ('A' for Active; 'I' for Inactive)
REMARK    1  A    between atoms: C_2  and  C_3
REMARK    2  A    between atoms: C_2  and  N_12
REMARK                            x       y       z     vdW  Elec       q    Type
REMARK                         _______ _______ _______ _____ _____    ______ ____
ROOT
ATOM      1  C   UNL     1       1.342   5.455  -6.058  0.00  0.00    +0.026 A 
ATOM      2  S   UNL     1       0.948   5.330  -4.389  0.00  0.00    -0.090 S 
ATOM      3  C   UNL     1      -0.766   5.496  -4.442  0.00  0.00    +0.029 A 
ATOM      4  C   UNL     1      -0.957   5.699  -5.803  0.00  0.00    +0.006 A 
ATOM      5  C   UNL     1      -2.235   6.182  -6.099  0.00  0.00    +0.001 A 
ATOM      6  C   UNL     1      -2.784   7.141  -5.251  0.00  0.00    +0.000 A 
ATOM      7  C   UNL     1      -2.671   6.860  -3.892  0.00  0.00    +0.001 A 
ATOM      8  C   UNL     1      -1.744   5.887  -3.520  0.00  0.00    +0.006 A 
ATOM      9  C   UNL     1       0.093   5.452  -6.583  0.00  0.00    +0.004 A 
ENDROOT
BRANCH   1  11
ATOM     10  C   UNL     1       2.491   5.893  -8.100  0.00  0.00    +0.027 C 
ATOM     11  C   UNL     1       2.421   6.583  -6.584  0.00  0.00    +0.109 C 
BRANCH  11  12
ATOM     12  N   UNL     1       3.677   5.736  -6.072  0.00  0.00    -0.264 N 
ATOM     13  C   UNL     1       4.237   6.459  -4.959  0.00  0.00    +0.188 C 
ATOM     14  O   UNL     1       4.314   7.712  -5.023  0.00  0.00    -0.524 OA
ATOM     15  N   UNL     1       5.073   5.824  -4.002  0.00  0.00    -0.102 NA
ATOM     16  O   UNL     1       4.597   5.630  -7.079  0.00  0.00    -0.418 OA
ENDBRANCH  11  12
ENDBRANCH   1  11
TORSDOF 2
ENDMDL
