MODEL 1
REMARK VINA RESULT:      -7.1      0.000      0.000
REMARK  Name = 
REMARK  2 active torsions:
REMARK  status: ('A' for Active; 'I' for Inactive)
REMARK    1  A    between atoms: C_2  and  C_4
REMARK    2  A    between atoms: C_4  and  C_6
REMARK                            x       y       z     vdW  Elec       q    Type
REMARK                         _______ _______ _______ _____ _____    ______ ____
ROOT
ATOM      1  C   UNL     1       5.317   5.342 -11.676  0.00  0.00    +0.147 C 
ATOM      2  N   UNL     1       4.552   6.482 -10.883  0.00  0.00    -0.228 NA
ATOM      3  C   UNL     1       3.129   6.316 -10.862  0.00  0.00    +0.157 A 
ATOM      4  C   UNL     1       2.526   6.239 -12.113  0.00  0.00    +0.170 A 
ATOM      5  N   UNL     1       1.202   6.392 -12.165  0.00  0.00    -0.193 NA
ATOM      6  C   UNL     1       0.454   6.676 -11.088  0.00  0.00    +0.260 A 
ATOM      7  N   UNL     1       1.104   7.023  -9.966  0.00  0.00    -0.171 NA
ATOM      8  N   UNL     1      -0.873   7.145 -11.302  0.00  0.00    -0.086 NA
ATOM      9  N   UNL     1       3.275   5.456 -13.055  0.00  0.00    -0.217 NA
ATOM     10  C   UNL     1       2.352   6.542  -9.757  0.00  0.00    +0.299 A 
ATOM     11  O   UNL     1       2.887   6.483  -8.628  0.00  0.00    -0.264 OA
ATOM     12  C   UNL     1       4.673   5.822 -13.122  0.00  0.00    +0.138 C 
ENDROOT
BRANCH   1  13
ATOM     13  C   UNL     1       6.693   6.370 -11.919  0.00  0.00    +0.203 C 
ATOM     14  O   UNL     1       6.916   6.503 -10.431  0.00  0.00    -0.219 OA
BRANCH  13  16
ATOM     15  C   UNL     1       9.083   5.927 -12.125  0.00  0.00    +0.038 C 
ATOM     16  C   UNL     1       7.726   4.964 -11.993  0.00  0.00    +0.184 C 
ATOM     17  O   UNL     1       7.584   4.882 -13.522  0.00  0.00    -0.220 OA
ENDBRANCH  13  16
ENDBRANCH   1  13
TORSDOF 2
ENDMDL
MODEL 2
REMARK VINA RESULT:      -7.0      5.472      7.352
REMARK  Name = 
REMARK  2 active torsions:
REMARK  status: ('A' for Active; 'I' for Inactive)
REMARK    1  A    between atoms: C_2  and  C_4
REMARK    2  A    between atoms: C_4  and  C_6
REMARK                            x       y       z     vdW  Elec       q    Type
REMARK                         _______ _______ _______ _____ _____    ______ ____
ROOT
ATOM      1  C   UNL     1       1.808   5.913  -6.416  0.00  0.00    +0.147 C 
ATOM      2  N   UNL     1       0.396   5.193  -6.398  0.00  0.00    -0.228 NA
ATOM      3  C   UNL     1      -0.399   5.509  -5.248  0.00  0.00    +0.157 A 
ATOM      4  C   UNL     1       0.197   5.228  -4.024  0.00  0.00    +0.170 A 
ATOM      5  N   UNL     1      -0.592   5.209  -2.949  0.00  0.00    -0.193 NA
ATOM      6  C   UNL     1      -1.921   5.384  -3.011  0.00  0.00    +0.260 A 
ATOM      7  N   UNL     1      -2.484   5.365  -4.229  0.00  0.00    -0.171 NA
ATOM      8  N   UNL     1      -2.696   5.017  -1.875  0.00  0.00    -0.086 NA
ATOM      9  N   UNL     1       1.592   5.565  -3.983  0.00  0.00    -0.217 NA
ATOM     10  C   UNL     1      -1.747   5.750  -5.297  0.00  0.00    +0.299 A 
ATOM     11  O   UNL     1      -2.249   6.125  -6.380  0.00  0.00    -0.264 OA
ATOM     12  C   UNL     1       2.340   5.050  -5.109  0.00  0.00    +0.138 C 
ENDROOT
BRANCH   1  13
ATOM     13  C   UNL     1       2.454   4.721  -7.498  0.00  0.00    +0.203 C 
ATOM     14  O   UNL     1       1.434   5.062  -8.558  0.00  0.00    -0.219 OA
BRANCH  13  16
ATOM     15  C   UNL     1       4.006   4.881  -9.373  0.00  0.00    +0.038 C 
ATOM     16  C   UNL     1       3.572   5.905  -8.129  0.00  0.00    +0.184 C 
ATOM     17  O   UNL     1       4.709   5.375  -7.240  0.00  0.00    -0.220 OA
ENDBRANCH  13  16
ENDBRANCH   1  13
TORSDOF 2
ENDMDL
MODEL 3
REMARK VINA RESULT:      -6.9      2.573      5.907
REMARK  Name = 
REMARK  2 active torsions:
REMARK  status: ('A' for Active; 'I' for Inactive)
REMARK    1  A    between atoms: C_2  and  C_4
REMARK    2  A    between atoms: C_4  and  C_6
REMARK                            x       y       z     vdW  Elec       q    Type
REMARK                         _______ _______ _______ _____ _____    ______ ____
ROOT
ATOM      1  C   UNL     1       3.645   6.135  -8.462  0.00  0.00    +0.147 C 
ATOM      2  N   UNL     1       5.015   5.372  -8.696  0.00  0.00    -0.228 NA
ATOM      3  C   UNL     1       5.616   5.640  -9.969  0.00  0.00    +0.157 A 
ATOM      4  C   UNL     1       4.817   5.351 -11.070  0.00  0.00    +0.170 A 
ATOM      5  N   UNL     1       5.414   5.287 -12.260  0.00  0.00    -0.193 NA
ATOM      6  C   UNL     1       6.740   5.423 -12.424  0.00  0.00    +0.260 A 
ATOM      7  N   UNL     1       7.497   5.411 -11.316  0.00  0.00    -0.171 NA
ATOM      8  N   UNL     1       7.305   5.008 -13.663  0.00  0.00    -0.086 NA
ATOM      9  N   UNL     1       3.444   5.730 -10.887  0.00  0.00    -0.217 NA
ATOM     10  C   UNL     1       6.959   5.841 -10.151  0.00  0.00    +0.299 A 
ATOM     11  O   UNL     1       7.643   6.223  -9.176  0.00  0.00    -0.264 OA
ATOM     12  C   UNL     1       2.880   5.260  -9.640  0.00  0.00    +0.138 C 
ENDROOT
BRANCH   1  13
ATOM     13  C   UNL     1       3.157   4.985  -7.258  0.00  0.00    +0.203 C 
ATOM     14  O   UNL     1       4.288   5.392  -6.343  0.00  0.00    -0.219 OA
BRANCH  13  16
ATOM     15  C   UNL     1       1.866   5.226  -5.203  0.00  0.00    +0.038 C 
ATOM     16  C   UNL     1       2.097   6.180  -6.553  0.00  0.00    +0.184 C 
ATOM     17  O   UNL     1       0.869   5.569  -7.247  0.00  0.00    -0.220 OA
ENDBRANCH  13  16
ENDBRANCH   1  13
TORSDOF 2
ENDMDL
MODEL 4
REMARK VINA RESULT:      -6.7      2.497      6.254
REMARK  Name = 
REMARK  2 active torsions:
REMARK  status: ('A' for Active; 'I' for Inactive)
REMARK    1  A    between atoms: C_2  and  C_4
REMARK    2  A    between atoms: C_4  and  C_6
REMARK                            x       y       z     vdW  Elec       q    Type
REMARK                         _______ _______ _______ _____ _____    ______ ____
ROOT
ATOM      1  C   UNL     1       3.633   4.844  -9.636  0.00  0.00    +0.147 C 
ATOM      2  N   UNL     1       4.100   5.598 -10.950  0.00  0.00    -0.228 NA
ATOM      3  C   UNL     1       5.468   5.355 -11.300  0.00  0.00    +0.157 A 
ATOM      4  C   UNL     1       6.395   5.677 -10.316  0.00  0.00    +0.170 A 
ATOM      5  N   UNL     1       7.674   5.764 -10.684  0.00  0.00    -0.193 NA
ATOM      6  C   UNL     1       8.083   5.619 -11.954  0.00  0.00    +0.260 A 
ATOM      7  N   UNL     1       7.135   5.596 -12.903  0.00  0.00    -0.171 NA
ATOM      8  N   UNL     1       9.396   6.056 -12.286  0.00  0.00    -0.086 NA
ATOM      9  N   UNL     1       5.969   5.308  -8.995  0.00  0.00    -0.217 NA
ATOM     10  C   UNL     1       5.900   5.144 -12.583  0.00  0.00    +0.299 A 
ATOM     11  O   UNL     1       5.077   4.732 -13.431  0.00  0.00    -0.264 OA
ATOM     12  C   UNL     1       4.630   5.754  -8.679  0.00  0.00    +0.138 C 
ENDROOT
BRANCH   1  13
ATOM     13  C   UNL     1       2.335   5.969  -9.395  0.00  0.00    +0.203 C 
ATOM     14  O   UNL     1       1.577   5.420 -10.581  0.00  0.00    -0.219 OA
BRANCH  13  16
ATOM     15  C   UNL     1       0.083   5.585  -8.541  0.00  0.00    +0.038 C 
ATOM     16  C   UNL     1       1.557   4.836  -8.317  0.00  0.00    +0.184 C 
ATOM     17  O   UNL     1       1.866   5.716  -7.095  0.00  0.00    -0.220 OA
ENDBRANCH  13  16
ENDBRANCH   1  13
TORSDOF 2
ENDMDL
MODEL 5
REMARK VINA RESULT:      -6.5      2.953      3.718
REMARK  Name = 
REMARK  2 active torsions:
REMARK  status: ('A' for Active; 'I' for Inactive)
REMARK    1  A    between atoms: C_2  and  C_4
REMARK    2  A    between atoms: C_4  and  C_6
REMARK                            x       y       z     vdW  Elec       q    Type
REMARK                         _______ _______ _______ _____ _____    ______ ____
ROOT
ATOM      1  C   UNL     1       3.483   5.095  -9.649  0.00  0.00    +0.147 C 
ATOM      2  N   UNL     1       3.111   5.440  -8.147  0.00  0.00    -0.228 NA
ATOM      3  C   UNL     1       1.774   5.074  -7.784  0.00  0.00    +0.157 A 
ATOM      4  C   UNL     1       0.775   5.635  -8.571  0.00  0.00    +0.170 A 
ATOM      5  N   UNL     1      -0.474   5.583  -8.105  0.00  0.00    -0.193 NA
ATOM      6  C   UNL     1      -0.786   5.079  -6.901  0.00  0.00    +0.260 A 
ATOM      7  N   UNL     1       0.230   4.816  -6.065  0.00  0.00    -0.171 NA
ATOM      8  N   UNL     1      -2.073   5.373  -6.368  0.00  0.00    -0.086 NA
ATOM      9  N   UNL     1       1.103   5.661  -9.968  0.00  0.00    -0.217 NA
ATOM     10  C   UNL     1       1.440   4.503  -6.584  0.00  0.00    +0.299 A 
ATOM     11  O   UNL     1       2.326   3.891  -5.946  0.00  0.00    -0.264 OA
ATOM     12  C   UNL     1       2.413   6.210 -10.240  0.00  0.00    +0.138 C 
ENDROOT
BRANCH   1  13
ATOM     13  C   UNL     1       4.754   6.275  -9.655  0.00  0.00    +0.203 C 
ATOM     14  O   UNL     1       5.579   5.461  -8.686  0.00  0.00    -0.219 OA
BRANCH  13  16
ATOM     15  C   UNL     1       6.930   6.268 -10.756  0.00  0.00    +0.038 C 
ATOM     16  C   UNL     1       5.487   5.474 -11.022  0.00  0.00    +0.184 C 
ATOM     17  O   UNL     1       5.010   6.575 -11.983  0.00  0.00    -0.220 OA
ENDBRANCH  13  16
ENDBRANCH   1  13
TORSDOF 2
ENDMDL
MODEL 6
REMARK VINA RESULT:      -6.4      4.341      6.654
REMARK  Name = 
REMARK  2 active torsions:
REMARK  status: ('A' for Active; 'I' for Inactive)
REMARK    1  A    between atoms: C_2  and  C_4
REMARK    2  A    between atoms: C_4  and  C_6
REMARK                            x       y       z     vdW  Elec       q    Type
REMARK                         _______ _______ _______ _____ _____    ______ ____
ROOT
ATOM      1  C   UNL     1       4.126   6.607  -5.372  0.00  0.00    +0.147 C 
ATOM      2  N   UNL     1       4.233   5.444  -6.445  0.00  0.00    -0.228 NA
ATOM      3  C   UNL     1       4.152   5.899  -7.801  0.00  0.00    +0.157 A 
ATOM      4  C   UNL     1       3.001   6.614  -8.114  0.00  0.00    +0.170 A 
ATOM      5  N   UNL     1       2.726   6.795  -9.407  0.00  0.00    -0.193 NA
ATOM      6  C   UNL     1       3.467   6.269 -10.395  0.00  0.00    +0.260 A 
ATOM      7  N   UNL     1       4.390   5.358 -10.049  0.00  0.00    -0.171 NA
ATOM      8  N   UNL     1       2.908   6.238 -11.704  0.00  0.00    -0.086 NA
ATOM      9  N   UNL     1       2.601   7.525  -7.080  0.00  0.00    -0.217 NA
ATOM     10  C   UNL     1       4.939   5.420  -8.814  0.00  0.00    +0.299 A 
ATOM     11  O   UNL     1       6.034   4.890  -8.520  0.00  0.00    -0.264 OA
ATOM     12  C   UNL     1       2.550   6.918  -5.768  0.00  0.00    +0.138 C 
ENDROOT
BRANCH   1  13
ATOM     13  C   UNL     1       3.623   5.490  -4.143  0.00  0.00    +0.203 C 
ATOM     14  O   UNL     1       4.925   4.730  -4.234  0.00  0.00    -0.219 OA
BRANCH  13  16
ATOM     15  C   UNL     1       4.104   5.365  -1.755  0.00  0.00    +0.038 C 
ATOM     16  C   UNL     1       4.274   6.550  -2.918  0.00  0.00    +0.184 C 
ATOM     17  O   UNL     1       2.881   7.119  -2.602  0.00  0.00    -0.220 OA
ENDBRANCH  13  16
ENDBRANCH   1  13
TORSDOF 2
ENDMDL
MODEL 7
REMARK VINA RESULT:      -6.4      4.305      5.956
REMARK  Name = 
REMARK  2 active torsions:
REMARK  status: ('A' for Active; 'I' for Inactive)
REMARK    1  A    between atoms: C_2  and  C_4
REMARK    2  A    between atoms: C_4  and  C_6
REMARK                            x       y       z     vdW  Elec       q    Type
REMARK                         _______ _______ _______ _____ _____    ______ ____
ROOT
ATOM      1  C   UNL     1       0.539   6.390 -10.012  0.00  0.00    +0.147 C 
ATOM      2  N   UNL     1       0.349   5.317  -8.861  0.00  0.00    -0.228 NA
ATOM      3  C   UNL     1       0.339   5.877  -7.543  0.00  0.00    +0.157 A 
ATOM      4  C   UNL     1       1.472   6.611  -7.207  0.00  0.00    +0.170 A 
ATOM      5  N   UNL     1       1.658   6.893  -5.917  0.00  0.00    -0.193 NA
ATOM      6  C   UNL     1       0.846   6.449  -4.944  0.00  0.00    +0.260 A 
ATOM      7  N   UNL     1      -0.058   5.516  -5.281  0.00  0.00    -0.171 NA
ATOM      8  N   UNL     1       1.313   6.519  -3.601  0.00  0.00    -0.086 NA
ATOM      9  N   UNL     1       1.950   7.436  -8.280  0.00  0.00    -0.217 NA
ATOM     10  C   UNL     1      -0.520   5.482  -6.553  0.00  0.00    +0.299 A 
ATOM     11  O   UNL     1      -1.597   4.934  -6.879  0.00  0.00    -0.264 OA
ATOM     12  C   UNL     1       2.087   6.727  -9.533  0.00  0.00    +0.138 C 
ENDROOT
BRANCH   1  13
ATOM     13  C   UNL     1       1.117   5.179 -11.111  0.00  0.00    +0.203 C 
ATOM     14  O   UNL     1      -0.204   4.447 -11.073  0.00  0.00    -0.219 OA
BRANCH  13  16
ATOM     15  C   UNL     1       0.802   4.877 -13.511  0.00  0.00    +0.038 C 
ATOM     16  C   UNL     1       0.589   6.155 -12.459  0.00  0.00    +0.184 C 
ATOM     17  O   UNL     1       2.019   6.658 -12.715  0.00  0.00    -0.220 OA
ENDBRANCH  13  16
ENDBRANCH   1  13
TORSDOF 2
ENDMDL
MODEL 8
REMARK VINA RESULT:      -6.4      5.682      7.424
REMARK  Name = 
REMARK  2 active torsions:
REMARK  status: ('A' for Active; 'I' for Inactive)
REMARK    1  A    between atoms: C_2  and  C_4
REMARK    2  A    between atoms: C_4  and  C_6
REMARK                            x       y       z     vdW  Elec       q    Type
REMARK                         _______ _______ _______ _____ _____    ______ ____
ROOT
ATOM      1  C   UNL     1       1.120   4.624  -6.306  0.00  0.00    +0.147 C 
ATOM      2  N   UNL     1       0.993   5.536  -5.016  0.00  0.00    -0.228 NA
ATOM      3  C   UNL     1      -0.272   5.426  -4.352  0.00  0.00    +0.157 A 
ATOM      4  C   UNL     1      -1.378   5.715  -5.143  0.00  0.00    +0.170 A 
ATOM      5  N   UNL     1      -2.538   5.928  -4.519  0.00  0.00    -0.193 NA
ATOM      6  C   UNL     1      -2.660   5.939  -3.182  0.00  0.00    +0.260 A 
ATOM      7  N   UNL     1      -1.526   5.943  -2.464  0.00  0.00    -0.171 NA
ATOM      8  N   UNL     1      -3.844   6.500  -2.625  0.00  0.00    -0.086 NA
ATOM      9  N   UNL     1      -1.276   5.188  -6.474  0.00  0.00    -0.217 NA
ATOM     10  C   UNL     1      -0.416   5.375  -2.991  0.00  0.00    +0.299 A 
ATOM     11  O   UNL     1       0.555   4.991  -2.301  0.00  0.00    -0.264 OA
ATOM     12  C   UNL     1      -0.021   5.503  -7.121  0.00  0.00    +0.138 C 
ENDROOT
BRANCH   1  13
ATOM     13  C   UNL     1       2.384   5.624  -6.947  0.00  0.00    +0.203 C 
ATOM     14  O   UNL     1       3.330   5.219  -5.841  0.00  0.00    -0.219 OA
BRANCH  13  16
ATOM     15  C   UNL     1       4.364   5.075  -8.261  0.00  0.00    +0.038 C 
ATOM     16  C   UNL     1       2.919   4.300  -7.951  0.00  0.00    +0.184 C 
ATOM     17  O   UNL     1       2.270   4.922  -9.198  0.00  0.00    -0.220 OA
ENDBRANCH  13  16
ENDBRANCH   1  13
TORSDOF 2
ENDMDL
MODEL 9
REMARK VINA RESULT:      -6.4      5.405      8.929
REMARK  Name = 
REMARK  2 active torsions:
REMARK  status: ('A' for Active; 'I' for Inactive)
REMARK    1  A    between atoms: C_2  and  C_4
REMARK    2  A    between atoms: C_4  and  C_6
REMARK                            x       y       z     vdW  Elec       q    Type
REMARK                         _______ _______ _______ _____ _____    ______ ____
ROOT
ATOM      1  C   UNL     1      -0.620   5.242  -4.802  0.00  0.00    +0.147 C 
ATOM      2  N   UNL     1      -0.306   6.172  -6.047  0.00  0.00    -0.228 NA
ATOM      3  C   UNL     1       0.839   5.759  -6.803  0.00  0.00    +0.157 A 
ATOM      4  C   UNL     1       2.021   5.665  -6.079  0.00  0.00    +0.170 A 
ATOM      5  N   UNL     1       3.159   5.588  -6.771  0.00  0.00    -0.193 NA
ATOM      6  C   UNL     1       3.209   5.660  -8.110  0.00  0.00    +0.260 A 
ATOM      7  N   UNL     1       2.087   6.036  -8.744  0.00  0.00    -0.171 NA
ATOM      8  N   UNL     1       4.473   5.903  -8.718  0.00  0.00    -0.086 NA
ATOM      9  N   UNL     1       1.842   5.094  -4.774  0.00  0.00    -0.217 NA
ATOM     10  C   UNL     1       0.891   5.767  -8.172  0.00  0.00    +0.299 A 
ATOM     11  O   UNL     1      -0.184   5.724  -8.812  0.00  0.00    -0.264 OA
ATOM     12  C   UNL     1       0.766   5.703  -4.024  0.00  0.00    +0.138 C 
ENDROOT
BRANCH   1  13
ATOM     13  C   UNL     1      -1.509   6.510  -4.020  0.00  0.00    +0.203 C 
ATOM     14  O   UNL     1      -2.411   6.682  -5.220  0.00  0.00    -0.219 OA
BRANCH  13  16
ATOM     15  C   UNL     1      -3.472   6.518  -2.572  0.00  0.00    +0.038 C 
ATOM     16  C   UNL     1      -2.585   5.322  -3.326  0.00  0.00    +0.184 C 
ATOM     17  O   UNL     1      -1.682   5.156  -2.093  0.00  0.00    -0.220 OA
ENDBRANCH  13  16
ENDBRANCH   1  13
TORSDOF 2
ENDMDL
