MODEL 1
REMARK VINA RESULT:      -6.7      0.000      0.000
REMARK  Name = 
REMARK  8 active torsions:
REMARK  status: ('A' for Active; 'I' for Inactive)
REMARK    1  A    between atoms: C_2  and  C_4
REMARK    2  A    between atoms: C_4  and  N_5
REMARK    3  A    between atoms: N_8  and  C_9
REMARK    4  A    between atoms: C_9  and  C_10
REMARK    5  A    between atoms: N_15  and  C_16
REMARK    6  A    between atoms: C_16  and  C_17
REMARK    7  A    between atoms: N_22  and  C_23
REMARK    8  A    between atoms: C_23  and  C_24
REMARK                            x       y       z     vdW  Elec       q    Type
REMARK                         _______ _______ _______ _____ _____    ______ ____
ROOT
ATOM      1  N   UNL     1       2.351   5.974  -1.861  0.00  0.00    -0.261 NA
ATOM      2  C   UNL     1       1.140   6.558  -1.351  0.00  0.00    +0.090 C 
ATOM      3  C   UNL     1      -0.063   5.656  -1.483  0.00  0.00    +0.090 C 
ATOM      4  N   UNL     1      -1.226   6.463  -1.208  0.00  0.00    -0.261 NA
ATOM      5  C   UNL     1      -2.202   6.455  -2.256  0.00  0.00    +0.090 C 
ATOM      6  C   UNL     1      -1.805   7.519  -3.273  0.00  0.00    +0.090 C 
ATOM      7  N   UNL     1      -1.365   6.945  -4.518  0.00  0.00    -0.261 NA
ATOM      8  C   UNL     1      -0.183   7.575  -5.049  0.00  0.00    +0.090 C 
ATOM      9  C   UNL     1       0.855   6.510  -5.302  0.00  0.00    +0.090 C 
ATOM     10  N   UNL     1       2.205   7.061  -5.350  0.00  0.00    -0.261 NA
ATOM     11  C   UNL     1       2.904   6.870  -4.081  0.00  0.00    +0.090 C 
ATOM     12  C   UNL     1       2.304   5.737  -3.278  0.00  0.00    +0.090 C 
ENDROOT
BRANCH   1  13
ATOM     13  C   UNL     1       3.459   6.811  -1.455  0.00  0.00    +0.188 C 
BRANCH  13  15
ATOM     14  O   UNL     1       4.464   6.509   0.724  0.00  0.00    -0.244 OA
ATOM     15  C   UNL     1       4.231   6.053  -0.435  0.00  0.00    +0.381 C 
ATOM     16  O   UNL     1       4.574   4.726  -0.645  0.00  0.00    -0.244 OA
ENDBRANCH  13  15
ENDBRANCH   1  13
BRANCH   4  17
ATOM     17  C   UNL     1      -1.756   6.293   0.112  0.00  0.00    +0.188 C 
BRANCH  17  18
ATOM     18  C   UNL     1      -1.853   7.559   0.882  0.00  0.00    +0.381 C 
ATOM     19  O   UNL     1      -1.473   8.719   0.199  0.00  0.00    -0.244 OA
ATOM     20  O   UNL     1      -2.893   7.691   1.595  0.00  0.00    -0.244 OA
ENDBRANCH  17  18
ENDBRANCH   4  17
BRANCH  10  21
ATOM     21  C   UNL     1       2.916   6.356  -6.408  0.00  0.00    +0.188 C 
BRANCH  21  22
ATOM     22  C   UNL     1       2.735   6.998  -7.730  0.00  0.00    +0.381 C 
ATOM     23  O   UNL     1       3.457   6.493  -8.814  0.00  0.00    -0.244 OA
ATOM     24  O   UNL     1       2.346   8.202  -7.811  0.00  0.00    -0.244 OA
ENDBRANCH  21  22
ENDBRANCH  10  21
BRANCH   7  25
ATOM     25  C   UNL     1      -2.419   6.836  -5.494  0.00  0.00    +0.188 C 
BRANCH  25  26
ATOM     26  C   UNL     1      -2.542   5.489  -6.083  0.00  0.00    +0.381 C 
ATOM     27  O   UNL     1      -1.671   4.967  -7.025  0.00  0.00    -0.244 OA
ATOM     28  O   UNL     1      -3.365   4.699  -5.540  0.00  0.00    -0.244 OA
ENDBRANCH  25  26
ENDBRANCH   7  25
TORSDOF 8
ENDMDL
MODEL 2
REMARK VINA RESULT:      -6.7      2.921      4.423
REMARK  Name = 
REMARK  8 active torsions:
REMARK  status: ('A' for Active; 'I' for Inactive)
REMARK    1  A    between atoms: C_2  and  C_4
REMARK    2  A    between atoms: C_4  and  N_5
REMARK    3  A    between atoms: N_8  and  C_9
REMARK    4  A    between atoms: C_9  and  C_10
REMARK    5  A    between atoms: N_15  and  C_16
REMARK    6  A    between atoms: C_16  and  C_17
REMARK    7  A    between atoms: N_22  and  C_23
REMARK    8  A    between atoms: C_23  and  C_24
REMARK                            x       y       z     vdW  Elec       q    Type
REMARK                         _______ _______ _______ _____ _____    ______ ____
ROOT
ATOM      1  N   UNL     1       2.884   5.639  -4.559  0.00  0.00    -0.261 NA
ATOM      2  C   UNL     1       1.546   6.113  -4.789  0.00  0.00    +0.090 C 
ATOM      3  C   UNL     1       0.570   5.015  -5.135  0.00  0.00    +0.090 C 
ATOM      4  N   UNL     1      -0.630   5.653  -5.613  0.00  0.00    -0.261 NA
ATOM      5  C   UNL     1      -1.039   5.225  -6.917  0.00  0.00    +0.090 C 
ATOM      6  C   UNL     1      -0.283   6.063  -7.942  0.00  0.00    +0.090 C 
ATOM      7  N   UNL     1       0.690   5.288  -8.667  0.00  0.00    -0.261 NA
ATOM      8  C   UNL     1       1.953   5.963  -8.822  0.00  0.00    +0.090 C 
ATOM      9  C   UNL     1       3.046   5.062  -8.301  0.00  0.00    +0.090 C 
ATOM     10  N   UNL     1       4.249   5.807  -7.947  0.00  0.00    -0.261 NA
ATOM     11  C   UNL     1       4.321   6.051  -6.508  0.00  0.00    +0.090 C 
ATOM     12  C   UNL     1       3.481   5.061  -5.732  0.00  0.00    +0.090 C 
ENDROOT
BRANCH   1  13
ATOM     13  C   UNL     1       3.655   6.726  -3.997  0.00  0.00    +0.188 C 
BRANCH  13  15
ATOM     14  O   UNL     1       4.072   5.083  -2.271  0.00  0.00    -0.244 OA
ATOM     15  C   UNL     1       4.107   6.292  -2.648  0.00  0.00    +0.381 C 
ATOM     16  O   UNL     1       4.763   7.173  -1.802  0.00  0.00    -0.244 OA
ENDBRANCH  13  15
ENDBRANCH   1  13
BRANCH   4  17
ATOM     17  C   UNL     1      -1.683   5.720  -4.643  0.00  0.00    +0.188 C 
BRANCH  17  18
ATOM     18  C   UNL     1      -2.103   7.106  -4.314  0.00  0.00    +0.381 C 
ATOM     19  O   UNL     1      -2.465   7.334  -2.982  0.00  0.00    -0.244 OA
ATOM     20  O   UNL     1      -1.403   8.029  -4.830  0.00  0.00    -0.244 OA
ENDBRANCH  17  18
ENDBRANCH   4  17
BRANCH  10  21
ATOM     21  C   UNL     1       5.388   4.999  -8.361  0.00  0.00    +0.188 C 
BRANCH  21  22
ATOM     22  C   UNL     1       6.264   5.712  -9.319  0.00  0.00    +0.381 C 
ATOM     23  O   UNL     1       5.678   6.285 -10.450  0.00  0.00    -0.244 OA
ATOM     24  O   UNL     1       7.498   5.430  -9.392  0.00  0.00    -0.244 OA
ENDBRANCH  21  22
ENDBRANCH  10  21
BRANCH   7  25
ATOM     25  C   UNL     1       0.185   4.768  -9.911  0.00  0.00    +0.188 C 
BRANCH  25  26
ATOM     26  C   UNL     1       0.381   5.679 -11.055  0.00  0.00    +0.381 C 
ATOM     27  O   UNL     1       1.309   5.476 -12.064  0.00  0.00    -0.244 OA
ATOM     28  O   UNL     1      -0.488   6.580 -11.226  0.00  0.00    -0.244 OA
ENDBRANCH  25  26
ENDBRANCH   7  25
TORSDOF 8
ENDMDL
MODEL 3
REMARK VINA RESULT:      -6.6      2.315      5.670
REMARK  Name = 
REMARK  8 active torsions:
REMARK  status: ('A' for Active; 'I' for Inactive)
REMARK    1  A    between atoms: C_2  and  C_4
REMARK    2  A    between atoms: C_4  and  N_5
REMARK    3  A    between atoms: N_8  and  C_9
REMARK    4  A    between atoms: C_9  and  C_10
REMARK    5  A    between atoms: N_15  and  C_16
REMARK    6  A    between atoms: C_16  and  C_17
REMARK    7  A    between atoms: N_22  and  C_23
REMARK    8  A    between atoms: C_23  and  C_24
REMARK                            x       y       z     vdW  Elec       q    Type
REMARK                         _______ _______ _______ _____ _____    ______ ____
ROOT
ATOM      1  N   UNL     1      -0.789   6.355  -4.333  0.00  0.00    -0.261 NA
ATOM      2  C   UNL     1       0.286   5.793  -3.563  0.00  0.00    +0.090 C 
ATOM      3  C   UNL     1       1.497   6.690  -3.477  0.00  0.00    +0.090 C 
ATOM      4  N   UNL     1       2.572   5.895  -2.937  0.00  0.00    -0.261 NA
ATOM      5  C   UNL     1       3.744   5.865  -3.761  0.00  0.00    +0.090 C 
ATOM      6  C   UNL     1       3.559   4.763  -4.797  0.00  0.00    +0.090 C 
ATOM      7  N   UNL     1       3.389   5.289  -6.127  0.00  0.00    -0.261 NA
ATOM      8  C   UNL     1       2.338   4.637  -6.866  0.00  0.00    +0.090 C 
ATOM      9  C   UNL     1       1.381   5.690  -7.368  0.00  0.00    +0.090 C 
ATOM     10  N   UNL     1       0.067   5.137  -7.673  0.00  0.00    -0.261 NA
ATOM     11  C   UNL     1      -0.878   5.375  -6.584  0.00  0.00    +0.090 C 
ATOM     12  C   UNL     1      -0.449   6.538  -5.717  0.00  0.00    +0.090 C 
ENDROOT
BRANCH   1  13
ATOM     13  C   UNL     1      -1.962   5.533  -4.134  0.00  0.00    +0.188 C 
BRANCH  13  15
ATOM     14  O   UNL     1      -3.000   7.002  -2.517  0.00  0.00    -0.244 OA
ATOM     15  C   UNL     1      -2.510   5.867  -2.792  0.00  0.00    +0.381 C 
ATOM     16  O   UNL     1      -2.677   4.884  -1.828  0.00  0.00    -0.244 OA
ENDBRANCH  13  15
ENDBRANCH   1  13
BRANCH   4  17
ATOM     17  C   UNL     1       2.820   6.116  -1.544  0.00  0.00    +0.188 C 
BRANCH  17  18
ATOM     18  C   UNL     1       3.868   5.229  -0.977  0.00  0.00    +0.381 C 
ATOM     19  O   UNL     1       4.719   5.815  -0.034  0.00  0.00    -0.244 OA
ATOM     20  O   UNL     1       3.494   4.054  -0.684  0.00  0.00    -0.244 OA
ENDBRANCH  17  18
ENDBRANCH   4  17
BRANCH  10  21
ATOM     21  C   UNL     1      -0.405   5.799  -8.881  0.00  0.00    +0.188 C 
BRANCH  21  22
ATOM     22  C   UNL     1       0.460   5.523 -10.049  0.00  0.00    +0.381 C 
ATOM     23  O   UNL     1       0.804   6.588 -10.885  0.00  0.00    -0.244 OA
ATOM     24  O   UNL     1       0.505   4.360 -10.554  0.00  0.00    -0.244 OA
ENDBRANCH  21  22
ENDBRANCH  10  21
BRANCH   7  25
ATOM     25  C   UNL     1       4.622   5.361  -6.867  0.00  0.00    +0.188 C 
BRANCH  25  26
ATOM     26  C   UNL     1       4.430   5.432  -8.328  0.00  0.00    +0.381 C 
ATOM     27  O   UNL     1       4.152   6.598  -9.023  0.00  0.00    -0.244 OA
ATOM     28  O   UNL     1       4.744   4.407  -8.997  0.00  0.00    -0.244 OA
ENDBRANCH  25  26
ENDBRANCH   7  25
TORSDOF 8
ENDMDL
MODEL 4
REMARK VINA RESULT:      -6.6      3.078      7.134
REMARK  Name = 
REMARK  8 active torsions:
REMARK  status: ('A' for Active; 'I' for Inactive)
REMARK    1  A    between atoms: C_2  and  C_4
REMARK    2  A    between atoms: C_4  and  N_5
REMARK    3  A    between atoms: N_8  and  C_9
REMARK    4  A    between atoms: C_9  and  C_10
REMARK    5  A    between atoms: N_15  and  C_16
REMARK    6  A    between atoms: C_16  and  C_17
REMARK    7  A    between atoms: N_22  and  C_23
REMARK    8  A    between atoms: C_23  and  C_24
REMARK                            x       y       z     vdW  Elec       q    Type
REMARK                         _______ _______ _______ _____ _____    ______ ____
ROOT
ATOM      1  N   UNL     1       4.032   5.997  -8.077  0.00  0.00    -0.261 NA
ATOM      2  C   UNL     1       2.852   5.336  -8.565  0.00  0.00    +0.090 C 
ATOM      3  C   UNL     1       1.658   6.251  -8.690  0.00  0.00    +0.090 C 
ATOM      4  N   UNL     1       0.506   5.412  -8.904  0.00  0.00    -0.261 NA
ATOM      5  C   UNL     1      -0.546   5.613  -7.953  0.00  0.00    +0.090 C 
ATOM      6  C   UNL     1      -0.245   4.748  -6.734  0.00  0.00    +0.090 C 
ATOM      7  N   UNL     1       0.110   5.536  -5.583  0.00  0.00    -0.261 NA
ATOM      8  C   UNL     1       1.238   5.006  -4.858  0.00  0.00    +0.090 C 
ATOM      9  C   UNL     1       2.273   6.096  -4.721  0.00  0.00    +0.090 C 
ATOM     10  N   UNL     1       3.605   5.558  -4.472  0.00  0.00    -0.261 NA
ATOM     11  C   UNL     1       4.401   5.514  -5.697  0.00  0.00    +0.090 C 
ATOM     12  C   UNL     1       3.882   6.486  -6.734  0.00  0.00    +0.090 C 
ENDROOT
BRANCH   1  13
ATOM     13  C   UNL     1       5.151   5.096  -8.240  0.00  0.00    +0.188 C 
BRANCH  13  15
ATOM     14  O   UNL     1       5.592   6.486 -10.170  0.00  0.00    -0.244 OA
ATOM     15  C   UNL     1       6.019   5.663  -9.307  0.00  0.00    +0.381 C 
ATOM     16  O   UNL     1       7.390   5.457  -9.291  0.00  0.00    -0.244 OA
ENDBRANCH  13  15
ENDBRANCH   1  13
BRANCH   4  17
ATOM     17  C   UNL     1       0.078   5.344 -10.270  0.00  0.00    +0.188 C 
BRANCH  17  18
ATOM     18  C   UNL     1       0.315   6.596 -11.032  0.00  0.00    +0.381 C 
ATOM     19  O   UNL     1       1.188   6.493 -12.120  0.00  0.00    -0.244 OA
ATOM     20  O   UNL     1      -0.711   7.309 -11.251  0.00  0.00    -0.244 OA
ENDBRANCH  17  18
ENDBRANCH   4  17
BRANCH  10  21
ATOM     21  C   UNL     1       4.248   6.438  -3.506  0.00  0.00    +0.188 C 
BRANCH  21  22
ATOM     22  C   UNL     1       4.019   6.002  -2.109  0.00  0.00    +0.381 C 
ATOM     23  O   UNL     1       3.936   4.632  -1.849  0.00  0.00    -0.244 OA
ATOM     24  O   UNL     1       3.459   6.779  -1.279  0.00  0.00    -0.244 OA
ENDBRANCH  21  22
ENDBRANCH  10  21
BRANCH   7  25
ATOM     25  C   UNL     1      -1.012   5.822  -4.726  0.00  0.00    +0.188 C 
BRANCH  25  26
ATOM     26  C   UNL     1      -1.686   7.096  -5.043  0.00  0.00    +0.381 C 
ATOM     27  O   UNL     1      -2.946   7.191  -5.613  0.00  0.00    -0.244 OA
ATOM     28  O   UNL     1      -1.169   8.150  -4.576  0.00  0.00    -0.244 OA
ENDBRANCH  25  26
ENDBRANCH   7  25
TORSDOF 8
ENDMDL
MODEL 5
REMARK VINA RESULT:      -6.6      3.647      7.417
REMARK  Name = 
REMARK  8 active torsions:
REMARK  status: ('A' for Active; 'I' for Inactive)
REMARK    1  A    between atoms: C_2  and  C_4
REMARK    2  A    between atoms: C_4  and  N_5
REMARK    3  A    between atoms: N_8  and  C_9
REMARK    4  A    between atoms: C_9  and  C_10
REMARK    5  A    between atoms: N_15  and  C_16
REMARK    6  A    between atoms: C_16  and  C_17
REMARK    7  A    between atoms: N_22  and  C_23
REMARK    8  A    between atoms: C_23  and  C_24
REMARK                            x       y       z     vdW  Elec       q    Type
REMARK                         _______ _______ _______ _____ _____    ______ ____
ROOT
ATOM      1  N   UNL     1       0.693   6.369 -10.097  0.00  0.00    -0.261 NA
ATOM      2  C   UNL     1       0.099   5.546  -9.078  0.00  0.00    +0.090 C 
ATOM      3  C   UNL     1       0.001   6.229  -7.736  0.00  0.00    +0.090 C 
ATOM      4  N   UNL     1      -0.333   5.213  -6.770  0.00  0.00    -0.261 NA
ATOM      5  C   UNL     1       0.586   5.125  -5.674  0.00  0.00    +0.090 C 
ATOM      6  C   UNL     1       1.738   4.224  -6.102  0.00  0.00    +0.090 C 
ATOM      7  N   UNL     1       2.967   4.955  -6.271  0.00  0.00    -0.261 NA
ATOM      8  C   UNL     1       3.691   4.581  -7.459  0.00  0.00    +0.090 C 
ATOM      9  C   UNL     1       3.966   5.828  -8.264  0.00  0.00    +0.090 C 
ATOM     10  N   UNL     1       4.226   5.528  -9.667  0.00  0.00    -0.261 NA
ATOM     11  C   UNL     1       3.037   5.746 -10.489  0.00  0.00    +0.090 C 
ATOM     12  C   UNL     1       2.065   6.695  -9.822  0.00  0.00    +0.090 C 
ENDROOT
BRANCH   1  13
ATOM     13  C   UNL     1       0.503   5.712 -11.372  0.00  0.00    +0.188 C 
BRANCH  13  15
ATOM     14  O   UNL     1      -0.380   7.838 -12.113  0.00  0.00    -0.244 OA
ATOM     15  C   UNL     1       0.255   6.776 -12.381  0.00  0.00    +0.381 C 
ATOM     16  O   UNL     1       0.872   6.735 -13.622  0.00  0.00    -0.244 OA
ENDBRANCH  13  15
ENDBRANCH   1  13
BRANCH   4  17
ATOM     17  C   UNL     1      -1.717   5.191  -6.400  0.00  0.00    +0.188 C 
BRANCH  17  18
ATOM     18  C   UNL     1      -2.010   5.935  -5.149  0.00  0.00    +0.381 C 
ATOM     19  O   UNL     1      -2.393   7.272  -5.309  0.00  0.00    -0.244 OA
ATOM     20  O   UNL     1      -2.679   5.303  -4.276  0.00  0.00    -0.244 OA
ENDBRANCH  17  18
ENDBRANCH   4  17
BRANCH  10  21
ATOM     21  C   UNL     1       5.290   6.420 -10.105  0.00  0.00    +0.188 C 
BRANCH  21  22
ATOM     22  C   UNL     1       6.556   5.699 -10.369  0.00  0.00    +0.381 C 
ATOM     23  O   UNL     1       7.473   5.568  -9.324  0.00  0.00    -0.244 OA
ATOM     24  O   UNL     1       7.014   5.620 -11.548  0.00  0.00    -0.244 OA
ENDBRANCH  21  22
ENDBRANCH  10  21
BRANCH   7  25
ATOM     25  C   UNL     1       3.795   4.947  -5.093  0.00  0.00    +0.188 C 
BRANCH  25  26
ATOM     26  C   UNL     1       4.051   6.291  -4.541  0.00  0.00    +0.381 C 
ATOM     27  O   UNL     1       3.843   7.472  -5.237  0.00  0.00    -0.244 OA
ATOM     28  O   UNL     1       4.272   6.369  -3.300  0.00  0.00    -0.244 OA
ENDBRANCH  25  26
ENDBRANCH   7  25
TORSDOF 8
ENDMDL
MODEL 6
REMARK VINA RESULT:      -6.4      3.881      6.807
REMARK  Name = 
REMARK  8 active torsions:
REMARK  status: ('A' for Active; 'I' for Inactive)
REMARK    1  A    between atoms: C_2  and  C_4
REMARK    2  A    between atoms: C_4  and  N_5
REMARK    3  A    between atoms: N_8  and  C_9
REMARK    4  A    between atoms: C_9  and  C_10
REMARK    5  A    between atoms: N_15  and  C_16
REMARK    6  A    between atoms: C_16  and  C_17
REMARK    7  A    between atoms: N_22  and  C_23
REMARK    8  A    between atoms: C_23  and  C_24
REMARK                            x       y       z     vdW  Elec       q    Type
REMARK                         _______ _______ _______ _____ _____    ______ ____
ROOT
ATOM      1  N   UNL     1       4.273   5.519  -9.331  0.00  0.00    -0.261 NA
ATOM      2  C   UNL     1       3.992   6.074  -8.034  0.00  0.00    +0.090 C 
ATOM      3  C   UNL     1       3.551   5.044  -7.023  0.00  0.00    +0.090 C 
ATOM      4  N   UNL     1       3.037   5.764  -5.885  0.00  0.00    -0.261 NA
ATOM      5  C   UNL     1       1.696   5.408  -5.526  0.00  0.00    +0.090 C 
ATOM      6  C   UNL     1       0.748   6.242  -6.380  0.00  0.00    +0.090 C 
ATOM      7  N   UNL     1       0.044   5.444  -7.350  0.00  0.00    -0.261 NA
ATOM      8  C   UNL     1      -0.017   6.056  -8.653  0.00  0.00    +0.090 C 
ATOM      9  C   UNL     1       0.523   5.077  -9.667  0.00  0.00    +0.090 C 
ATOM     10  N   UNL     1       0.970   5.742 -10.885  0.00  0.00    -0.261 NA
ATOM     11  C   UNL     1       2.420   5.927 -10.891  0.00  0.00    +0.090 C 
ATOM     12  C   UNL     1       3.110   4.956  -9.960  0.00  0.00    +0.090 C 
ENDROOT
BRANCH   1  13
ATOM     13  C   UNL     1       4.918   6.541 -10.125  0.00  0.00    +0.188 C 
BRANCH  13  15
ATOM     14  O   UNL     1       6.447   5.578 -11.733  0.00  0.00    -0.244 OA
ATOM     15  C   UNL     1       6.233   5.996 -10.557  0.00  0.00    +0.381 C 
ATOM     16  O   UNL     1       7.346   6.093  -9.735  0.00  0.00    -0.244 OA
ENDBRANCH  13  15
ENDBRANCH   1  13
BRANCH   4  17
ATOM     17  C   UNL     1       3.952   5.851  -4.786  0.00  0.00    +0.188 C 
BRANCH  17  18
ATOM     18  C   UNL     1       4.221   7.242  -4.343  0.00  0.00    +0.381 C 
ATOM     19  O   UNL     1       3.568   7.647  -3.173  0.00  0.00    -0.244 OA
ATOM     20  O   UNL     1       5.427   7.623  -4.426  0.00  0.00    -0.244 OA
ENDBRANCH  17  18
ENDBRANCH   4  17
BRANCH  10  21
ATOM     21  C   UNL     1       0.584   4.891 -12.002  0.00  0.00    +0.188 C 
BRANCH  21  22
ATOM     22  C   UNL     1       1.144   5.362 -13.289  0.00  0.00    +0.381 C 
ATOM     23  O   UNL     1       0.623   6.531 -13.848  0.00  0.00    -0.244 OA
ATOM     24  O   UNL     1       1.705   4.547 -14.082  0.00  0.00    -0.244 OA
ENDBRANCH  21  22
ENDBRANCH  10  21
BRANCH   7  25
ATOM     25  C   UNL     1      -1.246   5.000  -6.887  0.00  0.00    +0.188 C 
BRANCH  25  26
ATOM     26  C   UNL     1      -1.801   5.829  -5.800  0.00  0.00    +0.381 C 
ATOM     27  O   UNL     1      -2.608   6.937  -5.999  0.00  0.00    -0.244 OA
ATOM     28  O   UNL     1      -1.701   5.376  -4.625  0.00  0.00    -0.244 OA
ENDBRANCH  25  26
ENDBRANCH   7  25
TORSDOF 8
ENDMDL
MODEL 7
REMARK VINA RESULT:      -6.3      4.426      9.126
REMARK  Name = 
REMARK  8 active torsions:
REMARK  status: ('A' for Active; 'I' for Inactive)
REMARK    1  A    between atoms: C_2  and  C_4
REMARK    2  A    between atoms: C_4  and  N_5
REMARK    3  A    between atoms: N_8  and  C_9
REMARK    4  A    between atoms: C_9  and  C_10
REMARK    5  A    between atoms: N_15  and  C_16
REMARK    6  A    between atoms: C_16  and  C_17
REMARK    7  A    between atoms: N_22  and  C_23
REMARK    8  A    between atoms: C_23  and  C_24
REMARK                            x       y       z     vdW  Elec       q    Type
REMARK                         _______ _______ _______ _____ _____    ______ ____
ROOT
ATOM      1  N   UNL     1       4.636   6.275 -10.724  0.00  0.00    -0.261 NA
ATOM      2  C   UNL     1       3.511   5.637 -11.351  0.00  0.00    +0.090 C 
ATOM      3  C   UNL     1       2.281   6.511 -11.412  0.00  0.00    +0.090 C 
ATOM      4  N   UNL     1       1.180   5.661 -11.790  0.00  0.00    -0.261 NA
ATOM      5  C   UNL     1       0.080   5.689 -10.872  0.00  0.00    +0.090 C 
ATOM      6  C   UNL     1       0.370   4.683  -9.765  0.00  0.00    +0.090 C 
ATOM      7  N   UNL     1       0.639   5.324  -8.504  0.00  0.00    -0.261 NA
ATOM      8  C   UNL     1       1.758   4.749  -7.802  0.00  0.00    +0.090 C 
ATOM      9  C   UNL     1       2.734   5.852  -7.472  0.00  0.00    +0.090 C 
ATOM     10  N   UNL     1       4.079   5.341  -7.233  0.00  0.00    -0.261 NA
ATOM     11  C   UNL     1       4.927   5.494  -8.413  0.00  0.00    +0.090 C 
ATOM     12  C   UNL     1       4.407   6.573  -9.337  0.00  0.00    +0.090 C 
ENDROOT
BRANCH   1  13
ATOM     13  C   UNL     1       5.803   5.451 -10.950  0.00  0.00    +0.188 C 
BRANCH  13  15
ATOM     14  O   UNL     1       6.566   4.885 -13.174  0.00  0.00    -0.244 OA
ATOM     15  C   UNL     1       6.312   5.775 -12.309  0.00  0.00    +0.381 C 
ATOM     16  O   UNL     1       6.356   7.087 -12.757  0.00  0.00    -0.244 OA
ENDBRANCH  13  15
ENDBRANCH   1  13
BRANCH   4  17
ATOM     17  C   UNL     1       0.814   5.758 -13.172  0.00  0.00    +0.188 C 
BRANCH  17  18
ATOM     18  C   UNL     1       1.100   4.527 -13.951  0.00  0.00    +0.381 C 
ATOM     19  O   UNL     1       0.079   4.094 -14.805  0.00  0.00    -0.244 OA
ATOM     20  O   UNL     1       2.264   4.449 -14.448  0.00  0.00    -0.244 OA
ENDBRANCH  17  18
ENDBRANCH   4  17
BRANCH  10  21
ATOM     21  C   UNL     1       4.637   6.110  -6.129  0.00  0.00    +0.188 C 
BRANCH  21  22
ATOM     22  C   UNL     1       3.806   6.025  -4.907  0.00  0.00    +0.381 C 
ATOM     23  O   UNL     1       3.389   7.216  -4.307  0.00  0.00    -0.244 OA
ATOM     24  O   UNL     1       3.857   4.997  -4.167  0.00  0.00    -0.244 OA
ENDBRANCH  21  22
ENDBRANCH  10  21
BRANCH   7  25
ATOM     25  C   UNL     1      -0.530   5.447  -7.672  0.00  0.00    +0.188 C 
BRANCH  25  26
ATOM     26  C   UNL     1      -0.231   5.880  -6.293  0.00  0.00    +0.381 C 
ATOM     27  O   UNL     1       0.090   7.180  -5.937  0.00  0.00    -0.244 OA
ATOM     28  O   UNL     1      -0.488   5.061  -5.367  0.00  0.00    -0.244 OA
ENDBRANCH  25  26
ENDBRANCH   7  25
TORSDOF 8
ENDMDL
MODEL 8
REMARK VINA RESULT:      -6.3      3.016      7.858
REMARK  Name = 
REMARK  8 active torsions:
REMARK  status: ('A' for Active; 'I' for Inactive)
REMARK    1  A    between atoms: C_2  and  C_4
REMARK    2  A    between atoms: C_4  and  N_5
REMARK    3  A    between atoms: N_8  and  C_9
REMARK    4  A    between atoms: C_9  and  C_10
REMARK    5  A    between atoms: N_15  and  C_16
REMARK    6  A    between atoms: C_16  and  C_17
REMARK    7  A    between atoms: N_22  and  C_23
REMARK    8  A    between atoms: C_23  and  C_24
REMARK                            x       y       z     vdW  Elec       q    Type
REMARK                         _______ _______ _______ _____ _____    ______ ____
ROOT
ATOM      1  N   UNL     1       0.046   5.415  -5.924  0.00  0.00    -0.261 NA
ATOM      2  C   UNL     1       0.165   6.047  -7.210  0.00  0.00    +0.090 C 
ATOM      3  C   UNL     1       0.515   5.087  -8.321  0.00  0.00    +0.090 C 
ATOM      4  N   UNL     1       0.879   5.883  -9.466  0.00  0.00    -0.261 NA
ATOM      5  C   UNL     1       2.179   5.588  -9.991  0.00  0.00    +0.090 C 
ATOM      6  C   UNL     1       3.197   6.404  -9.202  0.00  0.00    +0.090 C 
ATOM      7  N   UNL     1       4.025   5.577  -8.364  0.00  0.00    -0.261 NA
ATOM      8  C   UNL     1       4.217   6.120  -7.043  0.00  0.00    +0.090 C 
ATOM      9  C   UNL     1       3.819   5.072  -6.032  0.00  0.00    +0.090 C 
ATOM     10  N   UNL     1       3.496   5.656  -4.736  0.00  0.00    -0.261 NA
ATOM     11  C   UNL     1       2.052   5.796  -4.558  0.00  0.00    +0.090 C 
ATOM     12  C   UNL     1       1.285   4.855  -5.461  0.00  0.00    +0.090 C 
ENDROOT
BRANCH   1  13
ATOM     13  C   UNL     1      -0.531   6.372  -5.006  0.00  0.00    +0.188 C 
BRANCH  13  15
ATOM     14  O   UNL     1      -2.739   5.407  -4.795  0.00  0.00    -0.244 OA
ATOM     15  C   UNL     1      -1.617   5.674  -4.269  0.00  0.00    +0.381 C 
ATOM     16  O   UNL     1      -1.384   5.114  -3.022  0.00  0.00    -0.244 OA
ENDBRANCH  13  15
ENDBRANCH   1  13
BRANCH   4  17
ATOM     17  C   UNL     1      -0.156   6.000 -10.450  0.00  0.00    +0.188 C 
BRANCH  17  18
ATOM     18  C   UNL     1       0.112   7.040 -11.475  0.00  0.00    +0.381 C 
ATOM     19  O   UNL     1       0.382   6.571 -12.765  0.00  0.00    -0.244 OA
ATOM     20  O   UNL     1      -0.646   8.056 -11.438  0.00  0.00    -0.244 OA
ENDBRANCH  17  18
ENDBRANCH   4  17
BRANCH  10  21
ATOM     21  C   UNL     1       4.027   4.759  -3.719  0.00  0.00    +0.188 C 
BRANCH  21  22
ATOM     22  C   UNL     1       3.977   5.353  -2.364  0.00  0.00    +0.381 C 
ATOM     23  O   UNL     1       4.423   6.667  -2.201  0.00  0.00    -0.244 OA
ATOM     24  O   UNL     1       3.995   4.609  -1.337  0.00  0.00    -0.244 OA
ENDBRANCH  21  22
ENDBRANCH  10  21
BRANCH   7  25
ATOM     25  C   UNL     1       5.265   5.199  -8.991  0.00  0.00    +0.188 C 
BRANCH  25  26
ATOM     26  C   UNL     1       5.528   5.912 -10.256  0.00  0.00    +0.381 C 
ATOM     27  O   UNL     1       6.157   7.143 -10.340  0.00  0.00    -0.244 OA
ATOM     28  O   UNL     1       5.355   5.263 -11.326  0.00  0.00    -0.244 OA
ENDBRANCH  25  26
ENDBRANCH   7  25
TORSDOF 8
ENDMDL
MODEL 9
REMARK VINA RESULT:      -6.2      2.208      8.055
REMARK  Name = 
REMARK  8 active torsions:
REMARK  status: ('A' for Active; 'I' for Inactive)
REMARK    1  A    between atoms: C_2  and  C_4
REMARK    2  A    between atoms: C_4  and  N_5
REMARK    3  A    between atoms: N_8  and  C_9
REMARK    4  A    between atoms: C_9  and  C_10
REMARK    5  A    between atoms: N_15  and  C_16
REMARK    6  A    between atoms: C_16  and  C_17
REMARK    7  A    between atoms: N_22  and  C_23
REMARK    8  A    between atoms: C_23  and  C_24
REMARK                            x       y       z     vdW  Elec       q    Type
REMARK                         _______ _______ _______ _____ _____    ______ ____
ROOT
ATOM      1  N   UNL     1      -0.343   6.057  -2.082  0.00  0.00    -0.261 NA
ATOM      2  C   UNL     1       0.916   6.409  -2.683  0.00  0.00    +0.090 C 
ATOM      3  C   UNL     1       2.096   5.701  -2.064  0.00  0.00    +0.090 C 
ATOM      4  N   UNL     1       3.284   6.353  -2.554  0.00  0.00    -0.261 NA
ATOM      5  C   UNL     1       4.152   6.837  -1.522  0.00  0.00    +0.090 C 
ATOM      6  C   UNL     1       3.661   8.220  -1.109  0.00  0.00    +0.090 C 
ATOM      7  N   UNL     1       3.098   8.223   0.216  0.00  0.00    -0.261 NA
ATOM      8  C   UNL     1       1.872   8.975   0.310  0.00  0.00    +0.090 C 
ATOM      9  C   UNL     1       0.809   8.085   0.906  0.00  0.00    +0.090 C 
ATOM     10  N   UNL     1      -0.536   8.549   0.586  0.00  0.00    -0.261 NA
ATOM     11  C   UNL     1      -1.108   7.802  -0.532  0.00  0.00    +0.090 C 
ATOM     12  C   UNL     1      -0.436   6.458  -0.706  0.00  0.00    +0.090 C 
ENDROOT
BRANCH   1  13
ATOM     13  C   UNL     1      -1.400   6.593  -2.911  0.00  0.00    +0.188 C 
BRANCH  13  15
ATOM     14  O   UNL     1      -2.753   4.612  -2.600  0.00  0.00    -0.244 OA
ATOM     15  C   UNL     1      -2.210   5.440  -3.389  0.00  0.00    +0.381 C 
ATOM     16  O   UNL     1      -2.562   5.327  -4.726  0.00  0.00    -0.244 OA
ENDBRANCH  13  15
ENDBRANCH   1  13
BRANCH   4  17
ATOM     17  C   UNL     1       3.941   5.650  -3.615  0.00  0.00    +0.188 C 
BRANCH  17  18
ATOM     18  C   UNL     1       4.344   6.522  -4.748  0.00  0.00    +0.381 C 
ATOM     19  O   UNL     1       4.627   5.867  -5.951  0.00  0.00    -0.244 OA
ATOM     20  O   UNL     1       3.678   7.593  -4.881  0.00  0.00    -0.244 OA
ENDBRANCH  17  18
ENDBRANCH   4  17
BRANCH  10  21
ATOM     21  C   UNL     1      -1.352   8.345   1.776  0.00  0.00    +0.188 C 
BRANCH  21  22
ATOM     22  C   UNL     1      -2.077   9.572   2.178  0.00  0.00    +0.381 C 
ATOM     23  O   UNL     1      -3.439   9.469   2.471  0.00  0.00    -0.244 OA
ATOM     24  O   UNL     1      -1.650  10.713   1.827  0.00  0.00    -0.244 OA
ENDBRANCH  21  22
ENDBRANCH  10  21
BRANCH   7  25
ATOM     25  C   UNL     1       4.049   8.588   1.234  0.00  0.00    +0.188 C 
BRANCH  25  26
ATOM     26  C   UNL     1       4.204   7.569   2.290  0.00  0.00    +0.381 C 
ATOM     27  O   UNL     1       3.323   7.399   3.345  0.00  0.00    -0.244 OA
ATOM     28  O   UNL     1       5.075   6.673   2.098  0.00  0.00    -0.244 OA
ENDBRANCH  25  26
ENDBRANCH   7  25
TORSDOF 8
ENDMDL
