MODEL 1
REMARK VINA RESULT:      -5.3      0.000      0.000
REMARK  Name = 
REMARK  5 active torsions:
REMARK  status: ('A' for Active; 'I' for Inactive)
REMARK    1  A    between atoms: O_2  and  C_3
REMARK    2  A    between atoms: C_8  and  O_9
REMARK    3  A    between atoms: O_9  and  C_10
REMARK    4  A    between atoms: C_10  and  C_11
REMARK    5  A    between atoms: C_11  and  C_13
REMARK                            x       y       z     vdW  Elec       q    Type
REMARK                         _______ _______ _______ _____ _____    ______ ____
ROOT
ATOM      1  C   UNL     1      -0.177   5.165  -6.022  0.00  0.00    +0.172 A 
ATOM      2  C   UNL     1      -0.087   5.810  -4.795  0.00  0.00    +0.172 A 
ATOM      3  C   UNL     1      -1.042   6.807  -4.630  0.00  0.00    +0.040 A 
ATOM      4  C   UNL     1      -2.186   6.839  -5.386  0.00  0.00    +0.003 A 
ATOM      5  C   UNL     1      -2.401   5.928  -6.388  0.00  0.00    +0.003 A 
ATOM      6  C   UNL     1      -1.377   5.078  -6.716  0.00  0.00    +0.040 A 
ENDROOT
BRANCH   1   8
ATOM      7  C   UNL     1       1.824   4.904  -7.299  0.00  0.00    +0.253 C 
ATOM      8  O   UNL     1       0.880   4.360  -6.405  0.00  0.00    -0.468 OA
ENDBRANCH   1   8
BRANCH   2   9
ATOM      9  O   UNL     1       0.705   5.351  -3.774  0.00  0.00    -0.470 OA
BRANCH   9  10
ATOM     10  C   UNL     1       0.836   6.089  -2.583  0.00  0.00    +0.241 C 
BRANCH  10  11
ATOM     11  C   UNL     1       0.406   4.947  -1.446  0.00  0.00    +0.228 C 
ATOM     12  O   UNL     1       1.148   5.703  -0.335  0.00  0.00    -0.216 OA
BRANCH  11  13
ATOM     13  C   UNL     1      -1.030   5.714  -1.092  0.00  0.00    +0.219 C 
ATOM     14  O   UNL     1      -2.010   5.003  -1.743  0.00  0.00    -0.217 OA
ENDBRANCH  11  13
ENDBRANCH  10  11
ENDBRANCH   9  10
ENDBRANCH   2   9
TORSDOF 5
ENDMDL
MODEL 2
REMARK VINA RESULT:      -5.2      4.872      7.847
REMARK  Name = 
REMARK  5 active torsions:
REMARK  status: ('A' for Active; 'I' for Inactive)
REMARK    1  A    between atoms: O_2  and  C_3
REMARK    2  A    between atoms: C_8  and  O_9
REMARK    3  A    between atoms: O_9  and  C_10
REMARK    4  A    between atoms: C_10  and  C_11
REMARK    5  A    between atoms: C_11  and  C_13
REMARK                            x       y       z     vdW  Elec       q    Type
REMARK                         _______ _______ _______ _____ _____    ______ ____
ROOT
ATOM      1  C   UNL     1       5.079   6.458 -10.818  0.00  0.00    +0.172 A 
ATOM      2  C   UNL     1       5.482   5.668  -9.749  0.00  0.00    +0.172 A 
ATOM      3  C   UNL     1       6.858   5.678  -9.550  0.00  0.00    +0.040 A 
ATOM      4  C   UNL     1       7.650   6.677 -10.056  0.00  0.00    +0.003 A 
ATOM      5  C   UNL     1       7.126   7.671 -10.841  0.00  0.00    +0.003 A 
ATOM      6  C   UNL     1       5.818   7.558 -11.235  0.00  0.00    +0.040 A 
ENDROOT
BRANCH   1   8
ATOM      7  C   UNL     1       3.609   5.786 -12.577  0.00  0.00    +0.253 C 
ATOM      8  O   UNL     1       3.784   6.306 -11.279  0.00  0.00    -0.468 OA
ENDBRANCH   1   8
BRANCH   2   9
ATOM      9  O   UNL     1       4.596   5.132  -8.851  0.00  0.00    -0.470 OA
BRANCH   9  10
ATOM     10  C   UNL     1       4.133   5.893  -7.762  0.00  0.00    +0.241 C 
BRANCH  10  11
ATOM     11  C   UNL     1       2.494   5.935  -8.069  0.00  0.00    +0.228 C 
ATOM     12  O   UNL     1       2.208   4.933  -6.942  0.00  0.00    -0.216 OA
BRANCH  11  13
ATOM     13  C   UNL     1       2.249   7.236  -7.057  0.00  0.00    +0.219 C 
ATOM     14  O   UNL     1       2.146   8.337  -7.873  0.00  0.00    -0.217 OA
ENDBRANCH  11  13
ENDBRANCH  10  11
ENDBRANCH   9  10
ENDBRANCH   2   9
TORSDOF 5
ENDMDL
MODEL 3
REMARK VINA RESULT:      -5.2      2.037      5.003
REMARK  Name = 
REMARK  5 active torsions:
REMARK  status: ('A' for Active; 'I' for Inactive)
REMARK    1  A    between atoms: O_2  and  C_3
REMARK    2  A    between atoms: C_8  and  O_9
REMARK    3  A    between atoms: O_9  and  C_10
REMARK    4  A    between atoms: C_10  and  C_11
REMARK    5  A    between atoms: C_11  and  C_13
REMARK                            x       y       z     vdW  Elec       q    Type
REMARK                         _______ _______ _______ _____ _____    ______ ____
ROOT
ATOM      1  C   UNL     1      -0.276   6.474  -4.997  0.00  0.00    +0.172 A 
ATOM      2  C   UNL     1      -0.338   5.649  -6.113  0.00  0.00    +0.172 A 
ATOM      3  C   UNL     1      -1.639   5.371  -6.516  0.00  0.00    +0.040 A 
ATOM      4  C   UNL     1      -2.694   6.161  -6.137  0.00  0.00    +0.003 A 
ATOM      5  C   UNL     1      -2.519   7.219  -5.284  0.00  0.00    +0.003 A 
ATOM      6  C   UNL     1      -1.290   7.378  -4.698  0.00  0.00    +0.040 A 
ENDROOT
BRANCH   1   8
ATOM      7  C   UNL     1       1.224   5.658  -3.328  0.00  0.00    +0.253 C 
ATOM      8  O   UNL     1       0.938   6.589  -4.347  0.00  0.00    -0.468 OA
ENDBRANCH   1   8
BRANCH   2   9
ATOM      9  O   UNL     1       0.765   5.343  -6.867  0.00  0.00    -0.470 OA
BRANCH   9  10
ATOM     10  C   UNL     1       0.955   5.935  -8.129  0.00  0.00    +0.241 C 
BRANCH  10  11
ATOM     11  C   UNL     1       2.619   5.913  -8.250  0.00  0.00    +0.228 C 
ATOM     12  O   UNL     1       2.588   6.790  -9.509  0.00  0.00    -0.216 OA
BRANCH  11  13
ATOM     13  C   UNL     1       2.796   7.239  -7.257  0.00  0.00    +0.219 C 
ATOM     14  O   UNL     1       2.131   8.269  -7.879  0.00  0.00    -0.217 OA
ENDBRANCH  11  13
ENDBRANCH  10  11
ENDBRANCH   9  10
ENDBRANCH   2   9
TORSDOF 5
ENDMDL
MODEL 4
REMARK VINA RESULT:      -5.2      4.797      7.863
REMARK  Name = 
REMARK  5 active torsions:
REMARK  status: ('A' for Active; 'I' for Inactive)
REMARK    1  A    between atoms: O_2  and  C_3
REMARK    2  A    between atoms: C_8  and  O_9
REMARK    3  A    between atoms: O_9  and  C_10
REMARK    4  A    between atoms: C_10  and  C_11
REMARK    5  A    between atoms: C_11  and  C_13
REMARK                            x       y       z     vdW  Elec       q    Type
REMARK                         _______ _______ _______ _____ _____    ______ ____
ROOT
ATOM      1  C   UNL     1       5.065   6.375 -10.867  0.00  0.00    +0.172 A 
ATOM      2  C   UNL     1       5.621   5.585  -9.868  0.00  0.00    +0.172 A 
ATOM      3  C   UNL     1       6.994   5.758  -9.735  0.00  0.00    +0.040 A 
ATOM      4  C   UNL     1       7.627   6.876 -10.216  0.00  0.00    +0.003 A 
ATOM      5  C   UNL     1       6.942   7.837 -10.913  0.00  0.00    +0.003 A 
ATOM      6  C   UNL     1       5.639   7.581 -11.250  0.00  0.00    +0.040 A 
ENDROOT
BRANCH   1   8
ATOM      7  C   UNL     1       3.581   5.730 -12.623  0.00  0.00    +0.253 C 
ATOM      8  O   UNL     1       3.775   6.086 -11.274  0.00  0.00    -0.468 OA
ENDBRANCH   1   8
BRANCH   2   9
ATOM      9  O   UNL     1       4.858   4.892  -8.964  0.00  0.00    -0.470 OA
BRANCH   9  10
ATOM     10  C   UNL     1       4.351   5.533  -7.818  0.00  0.00    +0.241 C 
BRANCH  10  11
ATOM     11  C   UNL     1       2.714   5.264  -7.996  0.00  0.00    +0.228 C 
ATOM     12  O   UNL     1       2.953   3.823  -8.466  0.00  0.00    -0.216 OA
BRANCH  11  13
ATOM     13  C   UNL     1       2.532   4.782  -6.412  0.00  0.00    +0.219 C 
ATOM     14  O   UNL     1       2.071   3.488  -6.460  0.00  0.00    -0.217 OA
ENDBRANCH  11  13
ENDBRANCH  10  11
ENDBRANCH   9  10
ENDBRANCH   2   9
TORSDOF 5
ENDMDL
MODEL 5
REMARK VINA RESULT:      -5.2      6.102      8.445
REMARK  Name = 
REMARK  5 active torsions:
REMARK  status: ('A' for Active; 'I' for Inactive)
REMARK    1  A    between atoms: O_2  and  C_3
REMARK    2  A    between atoms: C_8  and  O_9
REMARK    3  A    between atoms: O_9  and  C_10
REMARK    4  A    between atoms: C_10  and  C_11
REMARK    5  A    between atoms: C_11  and  C_13
REMARK                            x       y       z     vdW  Elec       q    Type
REMARK                         _______ _______ _______ _____ _____    ______ ____
ROOT
ATOM      1  C   UNL     1       5.771   5.739  -9.415  0.00  0.00    +0.172 A 
ATOM      2  C   UNL     1       4.936   6.179 -10.434  0.00  0.00    +0.172 A 
ATOM      3  C   UNL     1       5.455   7.258 -11.140  0.00  0.00    +0.040 A 
ATOM      4  C   UNL     1       6.795   7.552 -11.120  0.00  0.00    +0.003 A 
ATOM      5  C   UNL     1       7.669   6.835 -10.344  0.00  0.00    +0.003 A 
ATOM      6  C   UNL     1       7.149   5.915  -9.471  0.00  0.00    +0.040 A 
ENDROOT
BRANCH   1   8
ATOM      7  C   UNL     1       4.607   5.424  -7.354  0.00  0.00    +0.253 C 
ATOM      8  O   UNL     1       5.244   4.867  -8.480  0.00  0.00    -0.468 OA
ENDBRANCH   1   8
BRANCH   2   9
ATOM      9  O   UNL     1       3.833   5.473 -10.843  0.00  0.00    -0.470 OA
BRANCH   9  10
ATOM     10  C   UNL     1       2.603   6.125 -11.047  0.00  0.00    +0.241 C 
BRANCH  10  11
ATOM     11  C   UNL     1       1.727   5.579  -9.736  0.00  0.00    +0.228 C 
ATOM     12  O   UNL     1       1.691   6.983  -9.116  0.00  0.00    -0.216 OA
BRANCH  11  13
ATOM     13  C   UNL     1       0.267   5.815 -10.503  0.00  0.00    +0.219 C 
ATOM     14  O   UNL     1      -0.086   4.596 -11.030  0.00  0.00    -0.217 OA
ENDBRANCH  11  13
ENDBRANCH  10  11
ENDBRANCH   9  10
ENDBRANCH   2   9
TORSDOF 5
ENDMDL
MODEL 6
REMARK VINA RESULT:      -5.1      1.503      4.897
REMARK  Name = 
REMARK  5 active torsions:
REMARK  status: ('A' for Active; 'I' for Inactive)
REMARK    1  A    between atoms: O_2  and  C_3
REMARK    2  A    between atoms: C_8  and  O_9
REMARK    3  A    between atoms: O_9  and  C_10
REMARK    4  A    between atoms: C_10  and  C_11
REMARK    5  A    between atoms: C_11  and  C_13
REMARK                            x       y       z     vdW  Elec       q    Type
REMARK                         _______ _______ _______ _____ _____    ______ ____
ROOT
ATOM      1  C   UNL     1      -0.517   5.913  -4.504  0.00  0.00    +0.172 A 
ATOM      2  C   UNL     1      -0.676   5.254  -5.717  0.00  0.00    +0.172 A 
ATOM      3  C   UNL     1      -1.912   5.485  -6.308  0.00  0.00    +0.040 A 
ATOM      4  C   UNL     1      -2.683   6.566  -5.962  0.00  0.00    +0.003 A 
ATOM      5  C   UNL     1      -2.299   7.423  -4.964  0.00  0.00    +0.003 A 
ATOM      6  C   UNL     1      -1.199   7.090  -4.218  0.00  0.00    +0.040 A 
ENDROOT
BRANCH   1   8
ATOM      7  C   UNL     1       0.262   5.187  -2.367  0.00  0.00    +0.253 C 
ATOM      8  O   UNL     1       0.545   5.539  -3.702  0.00  0.00    -0.468 OA
ENDBRANCH   1   8
BRANCH   2   9
ATOM      9  O   UNL     1       0.364   4.637  -6.364  0.00  0.00    -0.470 OA
BRANCH   9  10
ATOM     10  C   UNL     1       1.042   5.289  -7.411  0.00  0.00    +0.241 C 
BRANCH  10  11
ATOM     11  C   UNL     1       2.602   4.748  -7.172  0.00  0.00    +0.228 C 
ATOM     12  O   UNL     1       2.107   3.506  -6.417  0.00  0.00    -0.216 OA
BRANCH  11  13
ATOM     13  C   UNL     1       2.633   3.928  -8.622  0.00  0.00    +0.219 C 
ATOM     14  O   UNL     1       3.927   4.014  -9.079  0.00  0.00    -0.217 OA
ENDBRANCH  11  13
ENDBRANCH  10  11
ENDBRANCH   9  10
ENDBRANCH   2   9
TORSDOF 5
ENDMDL
MODEL 7
REMARK VINA RESULT:      -5.1      1.640      2.662
REMARK  Name = 
REMARK  5 active torsions:
REMARK  status: ('A' for Active; 'I' for Inactive)
REMARK    1  A    between atoms: O_2  and  C_3
REMARK    2  A    between atoms: C_8  and  O_9
REMARK    3  A    between atoms: O_9  and  C_10
REMARK    4  A    between atoms: C_10  and  C_11
REMARK    5  A    between atoms: C_11  and  C_13
REMARK                            x       y       z     vdW  Elec       q    Type
REMARK                         _______ _______ _______ _____ _____    ______ ____
ROOT
ATOM      1  C   UNL     1      -0.242   5.224  -5.993  0.00  0.00    +0.172 A 
ATOM      2  C   UNL     1      -0.193   5.799  -4.729  0.00  0.00    +0.172 A 
ATOM      3  C   UNL     1      -1.177   6.759  -4.526  0.00  0.00    +0.040 A 
ATOM      4  C   UNL     1      -2.307   6.806  -5.303  0.00  0.00    +0.003 A 
ATOM      5  C   UNL     1      -2.479   5.951  -6.360  0.00  0.00    +0.003 A 
ATOM      6  C   UNL     1      -1.427   5.148  -6.716  0.00  0.00    +0.040 A 
ENDROOT
BRANCH   1   8
ATOM      7  C   UNL     1       1.645   4.988  -7.437  0.00  0.00    +0.253 C 
ATOM      8  O   UNL     1       0.843   4.470  -6.401  0.00  0.00    -0.468 OA
ENDBRANCH   1   8
BRANCH   2   9
ATOM      9  O   UNL     1       0.591   5.300  -3.720  0.00  0.00    -0.470 OA
BRANCH   9  10
ATOM     10  C   UNL     1       1.400   6.158  -2.953  0.00  0.00    +0.241 C 
BRANCH  10  11
ATOM     11  C   UNL     1       2.594   6.545  -4.054  0.00  0.00    +0.228 C 
ATOM     12  O   UNL     1       3.224   7.557  -3.087  0.00  0.00    -0.216 OA
BRANCH  11  13
ATOM     13  C   UNL     1       3.598   5.325  -3.525  0.00  0.00    +0.219 C 
ATOM     14  O   UNL     1       3.756   4.474  -4.593  0.00  0.00    -0.217 OA
ENDBRANCH  11  13
ENDBRANCH  10  11
ENDBRANCH   9  10
ENDBRANCH   2   9
TORSDOF 5
ENDMDL
MODEL 8
REMARK VINA RESULT:      -5.0      2.135      4.065
REMARK  Name = 
REMARK  5 active torsions:
REMARK  status: ('A' for Active; 'I' for Inactive)
REMARK    1  A    between atoms: O_2  and  C_3
REMARK    2  A    between atoms: C_8  and  O_9
REMARK    3  A    between atoms: O_9  and  C_10
REMARK    4  A    between atoms: C_10  and  C_11
REMARK    5  A    between atoms: C_11  and  C_13
REMARK                            x       y       z     vdW  Elec       q    Type
REMARK                         _______ _______ _______ _____ _____    ______ ____
ROOT
ATOM      1  C   UNL     1      -1.285   5.525  -4.224  0.00  0.00    +0.172 A 
ATOM      2  C   UNL     1      -0.042   5.309  -4.806  0.00  0.00    +0.172 A 
ATOM      3  C   UNL     1      -0.114   5.044  -6.168  0.00  0.00    +0.040 A 
ATOM      4  C   UNL     1      -1.214   5.391  -6.911  0.00  0.00    +0.003 A 
ATOM      5  C   UNL     1      -2.320   5.950  -6.325  0.00  0.00    +0.003 A 
ATOM      6  C   UNL     1      -2.360   6.014  -4.957  0.00  0.00    +0.040 A 
ENDROOT
BRANCH   1   8
ATOM      7  C   UNL     1      -2.641   5.598  -2.259  0.00  0.00    +0.253 C 
ATOM      8  O   UNL     1      -1.361   5.519  -2.843  0.00  0.00    -0.468 OA
ENDBRANCH   1   8
BRANCH   2   9
ATOM      9  O   UNL     1       1.135   5.566  -4.150  0.00  0.00    -0.470 OA
BRANCH   9  10
ATOM     10  C   UNL     1       1.902   6.699  -4.476  0.00  0.00    +0.241 C 
BRANCH  10  11
ATOM     11  C   UNL     1       3.389   6.274  -3.849  0.00  0.00    +0.228 C 
ATOM     12  O   UNL     1       3.484   5.055  -4.778  0.00  0.00    -0.216 OA
BRANCH  11  13
ATOM     13  C   UNL     1       4.217   7.236  -4.929  0.00  0.00    +0.219 C 
ATOM     14  O   UNL     1       3.371   7.422  -5.997  0.00  0.00    -0.217 OA
ENDBRANCH  11  13
ENDBRANCH  10  11
ENDBRANCH   9  10
ENDBRANCH   2   9
TORSDOF 5
ENDMDL
MODEL 9
REMARK VINA RESULT:      -4.8      2.150      3.934
REMARK  Name = 
REMARK  5 active torsions:
REMARK  status: ('A' for Active; 'I' for Inactive)
REMARK    1  A    between atoms: O_2  and  C_3
REMARK    2  A    between atoms: C_8  and  O_9
REMARK    3  A    between atoms: O_9  and  C_10
REMARK    4  A    between atoms: C_10  and  C_11
REMARK    5  A    between atoms: C_11  and  C_13
REMARK                            x       y       z     vdW  Elec       q    Type
REMARK                         _______ _______ _______ _____ _____    ______ ____
ROOT
ATOM      1  C   UNL     1      -1.480   5.652  -4.199  0.00  0.00    +0.172 A 
ATOM      2  C   UNL     1      -0.162   5.734  -4.630  0.00  0.00    +0.172 A 
ATOM      3  C   UNL     1       0.012   5.313  -5.943  0.00  0.00    +0.040 A 
ATOM      4  C   UNL     1      -1.038   5.253  -6.824  0.00  0.00    +0.003 A 
ATOM      5  C   UNL     1      -2.318   5.538  -6.424  0.00  0.00    +0.003 A 
ATOM      6  C   UNL     1      -2.546   5.736  -5.087  0.00  0.00    +0.040 A 
ENDROOT
BRANCH   1   8
ATOM      7  C   UNL     1      -3.010   6.196  -2.448  0.00  0.00    +0.253 C 
ATOM      8  O   UNL     1      -1.725   5.775  -2.844  0.00  0.00    -0.468 OA
ENDBRANCH   1   8
BRANCH   2   9
ATOM      9  O   UNL     1       0.811   6.380  -3.911  0.00  0.00    -0.470 OA
BRANCH   9  10
ATOM     10  C   UNL     1       1.859   5.656  -3.314  0.00  0.00    +0.241 C 
BRANCH  10  11
ATOM     11  C   UNL     1       3.184   6.296  -4.100  0.00  0.00    +0.228 C 
ATOM     12  O   UNL     1       4.043   6.200  -2.832  0.00  0.00    -0.216 OA
BRANCH  11  13
ATOM     13  C   UNL     1       3.697   4.804  -4.634  0.00  0.00    +0.219 C 
ATOM     14  O   UNL     1       5.012   4.695  -4.248  0.00  0.00    -0.217 OA
ENDBRANCH  11  13
ENDBRANCH  10  11
ENDBRANCH   9  10
ENDBRANCH   2   9
TORSDOF 5
ENDMDL
