MODEL 1
REMARK VINA RESULT:      -8.3      0.000      0.000
REMARK  Name = 
REMARK  2 active torsions:
REMARK  status: ('A' for Active; 'I' for Inactive)
REMARK    1  A    between atoms: N_6  and  C_7
REMARK    2  A    between atoms: C_7  and  C_8
REMARK                            x       y       z     vdW  Elec       q    Type
REMARK                         _______ _______ _______ _____ _____    ______ ____
ROOT
ATOM      1  C   UNL     1       2.958   5.614  -8.418  0.00  0.00    +0.085 C 
ATOM      2  C   UNL     1       4.371   5.078  -8.963  0.00  0.00    +0.176 C 
ATOM      3  O   UNL     1       5.282   5.090  -8.088  0.00  0.00    -0.291 OA
ATOM      4  C   UNL     1       4.722   5.634 -10.271  0.00  0.00    +0.048 A 
ATOM      5  C   UNL     1       5.926   5.941 -10.879  0.00  0.00    +0.020 A 
ATOM      6  C   UNL     1       5.733   5.855 -12.253  0.00  0.00    +0.060 A 
ATOM      7  N   UNL     1       4.407   5.732 -12.458  0.00  0.00    -0.329 N 
ATOM      8  C   UNL     1       3.740   5.688 -13.741  0.00  0.00    +0.130 C 
ATOM      9  C   UNL     1       6.841   5.616 -13.060  0.00  0.00    +0.017 A 
ATOM     10  C   UNL     1       8.078   5.368 -12.477  0.00  0.00    +0.001 A 
ATOM     11  C   UNL     1       8.286   5.894 -11.209  0.00  0.00    +0.000 A 
ATOM     12  C   UNL     1       7.207   6.068 -10.355  0.00  0.00    +0.002 A 
ATOM     13  C   UNL     1       3.779   5.612 -11.273  0.00  0.00    +0.040 A 
ATOM     14  C   UNL     1       2.349   5.678 -10.842  0.00  0.00    +0.044 C 
ATOM     15  C   UNL     1       2.128   4.832  -9.594  0.00  0.00    +0.016 C 
ENDROOT
BRANCH   1  16
ATOM     16  C   UNL     1       2.813   4.351  -7.387  0.00  0.00    +0.115 C 
BRANCH  16  19
ATOM     17  C   UNL     1       3.961   4.957  -4.844  0.00  0.00    +0.072 C 
ATOM     18  C   UNL     1       2.919   5.037  -5.006  0.00  0.00    +0.121 A 
ATOM     19  N   UNL     1       2.246   4.959  -6.184  0.00  0.00    -0.313 N 
ATOM     20  C   UNL     1       0.911   4.883  -5.947  0.00  0.00    +0.098 A 
ATOM     21  C   UNL     1       0.743   5.123  -4.619  0.00  0.00    +0.119 A 
ATOM     22  N   UNL     1       1.951   5.349  -4.105  0.00  0.00    -0.229 NA
ENDBRANCH  16  19
ENDBRANCH   1  16
TORSDOF 2
ENDMDL
MODEL 2
REMARK VINA RESULT:      -8.0      0.914      1.482
REMARK  Name = 
REMARK  2 active torsions:
REMARK  status: ('A' for Active; 'I' for Inactive)
REMARK    1  A    between atoms: N_6  and  C_7
REMARK    2  A    between atoms: C_7  and  C_8
REMARK                            x       y       z     vdW  Elec       q    Type
REMARK                         _______ _______ _______ _____ _____    ______ ____
ROOT
ATOM      1  C   UNL     1       2.455   5.702  -8.532  0.00  0.00    +0.085 C 
ATOM      2  C   UNL     1       3.890   5.094  -8.924  0.00  0.00    +0.176 C 
ATOM      3  O   UNL     1       4.703   5.068  -7.956  0.00  0.00    -0.291 OA
ATOM      4  C   UNL     1       4.404   5.624 -10.187  0.00  0.00    +0.048 A 
ATOM      5  C   UNL     1       5.680   5.867 -10.665  0.00  0.00    +0.020 A 
ATOM      6  C   UNL     1       5.630   5.781 -12.051  0.00  0.00    +0.060 A 
ATOM      7  N   UNL     1       4.329   5.722 -12.396  0.00  0.00    -0.329 N 
ATOM      8  C   UNL     1       3.800   5.702 -13.742  0.00  0.00    +0.130 C 
ATOM      9  C   UNL     1       6.804   5.484 -12.735  0.00  0.00    +0.017 A 
ATOM     10  C   UNL     1       7.959   5.179 -12.024  0.00  0.00    +0.001 A 
ATOM     11  C   UNL     1       8.057   5.703 -10.741  0.00  0.00    +0.000 A 
ATOM     12  C   UNL     1       6.903   5.936 -10.007  0.00  0.00    +0.002 A 
ATOM     13  C   UNL     1       3.574   5.641 -11.284  0.00  0.00    +0.040 A 
ATOM     14  C   UNL     1       2.111   5.779 -11.007  0.00  0.00    +0.044 C 
ATOM     15  C   UNL     1       1.717   4.954  -9.788  0.00  0.00    +0.016 C 
ENDROOT
BRANCH   1  16
ATOM     16  C   UNL     1       2.140   4.454  -7.521  0.00  0.00    +0.115 C 
BRANCH  16  19
ATOM     17  C   UNL     1      -0.556   5.123  -6.862  0.00  0.00    +0.072 C 
ATOM     18  C   UNL     1       0.252   5.474  -6.277  0.00  0.00    +0.121 A 
ATOM     19  N   UNL     1       1.559   5.108  -6.348  0.00  0.00    -0.313 N 
ATOM     20  C   UNL     1       2.313   5.945  -5.591  0.00  0.00    +0.098 A 
ATOM     21  C   UNL     1       1.441   6.711  -4.882  0.00  0.00    +0.119 A 
ATOM     22  N   UNL     1       0.212   6.313  -5.210  0.00  0.00    -0.229 NA
ENDBRANCH  16  19
ENDBRANCH   1  16
TORSDOF 2
ENDMDL
MODEL 3
REMARK VINA RESULT:      -8.0      2.059      7.500
REMARK  Name = 
REMARK  2 active torsions:
REMARK  status: ('A' for Active; 'I' for Inactive)
REMARK    1  A    between atoms: N_6  and  C_7
REMARK    2  A    between atoms: C_7  and  C_8
REMARK                            x       y       z     vdW  Elec       q    Type
REMARK                         _______ _______ _______ _____ _____    ______ ____
ROOT
ATOM      1  C   UNL     1       3.687   6.299  -7.986  0.00  0.00    +0.085 C 
ATOM      2  C   UNL     1       2.311   5.514  -7.721  0.00  0.00    +0.176 C 
ATOM      3  O   UNL     1       1.643   5.306  -8.773  0.00  0.00    -0.291 OA
ATOM      4  C   UNL     1       1.568   6.043  -6.576  0.00  0.00    +0.048 A 
ATOM      5  C   UNL     1       0.220   6.127  -6.276  0.00  0.00    +0.020 A 
ATOM      6  C   UNL     1       0.100   6.139  -4.892  0.00  0.00    +0.060 A 
ATOM      7  N   UNL     1       1.341   6.294  -4.390  0.00  0.00    -0.329 N 
ATOM      8  C   UNL     1       1.687   6.439  -2.993  0.00  0.00    +0.130 C 
ATOM      9  C   UNL     1      -1.101   5.717  -4.332  0.00  0.00    +0.017 A 
ATOM     10  C   UNL     1      -2.100   5.201  -5.148  0.00  0.00    +0.001 A 
ATOM     11  C   UNL     1      -2.101   5.621  -6.472  0.00  0.00    +0.000 A 
ATOM     12  C   UNL     1      -0.904   5.972  -7.079  0.00  0.00    +0.002 A 
ATOM     13  C   UNL     1       2.239   6.253  -5.393  0.00  0.00    +0.040 A 
ATOM     14  C   UNL     1       3.692   6.587  -5.503  0.00  0.00    +0.044 C 
ATOM     15  C   UNL     1       4.351   5.751  -6.593  0.00  0.00    +0.016 C 
ENDROOT
BRANCH   1  16
ATOM     16  C   UNL     1       4.300   5.049  -8.846  0.00  0.00    +0.115 C 
BRANCH  16  19
ATOM     17  C   UNL     1       7.109   5.442  -9.179  0.00  0.00    +0.072 C 
ATOM     18  C   UNL     1       6.411   5.924  -9.811  0.00  0.00    +0.121 A 
ATOM     19  N   UNL     1       5.072   5.708  -9.899  0.00  0.00    -0.313 N 
ATOM     20  C   UNL     1       4.500   6.677 -10.657  0.00  0.00    +0.098 A 
ATOM     21  C   UNL     1       5.521   7.383 -11.214  0.00  0.00    +0.119 A 
ATOM     22  N   UNL     1       6.656   6.823 -10.799  0.00  0.00    -0.229 NA
ENDBRANCH  16  19
ENDBRANCH   1  16
TORSDOF 2
ENDMDL
MODEL 4
REMARK VINA RESULT:      -7.8      2.905      5.203
REMARK  Name = 
REMARK  2 active torsions:
REMARK  status: ('A' for Active; 'I' for Inactive)
REMARK    1  A    between atoms: N_6  and  C_7
REMARK    2  A    between atoms: C_7  and  C_8
REMARK                            x       y       z     vdW  Elec       q    Type
REMARK                         _______ _______ _______ _____ _____    ______ ____
ROOT
ATOM      1  C   UNL     1       0.594   5.143  -5.251  0.00  0.00    +0.085 C 
ATOM      2  C   UNL     1       0.359   5.772  -6.710  0.00  0.00    +0.176 C 
ATOM      3  O   UNL     1      -0.852   5.757  -7.073  0.00  0.00    -0.291 OA
ATOM      4  C   UNL     1       1.335   5.303  -7.694  0.00  0.00    +0.048 A 
ATOM      5  C   UNL     1       1.277   5.086  -9.059  0.00  0.00    +0.020 A 
ATOM      6  C   UNL     1       2.565   5.235  -9.561  0.00  0.00    +0.060 A 
ATOM      7  N   UNL     1       3.395   5.306  -8.502  0.00  0.00    -0.329 N 
ATOM      8  C   UNL     1       4.838   5.386  -8.549  0.00  0.00    +0.130 C 
ATOM      9  C   UNL     1       2.714   5.567 -10.904  0.00  0.00    +0.017 A 
ATOM     10  C   UNL     1       1.591   5.843 -11.675  0.00  0.00    +0.001 A 
ATOM     11  C   UNL     1       0.398   5.261 -11.268  0.00  0.00    +0.000 A 
ATOM     12  C   UNL     1       0.192   4.991  -9.923  0.00  0.00    +0.002 A 
ATOM     13  C   UNL     1       2.671   5.333  -7.366  0.00  0.00    +0.040 A 
ATOM     14  C   UNL     1       3.003   5.178  -5.916  0.00  0.00    +0.044 C 
ATOM     15  C   UNL     1       2.008   5.945  -5.055  0.00  0.00    +0.016 C 
ENDROOT
BRANCH   1  16
ATOM     16  C   UNL     1      -0.260   6.342  -4.535  0.00  0.00    +0.115 C 
BRANCH  16  19
ATOM     17  C   UNL     1      -2.853   5.296  -3.958  0.00  0.00    +0.072 C 
ATOM     18  C   UNL     1      -2.123   5.394  -3.200  0.00  0.00    +0.121 A 
ATOM     19  N   UNL     1      -0.807   5.700  -3.339  0.00  0.00    -0.313 N 
ATOM     20  C   UNL     1      -0.262   5.953  -2.122  0.00  0.00    +0.098 A 
ATOM     21  C   UNL     1      -1.199   5.599  -1.202  0.00  0.00    +0.119 A 
ATOM     22  N   UNL     1      -2.253   5.138  -1.872  0.00  0.00    -0.229 NA
ENDBRANCH  16  19
ENDBRANCH   1  16
TORSDOF 2
ENDMDL
MODEL 5
REMARK VINA RESULT:      -7.8      3.093      8.183
REMARK  Name = 
REMARK  2 active torsions:
REMARK  status: ('A' for Active; 'I' for Inactive)
REMARK    1  A    between atoms: N_6  and  C_7
REMARK    2  A    between atoms: C_7  and  C_8
REMARK                            x       y       z     vdW  Elec       q    Type
REMARK                         _______ _______ _______ _____ _____    ______ ____
ROOT
ATOM      1  C   UNL     1       1.648   6.362  -8.398  0.00  0.00    +0.085 C 
ATOM      2  C   UNL     1       0.593   5.598  -7.458  0.00  0.00    +0.176 C 
ATOM      3  O   UNL     1      -0.500   5.340  -8.038  0.00  0.00    -0.291 OA
ATOM      4  C   UNL     1       0.495   6.185  -6.121  0.00  0.00    +0.048 A 
ATOM      5  C   UNL     1      -0.536   6.290  -5.205  0.00  0.00    +0.020 A 
ATOM      6  C   UNL     1       0.036   6.371  -3.941  0.00  0.00    +0.060 A 
ATOM      7  N   UNL     1       1.361   6.545  -4.118  0.00  0.00    -0.329 N 
ATOM      8  C   UNL     1       2.342   6.757  -3.078  0.00  0.00    +0.130 C 
ATOM      9  C   UNL     1      -0.729   5.983  -2.845  0.00  0.00    +0.017 A 
ATOM     10  C   UNL     1      -1.989   5.431  -3.045  0.00  0.00    +0.001 A 
ATOM     11  C   UNL     1      -2.645   5.785  -4.216  0.00  0.00    +0.000 A 
ATOM     12  C   UNL     1      -1.906   6.100  -5.346  0.00  0.00    +0.002 A 
ATOM     13  C   UNL     1       1.654   6.451  -5.429  0.00  0.00    +0.040 A 
ATOM     14  C   UNL     1       2.861   6.772  -6.251  0.00  0.00    +0.044 C 
ATOM     15  C   UNL     1       2.919   5.880  -7.485  0.00  0.00    +0.016 C 
ENDROOT
BRANCH   1  16
ATOM     16  C   UNL     1       1.787   5.068  -9.391  0.00  0.00    +0.115 C 
BRANCH  16  19
ATOM     17  C   UNL     1      -0.151   4.641 -11.443  0.00  0.00    +0.072 C 
ATOM     18  C   UNL     1       0.722   5.208 -11.626  0.00  0.00    +0.121 A 
ATOM     19  N   UNL     1       1.640   5.648 -10.726  0.00  0.00    -0.313 N 
ATOM     20  C   UNL     1       2.723   6.141 -11.377  0.00  0.00    +0.098 A 
ATOM     21  C   UNL     1       2.387   6.197 -12.694  0.00  0.00    +0.119 A 
ATOM     22  N   UNL     1       1.133   5.761 -12.797  0.00  0.00    -0.229 NA
ENDBRANCH  16  19
ENDBRANCH   1  16
TORSDOF 2
ENDMDL
MODEL 6
REMARK VINA RESULT:      -7.8      1.251      6.753
REMARK  Name = 
REMARK  2 active torsions:
REMARK  status: ('A' for Active; 'I' for Inactive)
REMARK    1  A    between atoms: N_6  and  C_7
REMARK    2  A    between atoms: C_7  and  C_8
REMARK                            x       y       z     vdW  Elec       q    Type
REMARK                         _______ _______ _______ _____ _____    ______ ____
ROOT
ATOM      1  C   UNL     1       4.260   5.089 -10.145  0.00  0.00    +0.085 C 
ATOM      2  C   UNL     1       4.380   5.727  -8.675  0.00  0.00    +0.176 C 
ATOM      3  O   UNL     1       5.554   5.694  -8.209  0.00  0.00    -0.291 OA
ATOM      4  C   UNL     1       3.314   5.284  -7.776  0.00  0.00    +0.048 A 
ATOM      5  C   UNL     1       3.250   5.078  -6.410  0.00  0.00    +0.020 A 
ATOM      6  C   UNL     1       1.927   5.253  -6.022  0.00  0.00    +0.060 A 
ATOM      7  N   UNL     1       1.193   5.330  -7.149  0.00  0.00    -0.329 N 
ATOM      8  C   UNL     1      -0.247   5.436  -7.227  0.00  0.00    +0.130 C 
ATOM      9  C   UNL     1       1.668   5.600  -4.700  0.00  0.00    +0.017 A 
ATOM     10  C   UNL     1       2.725   5.863  -3.836  0.00  0.00    +0.001 A 
ATOM     11  C   UNL     1       3.939   5.256  -4.134  0.00  0.00    +0.000 A 
ATOM     12  C   UNL     1       4.255   4.972  -5.454  0.00  0.00    +0.002 A 
ATOM     13  C   UNL     1       2.012   5.335  -8.218  0.00  0.00    +0.040 A 
ATOM     14  C   UNL     1       1.803   5.172  -9.690  0.00  0.00    +0.044 C 
ATOM     15  C   UNL     1       2.883   5.915 -10.468  0.00  0.00    +0.016 C 
ENDROOT
BRANCH   1  16
ATOM     16  C   UNL     1       5.194   6.267 -10.793  0.00  0.00    +0.115 C 
BRANCH  16  19
ATOM     17  C   UNL     1       7.911   5.396 -10.882  0.00  0.00    +0.072 C 
ATOM     18  C   UNL     1       7.298   5.359 -11.743  0.00  0.00    +0.121 A 
ATOM     19  N   UNL     1       5.957   5.564 -11.824  0.00  0.00    -0.313 N 
ATOM     20  C   UNL     1       5.584   5.653 -13.127  0.00  0.00    +0.098 A 
ATOM     21  C   UNL     1       6.671   5.295 -13.862  0.00  0.00    +0.119 A 
ATOM     22  N   UNL     1       7.643   4.991 -13.004  0.00  0.00    -0.229 NA
ENDBRANCH  16  19
ENDBRANCH   1  16
TORSDOF 2
ENDMDL
MODEL 7
REMARK VINA RESULT:      -7.6      2.752      7.044
REMARK  Name = 
REMARK  2 active torsions:
REMARK  status: ('A' for Active; 'I' for Inactive)
REMARK    1  A    between atoms: N_6  and  C_7
REMARK    2  A    between atoms: C_7  and  C_8
REMARK                            x       y       z     vdW  Elec       q    Type
REMARK                         _______ _______ _______ _____ _____    ______ ____
ROOT
ATOM      1  C   UNL     1       1.477   5.371  -8.193  0.00  0.00    +0.085 C 
ATOM      2  C   UNL     1       2.147   6.539  -7.317  0.00  0.00    +0.176 C 
ATOM      3  O   UNL     1       3.154   7.065  -7.871  0.00  0.00    -0.291 OA
ATOM      4  C   UNL     1       2.300   6.175  -5.908  0.00  0.00    +0.048 A 
ATOM      5  C   UNL     1       3.222   6.515  -4.934  0.00  0.00    +0.020 A 
ATOM      6  C   UNL     1       2.590   6.402  -3.702  0.00  0.00    +0.060 A 
ATOM      7  N   UNL     1       1.408   5.792  -3.920  0.00  0.00    -0.329 N 
ATOM      8  C   UNL     1       0.450   5.398  -2.911  0.00  0.00    +0.130 C 
ATOM      9  C   UNL     1       3.090   7.141  -2.635  0.00  0.00    +0.017 A 
ATOM     10  C   UNL     1       4.127   8.042  -2.845  0.00  0.00    +0.001 A 
ATOM     11  C   UNL     1       4.967   7.784  -3.921  0.00  0.00    +0.000 A 
ATOM     12  C   UNL     1       4.472   7.118  -5.031  0.00  0.00    +0.002 A 
ATOM     13  C   UNL     1       1.223   5.633  -5.245  0.00  0.00    +0.040 A 
ATOM     14  C   UNL     1       0.259   4.847  -6.074  0.00  0.00    +0.044 C 
ATOM     15  C   UNL     1       0.040   5.522  -7.422  0.00  0.00    +0.016 C 
ENDROOT
BRANCH   1  16
ATOM     16  C   UNL     1       1.033   6.427  -9.363  0.00  0.00    +0.115 C 
BRANCH  16  19
ATOM     17  C   UNL     1       3.084   6.406 -11.348  0.00  0.00    +0.072 C 
ATOM     18  C   UNL     1       2.175   5.887 -11.497  0.00  0.00    +0.121 A 
ATOM     19  N   UNL     1       1.188   5.652 -10.594  0.00  0.00    -0.313 N 
ATOM     20  C   UNL     1       0.095   5.154 -11.227  0.00  0.00    +0.098 A 
ATOM     21  C   UNL     1       0.480   4.885 -12.503  0.00  0.00    +0.119 A 
ATOM     22  N   UNL     1       1.769   5.205 -12.599  0.00  0.00    -0.229 NA
ENDBRANCH  16  19
ENDBRANCH   1  16
TORSDOF 2
ENDMDL
MODEL 8
REMARK VINA RESULT:      -7.6      1.320      1.833
REMARK  Name = 
REMARK  2 active torsions:
REMARK  status: ('A' for Active; 'I' for Inactive)
REMARK    1  A    between atoms: N_6  and  C_7
REMARK    2  A    between atoms: C_7  and  C_8
REMARK                            x       y       z     vdW  Elec       q    Type
REMARK                         _______ _______ _______ _____ _____    ______ ____
ROOT
ATOM      1  C   UNL     1       2.924   6.265  -7.219  0.00  0.00    +0.085 C 
ATOM      2  C   UNL     1       4.042   5.542  -8.116  0.00  0.00    +0.176 C 
ATOM      3  O   UNL     1       5.145   5.393  -7.518  0.00  0.00    -0.291 OA
ATOM      4  C   UNL     1       4.111   6.077  -9.477  0.00  0.00    +0.048 A 
ATOM      5  C   UNL     1       5.141   6.219 -10.389  0.00  0.00    +0.020 A 
ATOM      6  C   UNL     1       4.578   6.202 -11.660  0.00  0.00    +0.060 A 
ATOM      7  N   UNL     1       3.243   6.283 -11.500  0.00  0.00    -0.329 N 
ATOM      8  C   UNL     1       2.259   6.376 -12.557  0.00  0.00    +0.130 C 
ATOM      9  C   UNL     1       5.382   5.825 -12.731  0.00  0.00    +0.017 A 
ATOM     10  C   UNL     1       6.677   5.379 -12.499  0.00  0.00    +0.001 A 
ATOM     11  C   UNL     1       7.293   5.832 -11.339  0.00  0.00    +0.000 A 
ATOM     12  C   UNL     1       6.520   6.139 -10.229  0.00  0.00    +0.002 A 
ATOM     13  C   UNL     1       2.943   6.224 -10.189  0.00  0.00    +0.040 A 
ATOM     14  C   UNL     1       1.707   6.489  -9.391  0.00  0.00    +0.044 C 
ATOM     15  C   UNL     1       1.702   5.650  -8.119  0.00  0.00    +0.016 C 
ENDROOT
BRANCH   1  16
ATOM     16  C   UNL     1       2.871   5.008  -6.171  0.00  0.00    +0.115 C 
BRANCH  16  19
ATOM     17  C   UNL     1       0.810   5.308  -4.218  0.00  0.00    +0.072 C 
ATOM     18  C   UNL     1       1.728   5.826  -4.128  0.00  0.00    +0.121 A 
ATOM     19  N   UNL     1       2.859   5.659  -4.861  0.00  0.00    -0.313 N 
ATOM     20  C   UNL     1       3.734   6.662  -4.592  0.00  0.00    +0.098 A 
ATOM     21  C   UNL     1       3.224   7.341  -3.530  0.00  0.00    +0.119 A 
ATOM     22  N   UNL     1       2.089   6.734  -3.184  0.00  0.00    -0.229 NA
ENDBRANCH  16  19
ENDBRANCH   1  16
TORSDOF 2
ENDMDL
MODEL 9
REMARK VINA RESULT:      -7.6      1.415      6.951
REMARK  Name = 
REMARK  2 active torsions:
REMARK  status: ('A' for Active; 'I' for Inactive)
REMARK    1  A    between atoms: N_6  and  C_7
REMARK    2  A    between atoms: C_7  and  C_8
REMARK                            x       y       z     vdW  Elec       q    Type
REMARK                         _______ _______ _______ _____ _____    ______ ____
ROOT
ATOM      1  C   UNL     1       3.132   5.413  -8.988  0.00  0.00    +0.085 C 
ATOM      2  C   UNL     1       3.627   5.861  -7.527  0.00  0.00    +0.176 C 
ATOM      3  O   UNL     1       4.858   5.655  -7.330  0.00  0.00    -0.291 OA
ATOM      4  C   UNL     1       2.720   5.428  -6.463  0.00  0.00    +0.048 A 
ATOM      5  C   UNL     1       2.910   5.073  -5.140  0.00  0.00    +0.020 A 
ATOM      6  C   UNL     1       1.726   5.338  -4.462  0.00  0.00    +0.060 A 
ATOM      7  N   UNL     1       0.793   5.618  -5.393  0.00  0.00    -0.329 N 
ATOM      8  C   UNL     1      -0.608   5.879  -5.149  0.00  0.00    +0.130 C 
ATOM      9  C   UNL     1       1.787   5.554  -3.089  0.00  0.00    +0.017 A 
ATOM     10  C   UNL     1       3.022   5.605  -2.453  0.00  0.00    +0.001 A 
ATOM     11  C   UNL     1       4.064   4.917  -3.060  0.00  0.00    +0.000 A 
ATOM     12  C   UNL     1       4.067   4.756  -4.437  0.00  0.00    +0.002 A 
ATOM     13  C   UNL     1       1.372   5.663  -6.608  0.00  0.00    +0.040 A 
ATOM     14  C   UNL     1       0.850   5.693  -8.009  0.00  0.00    +0.044 C 
ATOM     15  C   UNL     1       1.832   6.406  -8.930  0.00  0.00    +0.016 C 
ENDROOT
BRANCH   1  16
ATOM     16  C   UNL     1       4.054   6.556  -9.712  0.00  0.00    +0.115 C 
BRANCH  16  19
ATOM     17  C   UNL     1       6.842   6.113 -10.139  0.00  0.00    +0.072 C 
ATOM     18  C   UNL     1       6.127   5.830 -10.864  0.00  0.00    +0.121 A 
ATOM     19  N   UNL     1       4.774   5.807 -10.742  0.00  0.00    -0.313 N 
ATOM     20  C   UNL     1       4.206   5.604 -11.959  0.00  0.00    +0.098 A 
ATOM     21  C   UNL     1       5.221   5.293 -12.809  0.00  0.00    +0.119 A 
ATOM     22  N   UNL     1       6.346   5.300 -12.096  0.00  0.00    -0.229 NA
ENDBRANCH  16  19
ENDBRANCH   1  16
TORSDOF 2
ENDMDL
