MODEL 1
REMARK VINA RESULT:      -9.4      0.000      0.000
REMARK  Name = 
REMARK  2 active torsions:
REMARK  status: ('A' for Active; 'I' for Inactive)
REMARK    1  A    between atoms: C_2  and  O_3
REMARK    2  A    between atoms: O_3  and  C_4
REMARK                            x       y       z     vdW  Elec       q    Type
REMARK                         _______ _______ _______ _____ _____    ______ ____
ROOT
ATOM      1  C   UNL     1       1.928   4.766  -6.037  0.00  0.00    +0.405 C 
ATOM      2  N   UNL     1       2.013   5.477  -7.266  0.00  0.00    -0.245 N 
ATOM      3  C   UNL     1       0.806   5.481  -8.086  0.00  0.00    +0.101 C 
ATOM      4  C   UNL     1       1.172   5.539  -9.564  0.00  0.00    +0.044 C 
ATOM      5  C   UNL     1       2.525   6.107  -9.775  0.00  0.00    -0.039 C 
ATOM      6  C   UNL     1       3.116   5.856 -10.937  0.00  0.00    +0.009 C 
ATOM      7  C   UNL     1       4.554   5.559 -10.930  0.00  0.00    +0.077 A 
ATOM      8  C   UNL     1       5.348   5.268 -12.033  0.00  0.00    -0.004 A 
ATOM      9  C   UNL     1       6.714   5.439 -11.840  0.00  0.00    -0.001 A 
ATOM     10  C   UNL     1       7.193   5.983 -10.654  0.00  0.00    +0.020 A 
ATOM     11  C   UNL     1       6.377   6.125  -9.551  0.00  0.00    +0.099 A 
ATOM     12  C   UNL     1       5.070   5.375 -13.492  0.00  0.00    +0.033 C 
ATOM     13  C   UNL     1       3.708   4.859 -13.867  0.00  0.00    +0.031 C 
ATOM     14  C   UNL     1       2.653   5.831 -13.445  0.00  0.00    -0.021 A 
ATOM     15  C   UNL     1       1.927   6.349 -14.512  0.00  0.00    +0.007 A 
ATOM     16  C   UNL     1       1.000   7.326 -14.178  0.00  0.00    +0.057 A 
ATOM     17 CL   UNL     1       0.521   8.599 -15.270  0.00  0.00    -0.082 Cl
ATOM     18  C   UNL     1       0.409   7.250 -12.923  0.00  0.00    +0.011 A 
ATOM     19  C   UNL     1       1.071   6.651 -11.860  0.00  0.00    +0.001 A 
ATOM     20  N   UNL     1       5.080   5.776  -9.709  0.00  0.00    -0.244 NA
ATOM     21  C   UNL     1       2.276   6.050 -12.125  0.00  0.00    -0.003 A 
ATOM     22  C   UNL     1       3.197   6.995  -8.794  0.00  0.00    +0.044 C 
ATOM     23  C   UNL     1       2.849   6.665  -7.369  0.00  0.00    +0.101 C 
ATOM     24  O   UNL     1       1.375   3.635  -6.008  0.00  0.00    -0.226 OA
ENDROOT
BRANCH   1  25
ATOM     25  O   UNL     1       2.524   5.236  -4.863  0.00  0.00    -0.435 OA
BRANCH  25  27
ATOM     26  C   UNL     1       4.770   5.707  -4.186  0.00  0.00    +0.051 C 
ATOM     27  C   UNL     1       3.756   4.625  -4.500  0.00  0.00    +0.210 C 
ENDBRANCH  25  27
ENDBRANCH   1  25
TORSDOF 2
ENDMDL
MODEL 2
REMARK VINA RESULT:      -9.2      4.368      9.145
REMARK  Name = 
REMARK  2 active torsions:
REMARK  status: ('A' for Active; 'I' for Inactive)
REMARK    1  A    between atoms: C_2  and  O_3
REMARK    2  A    between atoms: O_3  and  C_4
REMARK                            x       y       z     vdW  Elec       q    Type
REMARK                         _______ _______ _______ _____ _____    ______ ____
ROOT
ATOM      1  C   UNL     1       2.833   4.928  -8.993  0.00  0.00    +0.405 C 
ATOM      2  N   UNL     1       2.659   5.704  -7.813  0.00  0.00    -0.245 N 
ATOM      3  C   UNL     1       3.859   5.925  -7.012  0.00  0.00    +0.101 C 
ATOM      4  C   UNL     1       3.497   6.035  -5.537  0.00  0.00    +0.044 C 
ATOM      5  C   UNL     1       2.081   6.431  -5.345  0.00  0.00    -0.039 C 
ATOM      6  C   UNL     1       1.535   6.183  -4.161  0.00  0.00    +0.009 C 
ATOM      7  C   UNL     1       0.149   5.697  -4.127  0.00  0.00    +0.077 A 
ATOM      8  C   UNL     1      -0.594   5.380  -2.996  0.00  0.00    -0.004 A 
ATOM      9  C   UNL     1      -1.971   5.354  -3.180  0.00  0.00    -0.001 A 
ATOM     10  C   UNL     1      -2.524   5.746  -4.393  0.00  0.00    +0.020 A 
ATOM     11  C   UNL     1      -1.740   5.919  -5.515  0.00  0.00    +0.099 A 
ATOM     12  C   UNL     1      -0.324   5.622  -1.552  0.00  0.00    +0.033 C 
ATOM     13  C   UNL     1       1.097   5.320  -1.162  0.00  0.00    +0.031 C 
ATOM     14  C   UNL     1       2.009   6.392  -1.663  0.00  0.00    -0.021 A 
ATOM     15  C   UNL     1       2.665   7.074  -0.644  0.00  0.00    +0.007 A 
ATOM     16  C   UNL     1       3.451   8.141  -1.056  0.00  0.00    +0.057 A 
ATOM     17 CL   UNL     1       3.760   9.538  -0.059  0.00  0.00    -0.082 Cl
ATOM     18  C   UNL     1       4.041   8.058  -2.311  0.00  0.00    +0.011 A 
ATOM     19  C   UNL     1       3.460   7.304  -3.322  0.00  0.00    +0.001 A 
ATOM     20  N   UNL     1      -0.408   5.758  -5.352  0.00  0.00    -0.244 NA
ATOM     21  C   UNL     1       2.347   6.568  -3.000  0.00  0.00    -0.003 A 
ATOM     22  C   UNL     1       1.291   7.152  -6.374  0.00  0.00    +0.044 C 
ATOM     23  C   UNL     1       1.672   6.775  -7.778  0.00  0.00    +0.101 C 
ATOM     24  O   UNL     1       3.531   3.882  -8.954  0.00  0.00    -0.226 OA
ENDROOT
BRANCH   1  25
ATOM     25  O   UNL     1       2.173   5.233 -10.187  0.00  0.00    -0.435 OA
BRANCH  25  27
ATOM     26  C   UNL     1      -0.068   5.567 -10.955  0.00  0.00    +0.051 C 
ATOM     27  C   UNL     1       0.932   4.572 -10.402  0.00  0.00    +0.210 C 
ENDBRANCH  25  27
ENDBRANCH   1  25
TORSDOF 2
ENDMDL
MODEL 3
REMARK VINA RESULT:      -8.3      3.636      7.009
REMARK  Name = 
REMARK  2 active torsions:
REMARK  status: ('A' for Active; 'I' for Inactive)
REMARK    1  A    between atoms: C_2  and  O_3
REMARK    2  A    between atoms: O_3  and  C_4
REMARK                            x       y       z     vdW  Elec       q    Type
REMARK                         _______ _______ _______ _____ _____    ______ ____
ROOT
ATOM      1  C   UNL     1       5.165   6.425 -10.455  0.00  0.00    +0.405 C 
ATOM      2  N   UNL     1       4.107   5.922  -9.648  0.00  0.00    -0.245 N 
ATOM      3  C   UNL     1       2.758   6.311 -10.048  0.00  0.00    +0.101 C 
ATOM      4  C   UNL     1       1.855   6.416  -8.826  0.00  0.00    +0.044 C 
ATOM      5  C   UNL     1       2.367   5.612  -7.690  0.00  0.00    -0.039 C 
ATOM      6  C   UNL     1       1.919   5.917  -6.478  0.00  0.00    +0.009 C 
ATOM      7  C   UNL     1       2.873   5.892  -5.362  0.00  0.00    +0.077 A 
ATOM      8  C   UNL     1       2.602   6.180  -4.030  0.00  0.00    -0.004 A 
ATOM      9  C   UNL     1       3.530   5.691  -3.118  0.00  0.00    -0.001 A 
ATOM     10  C   UNL     1       4.569   4.872  -3.544  0.00  0.00    +0.020 A 
ATOM     11  C   UNL     1       4.865   4.731  -4.884  0.00  0.00    +0.099 A 
ATOM     12  C   UNL     1       1.310   6.375  -3.317  0.00  0.00    +0.033 C 
ATOM     13  C   UNL     1       0.338   7.225  -4.087  0.00  0.00    +0.031 C 
ATOM     14  C   UNL     1      -0.239   6.447  -5.226  0.00  0.00    -0.021 A 
ATOM     15  C   UNL     1      -1.616   6.278  -5.132  0.00  0.00    +0.007 A 
ATOM     16  C   UNL     1      -2.183   5.482  -6.117  0.00  0.00    +0.057 A 
ATOM     17 CL   UNL     1      -3.627   4.536  -5.865  0.00  0.00    -0.082 Cl
ATOM     18  C   UNL     1      -1.579   5.478  -7.368  0.00  0.00    +0.011 A 
ATOM     19  C   UNL     1      -0.222   5.741  -7.504  0.00  0.00    +0.001 A 
ATOM     20  N   UNL     1       4.052   5.371  -5.754  0.00  0.00    -0.244 NA
ATOM     21  C   UNL     1       0.466   6.103  -6.373  0.00  0.00    -0.003 A 
ATOM     22  C   UNL     1       3.279   4.453  -7.859  0.00  0.00    +0.044 C 
ATOM     23  C   UNL     1       4.225   4.614  -9.016  0.00  0.00    +0.101 C 
ATOM     24  O   UNL     1       5.148   7.627 -10.825  0.00  0.00    -0.226 OA
ENDROOT
BRANCH   1  25
ATOM     25  O   UNL     1       6.284   5.653 -10.778  0.00  0.00    -0.435 OA
BRANCH  25  27
ATOM     26  C   UNL     1       8.406   5.708 -11.883  0.00  0.00    +0.051 C 
ATOM     27  C   UNL     1       7.528   6.343 -10.824  0.00  0.00    +0.210 C 
ENDBRANCH  25  27
ENDBRANCH   1  25
TORSDOF 2
ENDMDL
MODEL 4
REMARK VINA RESULT:      -8.2      2.823      5.034
REMARK  Name = 
REMARK  2 active torsions:
REMARK  status: ('A' for Active; 'I' for Inactive)
REMARK    1  A    between atoms: C_2  and  O_3
REMARK    2  A    between atoms: O_3  and  C_4
REMARK                            x       y       z     vdW  Elec       q    Type
REMARK                         _______ _______ _______ _____ _____    ______ ____
ROOT
ATOM      1  C   UNL     1       0.092   6.168  -4.899  0.00  0.00    +0.405 C 
ATOM      2  N   UNL     1       1.113   5.705  -5.775  0.00  0.00    -0.245 N 
ATOM      3  C   UNL     1       2.463   6.182  -5.490  0.00  0.00    +0.101 C 
ATOM      4  C   UNL     1       3.262   6.307  -6.780  0.00  0.00    +0.044 C 
ATOM      5  C   UNL     1       2.713   5.445  -7.855  0.00  0.00    -0.039 C 
ATOM      6  C   UNL     1       3.049   5.743  -9.104  0.00  0.00    +0.009 C 
ATOM      7  C   UNL     1       2.016   5.634 -10.142  0.00  0.00    +0.077 A 
ATOM      8  C   UNL     1       2.166   5.903 -11.497  0.00  0.00    -0.004 A 
ATOM      9  C   UNL     1       1.202   5.337 -12.323  0.00  0.00    -0.001 A 
ATOM     10  C   UNL     1       0.249   4.471 -11.800  0.00  0.00    +0.020 A 
ATOM     11  C   UNL     1       0.065   4.349 -10.438  0.00  0.00    +0.099 A 
ATOM     12  C   UNL     1       3.386   6.152 -12.313  0.00  0.00    +0.033 C 
ATOM     13  C   UNL     1       4.362   7.077 -11.638  0.00  0.00    +0.031 C 
ATOM     14  C   UNL     1       5.070   6.364 -10.532  0.00  0.00    -0.021 A 
ATOM     15  C   UNL     1       6.443   6.272 -10.728  0.00  0.00    +0.007 A 
ATOM     16  C   UNL     1       7.130   5.536  -9.774  0.00  0.00    +0.057 A 
ATOM     17 CL   UNL     1       8.604   4.668 -10.117  0.00  0.00    -0.082 Cl
ATOM     18  C   UNL     1       6.624   5.530  -8.480  0.00  0.00    +0.011 A 
ATOM     19  C   UNL     1       5.268   5.717  -8.244  0.00  0.00    +0.001 A 
ATOM     20  N   UNL     1       0.903   5.057  -9.648  0.00  0.00    -0.244 NA
ATOM     21  C   UNL     1       4.476   6.010  -9.326  0.00  0.00    -0.003 A 
ATOM     22  C   UNL     1       1.887   4.241  -7.591  0.00  0.00    +0.044 C 
ATOM     23  C   UNL     1       1.025   4.377  -6.367  0.00  0.00    +0.101 C 
ATOM     24  O   UNL     1       0.065   7.378  -4.557  0.00  0.00    -0.226 OA
ENDROOT
BRANCH   1  25
ATOM     25  O   UNL     1      -0.952   5.342  -4.473  0.00  0.00    -0.435 OA
BRANCH  25  27
ATOM     26  C   UNL     1      -2.455   5.734  -6.292  0.00  0.00    +0.051 C 
ATOM     27  C   UNL     1      -2.267   5.782  -4.789  0.00  0.00    +0.210 C 
ENDBRANCH  25  27
ENDBRANCH   1  25
TORSDOF 2
ENDMDL
MODEL 5
REMARK VINA RESULT:      -8.1      5.412      8.379
REMARK  Name = 
REMARK  2 active torsions:
REMARK  status: ('A' for Active; 'I' for Inactive)
REMARK    1  A    between atoms: C_2  and  O_3
REMARK    2  A    between atoms: O_3  and  C_4
REMARK                            x       y       z     vdW  Elec       q    Type
REMARK                         _______ _______ _______ _____ _____    ______ ____
ROOT
ATOM      1  C   UNL     1       3.479   8.945  -0.206  0.00  0.00    +0.405 C 
ATOM      2  N   UNL     1       3.198   7.946  -1.178  0.00  0.00    -0.245 N 
ATOM      3  C   UNL     1       3.964   8.028  -2.418  0.00  0.00    +0.101 C 
ATOM      4  C   UNL     1       3.136   7.507  -3.585  0.00  0.00    +0.044 C 
ATOM      5  C   UNL     1       2.061   6.590  -3.134  0.00  0.00    -0.039 C 
ATOM      6  C   UNL     1       1.048   6.385  -3.965  0.00  0.00    +0.009 C 
ATOM      7  C   UNL     1      -0.306   6.312  -3.401  0.00  0.00    +0.077 A 
ATOM      8  C   UNL     1      -1.489   6.108  -4.100  0.00  0.00    -0.004 A 
ATOM      9  C   UNL     1      -2.561   5.663  -3.334  0.00  0.00    -0.001 A 
ATOM     10  C   UNL     1      -2.379   5.340  -1.995  0.00  0.00    +0.020 A 
ATOM     11  C   UNL     1      -1.226   5.688  -1.324  0.00  0.00    +0.099 A 
ATOM     12  C   UNL     1      -1.731   5.704  -5.513  0.00  0.00    +0.033 C 
ATOM     13  C   UNL     1      -0.840   6.424  -6.488  0.00  0.00    +0.031 C 
ATOM     14  C   UNL     1       0.550   5.880  -6.416  0.00  0.00    -0.021 A 
ATOM     15  C   UNL     1       0.975   5.302  -7.607  0.00  0.00    +0.007 A 
ATOM     16  C   UNL     1       2.224   4.699  -7.560  0.00  0.00    +0.057 A 
ATOM     17 CL   UNL     1       2.669   3.347  -8.568  0.00  0.00    -0.082 Cl
ATOM     18  C   UNL     1       3.164   5.235  -6.689  0.00  0.00    +0.011 A 
ATOM     19  C   UNL     1       2.768   5.906  -5.539  0.00  0.00    +0.001 A 
ATOM     20  N   UNL     1      -0.260   6.291  -2.055  0.00  0.00    -0.244 NA
ATOM     21  C   UNL     1       1.423   6.105  -5.357  0.00  0.00    -0.003 A 
ATOM     22  C   UNL     1       2.113   5.846  -1.851  0.00  0.00    +0.044 C 
ATOM     23  C   UNL     1       2.817   6.603  -0.760  0.00  0.00    +0.101 C 
ATOM     24  O   UNL     1       3.604  10.145  -0.564  0.00  0.00    -0.226 OA
ENDROOT
BRANCH   1  25
ATOM     25  O   UNL     1       3.529   8.659   1.162  0.00  0.00    -0.435 OA
BRANCH  25  27
ATOM     26  C   UNL     1       5.624   7.591   1.603  0.00  0.00    +0.051 C 
ATOM     27  C   UNL     1       4.791   8.843   1.793  0.00  0.00    +0.210 C 
ENDBRANCH  25  27
ENDBRANCH   1  25
TORSDOF 2
ENDMDL
MODEL 6
REMARK VINA RESULT:      -7.9      5.096      8.013
REMARK  Name = 
REMARK  2 active torsions:
REMARK  status: ('A' for Active; 'I' for Inactive)
REMARK    1  A    between atoms: C_2  and  O_3
REMARK    2  A    between atoms: O_3  and  C_4
REMARK                            x       y       z     vdW  Elec       q    Type
REMARK                         _______ _______ _______ _____ _____    ______ ____
ROOT
ATOM      1  C   UNL     1       2.510   8.223   0.569  0.00  0.00    +0.405 C 
ATOM      2  N   UNL     1       2.701   7.470  -0.622  0.00  0.00    -0.245 N 
ATOM      3  C   UNL     1       3.918   7.759  -1.374  0.00  0.00    +0.101 C 
ATOM      4  C   UNL     1       3.682   7.550  -2.864  0.00  0.00    +0.044 C 
ATOM      5  C   UNL     1       2.546   6.631  -3.118  0.00  0.00    -0.039 C 
ATOM      6  C   UNL     1       1.990   6.671  -4.322  0.00  0.00    +0.009 C 
ATOM      7  C   UNL     1       0.527   6.571  -4.411  0.00  0.00    +0.077 A 
ATOM      8  C   UNL     1      -0.239   6.595  -5.570  0.00  0.00    -0.004 A 
ATOM      9  C   UNL     1      -1.520   6.071  -5.444  0.00  0.00    -0.001 A 
ATOM     10  C   UNL     1      -1.917   5.464  -4.259  0.00  0.00    +0.020 A 
ATOM     11  C   UNL     1      -1.169   5.588  -3.107  0.00  0.00    +0.099 A 
ATOM     12  C   UNL     1       0.156   6.513  -7.004  0.00  0.00    +0.033 C 
ATOM     13  C   UNL     1       1.354   7.361  -7.330  0.00  0.00    +0.031 C 
ATOM     14  C   UNL     1       2.598   6.725  -6.799  0.00  0.00    -0.021 A 
ATOM     15  C   UNL     1       3.506   6.382  -7.794  0.00  0.00    +0.007 A 
ATOM     16  C   UNL     1       4.635   5.703  -7.358  0.00  0.00    +0.057 A 
ATOM     17 CL   UNL     1       5.507   4.565  -8.351  0.00  0.00    -0.082 Cl
ATOM     18  C   UNL     1       5.098   5.982  -6.078  0.00  0.00    +0.011 A 
ATOM     19  C   UNL     1       4.230   6.421  -5.087  0.00  0.00    +0.001 A 
ATOM     20  N   UNL     1      -0.004   6.266  -3.212  0.00  0.00    -0.244 NA
ATOM     21  C   UNL     1       2.930   6.665  -5.450  0.00  0.00    -0.003 A 
ATOM     22  C   UNL     1       2.069   5.633  -2.129  0.00  0.00    +0.044 C 
ATOM     23  C   UNL     1       2.219   6.097  -0.707  0.00  0.00    +0.101 C 
ATOM     24  O   UNL     1       2.739   9.460   0.567  0.00  0.00    -0.226 OA
ENDROOT
BRANCH   1  25
ATOM     25  O   UNL     1       1.983   7.654   1.732  0.00  0.00    -0.435 OA
BRANCH  25  27
ATOM     26  C   UNL     1      -0.383   7.297   1.687  0.00  0.00    +0.051 C 
ATOM     27  C   UNL     1       0.741   8.186   2.180  0.00  0.00    +0.210 C 
ENDBRANCH  25  27
ENDBRANCH   1  25
TORSDOF 2
ENDMDL
MODEL 7
REMARK VINA RESULT:      -7.8      4.055      6.903
REMARK  Name = 
REMARK  2 active torsions:
REMARK  status: ('A' for Active; 'I' for Inactive)
REMARK    1  A    between atoms: C_2  and  O_3
REMARK    2  A    between atoms: O_3  and  C_4
REMARK                            x       y       z     vdW  Elec       q    Type
REMARK                         _______ _______ _______ _____ _____    ______ ____
ROOT
ATOM      1  C   UNL     1       1.055   7.973 -15.352  0.00  0.00    +0.405 C 
ATOM      2  N   UNL     1       1.396   7.106 -14.277  0.00  0.00    -0.245 N 
ATOM      3  C   UNL     1       0.586   7.237 -13.069  0.00  0.00    +0.101 C 
ATOM      4  C   UNL     1       1.421   6.916 -11.837  0.00  0.00    +0.044 C 
ATOM      5  C   UNL     1       2.591   6.066 -12.168  0.00  0.00    -0.039 C 
ATOM      6  C   UNL     1       3.591   6.042 -11.297  0.00  0.00    +0.009 C 
ATOM      7  C   UNL     1       4.963   6.044 -11.821  0.00  0.00    +0.077 A 
ATOM      8  C   UNL     1       6.138   6.025 -11.078  0.00  0.00    -0.004 A 
ATOM      9  C   UNL     1       7.270   5.611 -11.770  0.00  0.00    -0.001 A 
ATOM     10  C   UNL     1       7.163   5.142 -13.073  0.00  0.00    +0.020 A 
ATOM     11  C   UNL     1       6.004   5.309 -13.802  0.00  0.00    +0.099 A 
ATOM     12  C   UNL     1       6.370   5.788  -9.626  0.00  0.00    +0.033 C 
ATOM     13  C   UNL     1       5.385   6.512  -8.749  0.00  0.00    +0.031 C 
ATOM     14  C   UNL     1       4.054   5.833  -8.797  0.00  0.00    -0.021 A 
ATOM     15  C   UNL     1       3.648   5.337  -7.564  0.00  0.00    +0.007 A 
ATOM     16  C   UNL     1       2.462   4.616  -7.577  0.00  0.00    +0.057 A 
ATOM     17 CL   UNL     1       2.113   3.334  -6.448  0.00  0.00    -0.082 Cl
ATOM     18  C   UNL     1       1.504   4.971  -8.519  0.00  0.00    +0.011 A 
ATOM     19  C   UNL     1       1.873   5.559  -9.722  0.00  0.00    +0.001 A 
ATOM     20  N   UNL     1       4.963   5.886 -13.158  0.00  0.00    -0.244 NA
ATOM     21  C   UNL     1       3.199   5.867  -9.893  0.00  0.00    -0.003 A 
ATOM     22  C   UNL     1       2.650   5.197 -13.370  0.00  0.00    +0.044 C 
ATOM     23  C   UNL     1       1.913   5.772 -14.548  0.00  0.00    +0.101 C 
ATOM     24  O   UNL     1       0.807   9.185 -15.120  0.00  0.00    -0.226 OA
ENDROOT
BRANCH   1  25
ATOM     25  O   UNL     1       1.076   7.550 -16.684  0.00  0.00    -0.435 OA
BRANCH  25  27
ATOM     26  C   UNL     1      -1.244   6.999 -16.892  0.00  0.00    +0.051 C 
ATOM     27  C   UNL     1      -0.096   7.821 -17.445  0.00  0.00    +0.210 C 
ENDBRANCH  25  27
ENDBRANCH   1  25
TORSDOF 2
ENDMDL
MODEL 8
REMARK VINA RESULT:      -7.5      3.914      6.889
REMARK  Name = 
REMARK  2 active torsions:
REMARK  status: ('A' for Active; 'I' for Inactive)
REMARK    1  A    between atoms: C_2  and  O_3
REMARK    2  A    between atoms: O_3  and  C_4
REMARK                            x       y       z     vdW  Elec       q    Type
REMARK                         _______ _______ _______ _____ _____    ______ ____
ROOT
ATOM      1  C   UNL     1       0.902   6.624 -13.207  0.00  0.00    +0.405 C 
ATOM      2  N   UNL     1       0.660   6.121 -11.899  0.00  0.00    -0.245 N 
ATOM      3  C   UNL     1      -0.558   6.594 -11.248  0.00  0.00    +0.101 C 
ATOM      4  C   UNL     1      -0.357   6.665  -9.740  0.00  0.00    +0.044 C 
ATOM      5  C   UNL     1       0.735   5.771  -9.286  0.00  0.00    -0.039 C 
ATOM      6  C   UNL     1       1.271   6.020  -8.098  0.00  0.00    +0.009 C 
ATOM      7  C   UNL     1       2.726   5.885  -7.954  0.00  0.00    +0.077 A 
ATOM      8  C   UNL     1       3.472   6.103  -6.802  0.00  0.00    -0.004 A 
ATOM      9  C   UNL     1       4.733   5.517  -6.793  0.00  0.00    -0.001 A 
ATOM     10  C   UNL     1       5.125   4.680  -7.831  0.00  0.00    +0.020 A 
ATOM     11  C   UNL     1       4.404   4.608  -9.004  0.00  0.00    +0.099 A 
ATOM     12  C   UNL     1       3.049   6.311  -5.390  0.00  0.00    +0.033 C 
ATOM     13  C   UNL     1       1.881   7.250  -5.261  0.00  0.00    +0.031 C 
ATOM     14  C   UNL     1       0.621   6.570  -5.693  0.00  0.00    -0.021 A 
ATOM     15  C   UNL     1      -0.318   6.458  -4.674  0.00  0.00    +0.007 A 
ATOM     16  C   UNL     1      -1.465   5.750  -5.002  0.00  0.00    +0.057 A 
ATOM     17 CL   UNL     1      -2.401   4.857  -3.832  0.00  0.00    -0.082 Cl
ATOM     18  C   UNL     1      -1.894   5.796  -6.322  0.00  0.00    +0.011 A 
ATOM     19  C   UNL     1      -0.991   6.004  -7.357  0.00  0.00    +0.001 A 
ATOM     20  N   UNL     1       3.266   5.336  -9.060  0.00  0.00    -0.244 NA
ATOM     21  C   UNL     1       0.312   6.265  -7.014  0.00  0.00    -0.003 A 
ATOM     22  C   UNL     1       1.188   4.585 -10.054  0.00  0.00    +0.044 C 
ATOM     23  C   UNL     1       1.083   4.773 -11.542  0.00  0.00    +0.101 C 
ATOM     24  O   UNL     1       0.724   7.847 -13.447  0.00  0.00    -0.226 OA
ENDROOT
BRANCH   1  25
ATOM     25  O   UNL     1       1.427   5.824 -14.226  0.00  0.00    -0.435 OA
BRANCH  25  27
ATOM     26  C   UNL     1       3.735   5.303 -13.874  0.00  0.00    +0.051 C 
ATOM     27  C   UNL     1       2.745   6.143 -14.655  0.00  0.00    +0.210 C 
ENDBRANCH  25  27
ENDBRANCH   1  25
TORSDOF 2
ENDMDL
MODEL 9
REMARK VINA RESULT:      -7.3      4.113      6.875
REMARK  Name = 
REMARK  2 active torsions:
REMARK  status: ('A' for Active; 'I' for Inactive)
REMARK    1  A    between atoms: C_2  and  O_3
REMARK    2  A    between atoms: O_3  and  C_4
REMARK                            x       y       z     vdW  Elec       q    Type
REMARK                         _______ _______ _______ _____ _____    ______ ____
ROOT
ATOM      1  C   UNL     1       1.318   7.995 -15.820  0.00  0.00    +0.405 C 
ATOM      2  N   UNL     1       1.235   7.249 -14.612  0.00  0.00    -0.245 N 
ATOM      3  C   UNL     1       0.076   7.524 -13.769  0.00  0.00    +0.101 C 
ATOM      4  C   UNL     1       0.433   7.330 -12.301  0.00  0.00    +0.044 C 
ATOM      5  C   UNL     1       1.601   6.432 -12.131  0.00  0.00    -0.039 C 
ATOM      6  C   UNL     1       2.250   6.491 -10.975  0.00  0.00    +0.009 C 
ATOM      7  C   UNL     1       3.716   6.416 -11.001  0.00  0.00    +0.077 A 
ATOM      8  C   UNL     1       4.571   6.463  -9.906  0.00  0.00    -0.004 A 
ATOM      9  C   UNL     1       5.847   5.960 -10.130  0.00  0.00    -0.001 A 
ATOM     10  C   UNL     1       6.159   5.350 -11.339  0.00  0.00    +0.020 A 
ATOM     11  C   UNL     1       5.321   5.452 -12.429  0.00  0.00    +0.099 A 
ATOM     12  C   UNL     1       4.292   6.386  -8.446  0.00  0.00    +0.033 C 
ATOM     13  C   UNL     1       3.108   7.216  -8.031  0.00  0.00    +0.031 C 
ATOM     14  C   UNL     1       1.838   6.554  -8.458  0.00  0.00    -0.021 A 
ATOM     15  C   UNL     1       1.017   6.204  -7.392  0.00  0.00    +0.007 A 
ATOM     16  C   UNL     1      -0.130   5.502  -7.734  0.00  0.00    +0.057 A 
ATOM     17 CL   UNL     1      -0.902   4.358  -6.668  0.00  0.00    -0.082 Cl
ATOM     18  C   UNL     1      -0.698   5.763  -8.975  0.00  0.00    +0.011 A 
ATOM     19  C   UNL     1       0.081   6.209 -10.034  0.00  0.00    +0.001 A 
ATOM     20  N   UNL     1       4.156   6.111 -12.237  0.00  0.00    -0.244 NA
ATOM     21  C   UNL     1       1.402   6.478  -9.776  0.00  0.00    -0.003 A 
ATOM     22  C   UNL     1       2.016   5.435 -13.149  0.00  0.00    +0.044 C 
ATOM     23  C   UNL     1       1.746   5.885 -14.557  0.00  0.00    +0.101 C 
ATOM     24  O   UNL     1       1.068   9.229 -15.808  0.00  0.00    -0.226 OA
ENDROOT
BRANCH   1  25
ATOM     25  O   UNL     1       1.762   7.427 -17.017  0.00  0.00    -0.435 OA
BRANCH  25  27
ATOM     26  C   UNL     1       4.098   7.930 -16.886  0.00  0.00    +0.051 C 
ATOM     27  C   UNL     1       2.819   8.111 -17.680  0.00  0.00    +0.210 C 
ENDBRANCH  25  27
ENDBRANCH   1  25
TORSDOF 2
ENDMDL
