MODEL 1
REMARK VINA RESULT:      -8.6      0.000      0.000
REMARK  Name = 
REMARK  6 active torsions:
REMARK  status: ('A' for Active; 'I' for Inactive)
REMARK    1  A    between atoms: C_2  and  C_3
REMARK    2  A    between atoms: C_5  and  C_6
REMARK    3  A    between atoms: C_11  and  C_12
REMARK    4  A    between atoms: C_12  and  C_13
REMARK    5  A    between atoms: C_16  and  O_17
REMARK    6  A    between atoms: O_17  and  C_18
REMARK                            x       y       z     vdW  Elec       q    Type
REMARK                         _______ _______ _______ _____ _____    ______ ____
ROOT
ATOM      1  C   UNL     1       2.088   5.570  -2.898  0.00  0.00    +0.007 A 
ATOM      2  C   UNL     1       3.076   4.964  -3.673  0.00  0.00    -0.005 A 
ATOM      3  C   UNL     1       4.177   5.658  -4.201  0.00  0.00    -0.007 A 
ATOM      4  C   UNL     1       4.468   6.826  -3.495  0.00  0.00    +0.054 A 
ATOM      5 CL   UNL     1       5.256   8.160  -4.339  0.00  0.00    -0.083 Cl
ATOM      6  C   UNL     1       3.704   7.127  -2.365  0.00  0.00    +0.011 A 
ATOM      7  C   UNL     1       2.356   6.733  -2.328  0.00  0.00    -0.001 A 
ENDROOT
BRANCH   1  15
ATOM      8  C   UNL     1      -0.442   5.445  -5.172  0.00  0.00    +0.181 C 
ATOM      9  C   UNL     1      -1.683   6.373  -4.449  0.00  0.00    +0.214 C 
ATOM     10  O   UNL     1      -2.703   5.535  -5.153  0.00  0.00    -0.218 OA
ATOM     11  C   UNL     1      -1.696   5.345  -3.086  0.00  0.00    +0.218 C 
ATOM     12  O   UNL     1      -2.615   6.274  -2.354  0.00  0.00    -0.217 OA
ATOM     13  C   UNL     1      -0.306   6.045  -2.377  0.00  0.00    +0.216 C 
ATOM     14  O   UNL     1      -0.216   4.931  -1.383  0.00  0.00    -0.217 OA
ATOM     15  C   UNL     1       0.653   5.146  -3.475  0.00  0.00    +0.170 C 
ATOM     16  O   UNL     1       0.585   6.298  -4.466  0.00  0.00    -0.346 OA
BRANCH   8  18
ATOM     17  O   UNL     1      -0.244   5.453  -7.359  0.00  0.00    -0.218 OA
ATOM     18  C   UNL     1      -0.440   6.363  -6.526  0.00  0.00    +0.214 C 
ENDBRANCH   8  18
ENDBRANCH   1  15
BRANCH   3  19
ATOM     19  C   UNL     1       4.394   5.471  -5.616  0.00  0.00    +0.053 C 
BRANCH  19  20
ATOM     20  C   UNL     1       3.405   5.621  -6.625  0.00  0.00    -0.018 A 
ATOM     21  C   UNL     1       3.130   6.956  -6.946  0.00  0.00    -0.001 A 
ATOM     22  C   UNL     1       2.653   7.342  -8.183  0.00  0.00    +0.037 A 
ATOM     23  C   UNL     1       2.483   6.366  -9.150  0.00  0.00    +0.138 A 
ATOM     24  C   UNL     1       3.248   5.234  -9.025  0.00  0.00    +0.037 A 
ATOM     25  C   UNL     1       3.714   4.918  -7.796  0.00  0.00    -0.001 A 
BRANCH  23  26
ATOM     26  O   UNL     1       1.819   6.581 -10.340  0.00  0.00    -0.476 OA
BRANCH  26  27
ATOM     27  C   UNL     1       0.869   5.433 -10.724  0.00  0.00    +0.198 C 
ATOM     28  C   UNL     1       1.209   5.582 -12.324  0.00  0.00    +0.185 C 
ATOM     29  O   UNL     1       1.172   6.938 -12.498  0.00  0.00    -0.350 OA
ATOM     30  C   UNL     1      -0.002   7.364 -11.933  0.00  0.00    +0.146 C 
ATOM     31  C   UNL     1      -0.421   6.438 -10.858  0.00  0.00    +0.078 C 
ENDBRANCH  26  27
ENDBRANCH  23  26
ENDBRANCH  19  20
ENDBRANCH   3  19
TORSDOF 6
ENDMDL
MODEL 2
REMARK VINA RESULT:      -8.5      2.587      3.209
REMARK  Name = 
REMARK  6 active torsions:
REMARK  status: ('A' for Active; 'I' for Inactive)
REMARK    1  A    between atoms: C_2  and  C_3
REMARK    2  A    between atoms: C_5  and  C_6
REMARK    3  A    between atoms: C_11  and  C_12
REMARK    4  A    between atoms: C_12  and  C_13
REMARK    5  A    between atoms: C_16  and  O_17
REMARK    6  A    between atoms: O_17  and  C_18
REMARK                            x       y       z     vdW  Elec       q    Type
REMARK                         _______ _______ _______ _____ _____    ______ ____
ROOT
ATOM      1  C   UNL     1       2.323   5.205  -3.170  0.00  0.00    +0.007 A 
ATOM      2  C   UNL     1       2.802   5.059  -4.471  0.00  0.00    -0.005 A 
ATOM      3  C   UNL     1       3.775   5.900  -5.035  0.00  0.00    -0.007 A 
ATOM      4  C   UNL     1       4.561   6.537  -4.073  0.00  0.00    +0.054 A 
ATOM      5 CL   UNL     1       5.287   8.097  -4.461  0.00  0.00    -0.083 Cl
ATOM      6  C   UNL     1       4.339   6.235  -2.728  0.00  0.00    +0.011 A 
ATOM      7  C   UNL     1       3.039   5.907  -2.307  0.00  0.00    -0.001 A 
ENDROOT
BRANCH   1  15
ATOM      8  C   UNL     1      -0.797   6.227  -4.070  0.00  0.00    +0.181 C 
ATOM      9  C   UNL     1      -1.451   6.857  -2.621  0.00  0.00    +0.214 C 
ATOM     10  O   UNL     1      -2.819   6.467  -3.083  0.00  0.00    -0.218 OA
ATOM     11  C   UNL     1      -1.227   5.358  -1.835  0.00  0.00    +0.218 C 
ATOM     12  O   UNL     1      -1.585   5.962  -0.512  0.00  0.00    -0.217 OA
ATOM     13  C   UNL     1       0.446   5.594  -1.571  0.00  0.00    +0.216 C 
ATOM     14  O   UNL     1       0.614   4.164  -1.167  0.00  0.00    -0.217 OA
ATOM     15  C   UNL     1       0.720   5.167  -3.206  0.00  0.00    +0.170 C 
ATOM     16  O   UNL     1       0.582   6.630  -3.604  0.00  0.00    -0.346 OA
BRANCH   8  18
ATOM     17  O   UNL     1      -0.256   7.431  -5.824  0.00  0.00    -0.218 OA
ATOM     18  C   UNL     1      -1.054   7.622  -4.883  0.00  0.00    +0.214 C 
ENDBRANCH   8  18
ENDBRANCH   1  15
BRANCH   3  19
ATOM     19  C   UNL     1       3.426   6.458  -6.320  0.00  0.00    +0.053 C 
BRANCH  19  20
ATOM     20  C   UNL     1       3.748   5.883  -7.579  0.00  0.00    -0.018 A 
ATOM     21  C   UNL     1       3.508   6.737  -8.662  0.00  0.00    -0.001 A 
ATOM     22  C   UNL     1       4.199   6.641  -9.855  0.00  0.00    +0.037 A 
ATOM     23  C   UNL     1       5.195   5.685  -9.956  0.00  0.00    +0.138 A 
ATOM     24  C   UNL     1       5.775   5.273  -8.784  0.00  0.00    +0.037 A 
ATOM     25  C   UNL     1       5.066   5.417  -7.642  0.00  0.00    -0.001 A 
BRANCH  23  26
ATOM     26  O   UNL     1       5.804   5.344 -11.145  0.00  0.00    -0.476 OA
BRANCH  26  27
ATOM     27  C   UNL     1       6.005   6.539 -12.094  0.00  0.00    +0.198 C 
ATOM     28  C   UNL     1       6.416   5.570 -13.355  0.00  0.00    +0.185 C 
ATOM     29  O   UNL     1       7.269   4.680 -12.763  0.00  0.00    -0.350 OA
ATOM     30  C   UNL     1       8.176   5.429 -12.059  0.00  0.00    +0.146 C 
ATOM     31  C   UNL     1       7.577   6.722 -11.662  0.00  0.00    +0.078 C 
ENDBRANCH  26  27
ENDBRANCH  23  26
ENDBRANCH  19  20
ENDBRANCH   3  19
TORSDOF 6
ENDMDL
MODEL 3
REMARK VINA RESULT:      -8.4      2.016      3.024
REMARK  Name = 
REMARK  6 active torsions:
REMARK  status: ('A' for Active; 'I' for Inactive)
REMARK    1  A    between atoms: C_2  and  C_3
REMARK    2  A    between atoms: C_5  and  C_6
REMARK    3  A    between atoms: C_11  and  C_12
REMARK    4  A    between atoms: C_12  and  C_13
REMARK    5  A    between atoms: C_16  and  O_17
REMARK    6  A    between atoms: O_17  and  C_18
REMARK                            x       y       z     vdW  Elec       q    Type
REMARK                         _______ _______ _______ _____ _____    ______ ____
ROOT
ATOM      1  C   UNL     1       0.397   5.758  -1.129  0.00  0.00    +0.007 A 
ATOM      2  C   UNL     1       1.621   5.096  -1.217  0.00  0.00    -0.005 A 
ATOM      3  C   UNL     1       2.860   5.745  -1.108  0.00  0.00    -0.007 A 
ATOM      4  C   UNL     1       2.776   6.959  -0.423  0.00  0.00    +0.054 A 
ATOM      5 CL   UNL     1       3.948   8.227  -0.784  0.00  0.00    -0.083 Cl
ATOM      6  C   UNL     1       1.539   7.341   0.101  0.00  0.00    +0.011 A 
ATOM      7  C   UNL     1       0.366   6.956  -0.570  0.00  0.00    -0.001 A 
ENDROOT
BRANCH   1  15
ATOM      8  C   UNL     1      -0.601   5.604  -4.380  0.00  0.00    +0.181 C 
ATOM      9  C   UNL     1      -2.071   6.477  -4.395  0.00  0.00    +0.214 C 
ATOM     10  O   UNL     1      -2.553   5.623  -5.525  0.00  0.00    -0.218 OA
ATOM     11  C   UNL     1      -2.743   5.420  -3.234  0.00  0.00    +0.218 C 
ATOM     12  O   UNL     1      -3.941   6.304  -3.075  0.00  0.00    -0.217 OA
ATOM     13  C   UNL     1      -1.941   6.147  -1.910  0.00  0.00    +0.216 C 
ATOM     14  O   UNL     1      -2.332   5.016  -1.014  0.00  0.00    -0.217 OA
ATOM     15  C   UNL     1      -0.522   5.302  -2.362  0.00  0.00    +0.170 C 
ATOM     16  O   UNL     1      -0.114   6.473  -3.245  0.00  0.00    -0.346 OA
BRANCH   8  18
ATOM     17  O   UNL     1       0.659   5.658  -6.177  0.00  0.00    -0.218 OA
ATOM     18  C   UNL     1       0.061   6.549  -5.539  0.00  0.00    +0.214 C 
ENDBRANCH   8  18
ENDBRANCH   1  15
BRANCH   3  19
ATOM     19  C   UNL     1       3.794   5.460  -2.172  0.00  0.00    +0.053 C 
BRANCH  19  20
ATOM     20  C   UNL     1       3.497   5.513  -3.561  0.00  0.00    -0.018 A 
ATOM     21  C   UNL     1       3.463   6.814  -4.077  0.00  0.00    -0.001 A 
ATOM     22  C   UNL     1       3.726   7.096  -5.404  0.00  0.00    +0.037 A 
ATOM     23  C   UNL     1       4.077   6.047  -6.237  0.00  0.00    +0.138 A 
ATOM     24  C   UNL     1       4.633   4.944  -5.639  0.00  0.00    +0.037 A 
ATOM     25  C   UNL     1       4.366   4.732  -4.331  0.00  0.00    -0.001 A 
BRANCH  23  26
ATOM     26  O   UNL     1       4.152   6.157  -7.609  0.00  0.00    -0.476 OA
BRANCH  26  27
ATOM     27  C   UNL     1       4.942   5.015  -8.272  0.00  0.00    +0.198 C 
ATOM     28  C   UNL     1       5.290   5.919  -9.598  0.00  0.00    +0.185 C 
ATOM     29  O   UNL     1       4.087   6.512  -9.862  0.00  0.00    -0.350 OA
ATOM     30  C   UNL     1       3.156   5.507  -9.857  0.00  0.00    +0.146 C 
ATOM     31  C   UNL     1       3.603   4.396  -8.989  0.00  0.00    +0.078 C 
ENDBRANCH  26  27
ENDBRANCH  23  26
ENDBRANCH  19  20
ENDBRANCH   3  19
TORSDOF 6
ENDMDL
MODEL 4
REMARK VINA RESULT:      -8.4      3.078      8.586
REMARK  Name = 
REMARK  6 active torsions:
REMARK  status: ('A' for Active; 'I' for Inactive)
REMARK    1  A    between atoms: C_2  and  C_3
REMARK    2  A    between atoms: C_5  and  C_6
REMARK    3  A    between atoms: C_11  and  C_12
REMARK    4  A    between atoms: C_12  and  C_13
REMARK    5  A    between atoms: C_16  and  O_17
REMARK    6  A    between atoms: O_17  and  C_18
REMARK                            x       y       z     vdW  Elec       q    Type
REMARK                         _______ _______ _______ _____ _____    ______ ____
ROOT
ATOM      1  C   UNL     1       4.965   6.334  -9.922  0.00  0.00    +0.007 A 
ATOM      2  C   UNL     1       3.856   6.913  -9.306  0.00  0.00    -0.005 A 
ATOM      3  C   UNL     1       2.968   6.200  -8.486  0.00  0.00    -0.007 A 
ATOM      4  C   UNL     1       3.541   5.049  -7.942  0.00  0.00    +0.054 A 
ATOM      5 CL   UNL     1       2.496   3.689  -7.529  0.00  0.00    -0.083 Cl
ATOM      6  C   UNL     1       4.884   4.783  -8.217  0.00  0.00    +0.011 A 
ATOM      7  C   UNL     1       5.421   5.185  -9.451  0.00  0.00    -0.001 A 
ENDROOT
BRANCH   1  15
ATOM      8  C   UNL     1       4.133   6.092 -13.214  0.00  0.00    +0.181 C 
ATOM      9  C   UNL     1       5.592   5.615 -13.967  0.00  0.00    +0.214 C 
ATOM     10  O   UNL     1       5.166   6.324 -15.213  0.00  0.00    -0.218 OA
ATOM     11  C   UNL     1       6.384   7.008 -13.377  0.00  0.00    +0.218 C 
ATOM     12  O   UNL     1       7.710   6.488 -13.839  0.00  0.00    -0.217 OA
ATOM     13  C   UNL     1       6.605   6.379 -11.802  0.00  0.00    +0.216 C 
ATOM     14  O   UNL     1       7.016   7.723 -11.292  0.00  0.00    -0.217 OA
ATOM     15  C   UNL     1       4.967   6.751 -11.470  0.00  0.00    +0.170 C 
ATOM     16  O   UNL     1       4.562   5.368 -11.959  0.00  0.00    -0.346 OA
BRANCH   8  18
ATOM     17  O   UNL     1       2.166   5.295 -13.777  0.00  0.00    -0.218 OA
ATOM     18  C   UNL     1       3.315   4.807 -13.811  0.00  0.00    +0.214 C 
ENDBRANCH   8  18
ENDBRANCH   1  15
BRANCH   3  19
ATOM     19  C   UNL     1       1.573   6.348  -8.825  0.00  0.00    +0.053 C 
BRANCH  19  20
ATOM     20  C   UNL     1       0.514   6.523  -7.893  0.00  0.00    -0.018 A 
ATOM     21  C   UNL     1      -0.388   5.453  -7.862  0.00  0.00    -0.001 A 
ATOM     22  C   UNL     1      -1.136   5.141  -6.743  0.00  0.00    +0.037 A 
ATOM     23  C   UNL     1      -0.945   5.899  -5.600  0.00  0.00    +0.138 A 
ATOM     24  C   UNL     1       0.268   6.525  -5.470  0.00  0.00    +0.037 A 
ATOM     25  C   UNL     1       0.972   6.781  -6.596  0.00  0.00    -0.001 A 
BRANCH  23  26
ATOM     26  O   UNL     1      -1.771   5.832  -4.497  0.00  0.00    -0.476 OA
BRANCH  26  27
ATOM     27  C   UNL     1      -1.197   6.547  -3.261  0.00  0.00    +0.198 C 
ATOM     28  C   UNL     1      -1.493   5.261  -2.283  0.00  0.00    +0.185 C 
ATOM     29  O   UNL     1      -2.755   4.898  -2.664  0.00  0.00    -0.350 OA
ATOM     30  C   UNL     1      -3.504   6.045  -2.648  0.00  0.00    +0.146 C 
ATOM     31  C   UNL     1      -2.643   7.225  -2.882  0.00  0.00    +0.078 C 
ENDBRANCH  26  27
ENDBRANCH  23  26
ENDBRANCH  19  20
ENDBRANCH   3  19
TORSDOF 6
ENDMDL
MODEL 5
REMARK VINA RESULT:      -8.4      3.018      4.631
REMARK  Name = 
REMARK  6 active torsions:
REMARK  status: ('A' for Active; 'I' for Inactive)
REMARK    1  A    between atoms: C_2  and  C_3
REMARK    2  A    between atoms: C_5  and  C_6
REMARK    3  A    between atoms: C_11  and  C_12
REMARK    4  A    between atoms: C_12  and  C_13
REMARK    5  A    between atoms: C_16  and  O_17
REMARK    6  A    between atoms: O_17  and  C_18
REMARK                            x       y       z     vdW  Elec       q    Type
REMARK                         _______ _______ _______ _____ _____    ______ ____
ROOT
ATOM      1  C   UNL     1      -0.524   6.503  -5.672  0.00  0.00    +0.007 A 
ATOM      2  C   UNL     1       0.595   7.092  -6.258  0.00  0.00    -0.005 A 
ATOM      3  C   UNL     1       1.496   6.394  -7.078  0.00  0.00    -0.007 A 
ATOM      4  C   UNL     1       0.930   5.255  -7.654  0.00  0.00    +0.054 A 
ATOM      5 CL   UNL     1       1.980   3.901  -8.078  0.00  0.00    -0.083 Cl
ATOM      6  C   UNL     1      -0.418   4.985  -7.406  0.00  0.00    +0.011 A 
ATOM      7  C   UNL     1      -0.974   5.364  -6.173  0.00  0.00    -0.001 A 
ENDROOT
BRANCH   1  15
ATOM      8  C   UNL     1       0.117   6.102  -2.353  0.00  0.00    +0.181 C 
ATOM      9  C   UNL     1      -1.422   5.788  -1.677  0.00  0.00    +0.214 C 
ATOM     10  O   UNL     1      -0.975   6.418  -0.396  0.00  0.00    -0.218 OA
ATOM     11  C   UNL     1      -2.016   7.275  -2.268  0.00  0.00    +0.218 C 
ATOM     12  O   UNL     1      -3.414   6.908  -1.879  0.00  0.00    -0.217 OA
ATOM     13  C   UNL     1      -2.235   6.706  -3.866  0.00  0.00    +0.216 C 
ATOM     14  O   UNL     1      -2.460   8.099  -4.362  0.00  0.00    -0.217 OA
ATOM     15  C   UNL     1      -0.551   6.888  -4.115  0.00  0.00    +0.170 C 
ATOM     16  O   UNL     1      -0.334   5.458  -3.642  0.00  0.00    -0.346 OA
BRANCH   8  18
ATOM     17  O   UNL     1       1.822   5.188  -1.314  0.00  0.00    -0.218 OA
ATOM     18  C   UNL     1       0.750   4.720  -1.750  0.00  0.00    +0.214 C 
ENDBRANCH   8  18
ENDBRANCH   1  15
BRANCH   3  19
ATOM     19  C   UNL     1       2.886   6.533  -6.713  0.00  0.00    +0.053 C 
BRANCH  19  20
ATOM     20  C   UNL     1       3.977   6.549  -7.624  0.00  0.00    -0.018 A 
ATOM     21  C   UNL     1       4.788   5.411  -7.546  0.00  0.00    -0.001 A 
ATOM     22  C   UNL     1       5.534   4.953  -8.615  0.00  0.00    +0.037 A 
ATOM     23  C   UNL     1       5.434   5.630  -9.818  0.00  0.00    +0.138 A 
ATOM     24  C   UNL     1       4.280   6.340 -10.032  0.00  0.00    +0.037 A 
ATOM     25  C   UNL     1       3.573   6.739  -8.951  0.00  0.00    -0.001 A 
BRANCH  23  26
ATOM     26  O   UNL     1       6.277   5.412 -10.887  0.00  0.00    -0.476 OA
BRANCH  26  27
ATOM     27  C   UNL     1       6.153   6.477 -11.991  0.00  0.00    +0.198 C 
ATOM     28  C   UNL     1       6.462   5.391 -13.184  0.00  0.00    +0.185 C 
ATOM     29  O   UNL     1       7.512   4.687 -12.663  0.00  0.00    -0.350 OA
ATOM     30  C   UNL     1       8.423   5.619 -12.236  0.00  0.00    +0.146 C 
ATOM     31  C   UNL     1       7.739   6.884 -11.888  0.00  0.00    +0.078 C 
ENDBRANCH  26  27
ENDBRANCH  23  26
ENDBRANCH  19  20
ENDBRANCH   3  19
TORSDOF 6
ENDMDL
MODEL 6
REMARK VINA RESULT:      -8.3      3.298      5.144
REMARK  Name = 
REMARK  6 active torsions:
REMARK  status: ('A' for Active; 'I' for Inactive)
REMARK    1  A    between atoms: C_2  and  C_3
REMARK    2  A    between atoms: C_5  and  C_6
REMARK    3  A    between atoms: C_11  and  C_12
REMARK    4  A    between atoms: C_12  and  C_13
REMARK    5  A    between atoms: C_16  and  O_17
REMARK    6  A    between atoms: O_17  and  C_18
REMARK                            x       y       z     vdW  Elec       q    Type
REMARK                         _______ _______ _______ _____ _____    ______ ____
ROOT
ATOM      1  C   UNL     1       1.826   6.735  -4.756  0.00  0.00    +0.007 A 
ATOM      2  C   UNL     1       2.303   6.339  -6.005  0.00  0.00    -0.005 A 
ATOM      3  C   UNL     1       1.495   5.743  -6.987  0.00  0.00    -0.007 A 
ATOM      4  C   UNL     1       0.140   6.036  -6.823  0.00  0.00    +0.054 A 
ATOM      5 CL   UNL     1      -1.060   4.888  -7.417  0.00  0.00    -0.083 Cl
ATOM      6  C   UNL     1      -0.233   6.894  -5.785  0.00  0.00    +0.011 A 
ATOM      7  C   UNL     1       0.523   6.901  -4.601  0.00  0.00    -0.001 A 
ENDROOT
BRANCH   1  15
ATOM      8  C   UNL     1       2.674   5.110  -1.888  0.00  0.00    +0.181 C 
ATOM      9  C   UNL     1       3.184   6.366  -0.846  0.00  0.00    +0.214 C 
ATOM     10  O   UNL     1       4.114   5.410  -0.168  0.00  0.00    -0.218 OA
ATOM     11  C   UNL     1       4.390   6.838  -1.959  0.00  0.00    +0.218 C 
ATOM     12  O   UNL     1       4.690   8.069  -1.161  0.00  0.00    -0.217 OA
ATOM     13  C   UNL     1       3.306   7.678  -2.982  0.00  0.00    +0.216 C 
ATOM     14  O   UNL     1       4.353   7.794  -4.044  0.00  0.00    -0.217 OA
ATOM     15  C   UNL     1       2.815   6.170  -3.628  0.00  0.00    +0.170 C 
ATOM     16  O   UNL     1       1.730   6.076  -2.565  0.00  0.00    -0.346 OA
BRANCH   8  18
ATOM     17  O   UNL     1       0.602   4.433  -1.624  0.00  0.00    -0.218 OA
ATOM     18  C   UNL     1       1.550   4.580  -0.824  0.00  0.00    +0.214 C 
ENDBRANCH   8  18
ENDBRANCH   1  15
BRANCH   3  19
ATOM     19  C   UNL     1       2.014   4.514  -7.539  0.00  0.00    +0.053 C 
BRANCH  19  20
ATOM     20  C   UNL     1       2.957   4.423  -8.598  0.00  0.00    -0.018 A 
ATOM     21  C   UNL     1       2.610   5.179  -9.724  0.00  0.00    -0.001 A 
ATOM     22  C   UNL     1       3.548   5.670 -10.611  0.00  0.00    +0.037 A 
ATOM     23  C   UNL     1       4.886   5.434 -10.341  0.00  0.00    +0.138 A 
ATOM     24  C   UNL     1       5.221   5.212  -9.030  0.00  0.00    +0.037 A 
ATOM     25  C   UNL     1       4.256   4.758  -8.199  0.00  0.00    -0.001 A 
BRANCH  23  26
ATOM     26  O   UNL     1       5.898   5.679 -11.245  0.00  0.00    -0.476 OA
BRANCH  26  27
ATOM     27  C   UNL     1       6.994   6.611 -10.697  0.00  0.00    +0.198 C 
ATOM     28  C   UNL     1       6.604   7.814 -11.746  0.00  0.00    +0.185 C 
ATOM     29  O   UNL     1       6.445   7.129 -12.918  0.00  0.00    -0.350 OA
ATOM     30  C   UNL     1       7.558   6.341 -13.054  0.00  0.00    +0.146 C 
ATOM     31  C   UNL     1       8.126   6.019 -11.727  0.00  0.00    +0.078 C 
ENDBRANCH  26  27
ENDBRANCH  23  26
ENDBRANCH  19  20
ENDBRANCH   3  19
TORSDOF 6
ENDMDL
MODEL 7
REMARK VINA RESULT:      -7.8      3.745      9.044
REMARK  Name = 
REMARK  6 active torsions:
REMARK  status: ('A' for Active; 'I' for Inactive)
REMARK    1  A    between atoms: C_2  and  C_3
REMARK    2  A    between atoms: C_5  and  C_6
REMARK    3  A    between atoms: C_11  and  C_12
REMARK    4  A    between atoms: C_12  and  C_13
REMARK    5  A    between atoms: C_16  and  O_17
REMARK    6  A    between atoms: O_17  and  C_18
REMARK                            x       y       z     vdW  Elec       q    Type
REMARK                         _______ _______ _______ _____ _____    ______ ____
ROOT
ATOM      1  C   UNL     1       4.242   5.404 -13.932  0.00  0.00    +0.007 A 
ATOM      2  C   UNL     1       3.049   4.692 -13.815  0.00  0.00    -0.005 A 
ATOM      3  C   UNL     1       1.782   5.273 -13.985  0.00  0.00    -0.007 A 
ATOM      4  C   UNL     1       1.821   6.439 -14.752  0.00  0.00    +0.054 A 
ATOM      5 CL   UNL     1       0.586   7.672 -14.495  0.00  0.00    -0.083 Cl
ATOM      6  C   UNL     1       3.048   6.842 -15.285  0.00  0.00    +0.011 A 
ATOM      7  C   UNL     1       4.227   6.561 -14.573  0.00  0.00    -0.001 A 
ENDROOT
BRANCH   1  15
ATOM      8  C   UNL     1       5.181   5.505 -10.662  0.00  0.00    +0.181 C 
ATOM      9  C   UNL     1       6.597   6.463 -10.676  0.00  0.00    +0.214 C 
ATOM     10  O   UNL     1       7.105   5.709  -9.488  0.00  0.00    -0.218 OA
ATOM     11  C   UNL     1       7.353   5.380 -11.758  0.00  0.00    +0.218 C 
ATOM     12  O   UNL     1       8.500   6.323 -11.951  0.00  0.00    -0.217 OA
ATOM     13  C   UNL     1       6.537   5.978 -13.137  0.00  0.00    +0.216 C 
ATOM     14  O   UNL     1       7.011   4.820 -13.956  0.00  0.00    -0.217 OA
ATOM     15  C   UNL     1       5.160   5.079 -12.659  0.00  0.00    +0.170 C 
ATOM     16  O   UNL     1       4.667   6.274 -11.856  0.00  0.00    -0.346 OA
BRANCH   8  18
ATOM     17  O   UNL     1       3.842   5.596  -8.924  0.00  0.00    -0.218 OA
ATOM     18  C   UNL     1       4.441   6.477  -9.574  0.00  0.00    +0.214 C 
ENDBRANCH   8  18
ENDBRANCH   1  15
BRANCH   3  19
ATOM     19  C   UNL     1       0.846   5.018 -12.916  0.00  0.00    +0.053 C 
BRANCH  19  20
ATOM     20  C   UNL     1       1.113   5.189 -11.531  0.00  0.00    -0.018 A 
ATOM     21  C   UNL     1       1.077   6.525 -11.115  0.00  0.00    -0.001 A 
ATOM     22  C   UNL     1       0.777   6.894  -9.818  0.00  0.00    +0.037 A 
ATOM     23  C   UNL     1       0.460   5.896  -8.913  0.00  0.00    +0.138 A 
ATOM     24  C   UNL     1      -0.033   4.726  -9.433  0.00  0.00    +0.037 A 
ATOM     25  C   UNL     1       0.267   4.428 -10.717  0.00  0.00    -0.001 A 
BRANCH  23  26
ATOM     26  O   UNL     1       0.354   6.106  -7.554  0.00  0.00    -0.476 OA
BRANCH  26  27
ATOM     27  C   UNL     1      -0.491   5.040  -6.835  0.00  0.00    +0.198 C 
ATOM     28  C   UNL     1      -1.157   6.142  -5.815  0.00  0.00    +0.185 C 
ATOM     29  O   UNL     1      -0.069   6.888  -5.453  0.00  0.00    -0.350 OA
ATOM     30  C   UNL     1       0.898   5.994  -5.072  0.00  0.00    +0.146 C 
ATOM     31  C   UNL     1       0.703   4.700  -5.762  0.00  0.00    +0.078 C 
ENDBRANCH  26  27
ENDBRANCH  23  26
ENDBRANCH  19  20
ENDBRANCH   3  19
TORSDOF 6
ENDMDL
MODEL 8
REMARK VINA RESULT:      -7.8      3.644      9.263
REMARK  Name = 
REMARK  6 active torsions:
REMARK  status: ('A' for Active; 'I' for Inactive)
REMARK    1  A    between atoms: C_2  and  C_3
REMARK    2  A    between atoms: C_5  and  C_6
REMARK    3  A    between atoms: C_11  and  C_12
REMARK    4  A    between atoms: C_12  and  C_13
REMARK    5  A    between atoms: C_16  and  O_17
REMARK    6  A    between atoms: O_17  and  C_18
REMARK                            x       y       z     vdW  Elec       q    Type
REMARK                         _______ _______ _______ _____ _____    ______ ____
ROOT
ATOM      1  C   UNL     1       3.705   5.243 -10.792  0.00  0.00    +0.007 A 
ATOM      2  C   UNL     1       3.783   4.763  -9.485  0.00  0.00    -0.005 A 
ATOM      3  C   UNL     1       3.298   5.468  -8.372  0.00  0.00    -0.007 A 
ATOM      4  C   UNL     1       2.316   6.402  -8.711  0.00  0.00    +0.054 A 
ATOM      5 CL   UNL     1       2.109   7.829  -7.695  0.00  0.00    -0.083 Cl
ATOM      6  C   UNL     1       1.908   6.482 -10.044  0.00  0.00    +0.011 A 
ATOM      7  C   UNL     1       2.838   6.206 -11.060  0.00  0.00    -0.001 A 
ENDROOT
BRANCH   1  15
ATOM      8  C   UNL     1       7.016   5.882 -11.254  0.00  0.00    +0.181 C 
ATOM      9  C   UNL     1       7.063   6.716 -12.746  0.00  0.00    +0.214 C 
ATOM     10  O   UNL     1       8.429   6.161 -12.999  0.00  0.00    -0.218 OA
ATOM     11  C   UNL     1       6.320   5.399 -13.538  0.00  0.00    +0.218 C 
ATOM     12  O   UNL     1       6.153   6.204 -14.790  0.00  0.00    -0.217 OA
ATOM     13  C   UNL     1       4.745   5.787 -12.993  0.00  0.00    +0.216 C 
ATOM     14  O   UNL     1       4.226   4.466 -13.463  0.00  0.00    -0.217 OA
ATOM     15  C   UNL     1       5.145   5.095 -11.480  0.00  0.00    +0.170 C 
ATOM     16  O   UNL     1       5.640   6.451 -10.998  0.00  0.00    -0.346 OA
BRANCH   8  18
ATOM     17  O   UNL     1       7.775   6.594  -9.321  0.00  0.00    -0.218 OA
ATOM     18  C   UNL     1       7.787   7.090 -10.466  0.00  0.00    +0.214 C 
ENDBRANCH   8  18
ENDBRANCH   1  15
BRANCH   3  19
ATOM     19  C   UNL     1       4.237   5.613  -7.286  0.00  0.00    +0.053 C 
BRANCH  19  20
ATOM     20  C   UNL     1       3.896   5.908  -5.938  0.00  0.00    -0.018 A 
ATOM     21  C   UNL     1       3.633   4.772  -5.164  0.00  0.00    -0.001 A 
ATOM     22  C   UNL     1       3.807   4.747  -3.794  0.00  0.00    +0.037 A 
ATOM     23  C   UNL     1       4.301   5.884  -3.179  0.00  0.00    +0.138 A 
ATOM     24  C   UNL     1       5.048   6.731  -3.957  0.00  0.00    +0.037 A 
ATOM     25  C   UNL     1       4.858   6.694  -5.294  0.00  0.00    -0.001 A 
BRANCH  23  26
ATOM     26  O   UNL     1       4.317   6.063  -1.812  0.00  0.00    -0.476 OA
BRANCH  26  27
ATOM     27  C   UNL     1       4.794   7.463  -1.384  0.00  0.00    +0.198 C 
ATOM     28  C   UNL     1       4.934   7.020   0.191  0.00  0.00    +0.185 C 
ATOM     29  O   UNL     1       3.781   6.312   0.392  0.00  0.00    -0.350 OA
ATOM     30  C   UNL     1       2.763   7.098  -0.083  0.00  0.00    +0.146 C 
ATOM     31  C   UNL     1       3.262   8.000  -1.144  0.00  0.00    +0.078 C 
ENDBRANCH  26  27
ENDBRANCH  23  26
ENDBRANCH  19  20
ENDBRANCH   3  19
TORSDOF 6
ENDMDL
MODEL 9
REMARK VINA RESULT:      -7.8      3.044      6.869
REMARK  Name = 
REMARK  6 active torsions:
REMARK  status: ('A' for Active; 'I' for Inactive)
REMARK    1  A    between atoms: C_2  and  C_3
REMARK    2  A    between atoms: C_5  and  C_6
REMARK    3  A    between atoms: C_11  and  C_12
REMARK    4  A    between atoms: C_12  and  C_13
REMARK    5  A    between atoms: C_16  and  O_17
REMARK    6  A    between atoms: O_17  and  C_18
REMARK                            x       y       z     vdW  Elec       q    Type
REMARK                         _______ _______ _______ _____ _____    ______ ____
ROOT
ATOM      1  C   UNL     1      -0.367   6.508  -5.929  0.00  0.00    +0.007 A 
ATOM      2  C   UNL     1       0.869   7.104  -6.174  0.00  0.00    -0.005 A 
ATOM      3  C   UNL     1       1.956   6.424  -6.745  0.00  0.00    -0.007 A 
ATOM      4  C   UNL     1       1.565   5.310  -7.489  0.00  0.00    +0.054 A 
ATOM      5 CL   UNL     1       2.689   3.960  -7.660  0.00  0.00    -0.083 Cl
ATOM      6  C   UNL     1       0.200   5.045  -7.621  0.00  0.00    +0.011 A 
ATOM      7  C   UNL     1      -0.667   5.390  -6.570  0.00  0.00    -0.001 A 
ENDROOT
BRANCH   1  15
ATOM      8  C   UNL     1      -0.444   6.131  -2.547  0.00  0.00    +0.181 C 
ATOM      9  C   UNL     1      -2.024   5.556  -2.239  0.00  0.00    +0.214 C 
ATOM     10  O   UNL     1      -1.991   6.216  -0.898  0.00  0.00    -0.218 OA
ATOM     11  C   UNL     1      -2.702   6.942  -2.969  0.00  0.00    +0.218 C 
ATOM     12  O   UNL     1      -4.074   6.344  -2.906  0.00  0.00    -0.217 OA
ATOM     13  C   UNL     1      -2.454   6.387  -4.567  0.00  0.00    +0.216 C 
ATOM     14  O   UNL     1      -2.785   7.737  -5.119  0.00  0.00    -0.217 OA
ATOM     15  C   UNL     1      -0.811   6.843  -4.426  0.00  0.00    +0.170 C 
ATOM     16  O   UNL     1      -0.478   5.455  -3.898  0.00  0.00    -0.346 OA
BRANCH   8  18
ATOM     17  O   UNL     1       0.990   5.484  -1.015  0.00  0.00    -0.218 OA
ATOM     18  C   UNL     1       0.250   4.853  -1.799  0.00  0.00    +0.214 C 
ENDBRANCH   8  18
ENDBRANCH   1  15
BRANCH   3  19
ATOM     19  C   UNL     1       3.197   6.538  -6.016  0.00  0.00    +0.053 C 
BRANCH  19  20
ATOM     20  C   UNL     1       3.318   6.928  -4.655  0.00  0.00    -0.018 A 
ATOM     21  C   UNL     1       3.291   5.853  -3.759  0.00  0.00    -0.001 A 
ATOM     22  C   UNL     1       3.898   5.900  -2.519  0.00  0.00    +0.037 A 
ATOM     23  C   UNL     1       4.593   7.047  -2.177  0.00  0.00    +0.138 A 
ATOM     24  C   UNL     1       5.070   7.811  -3.212  0.00  0.00    +0.037 A 
ATOM     25  C   UNL     1       4.457   7.704  -4.412  0.00  0.00    -0.001 A 
BRANCH  23  26
ATOM     26  O   UNL     1       5.055   7.305  -0.904  0.00  0.00    -0.476 OA
BRANCH  26  27
ATOM     27  C   UNL     1       4.210   6.643   0.199  0.00  0.00    +0.198 C 
ATOM     28  C   UNL     1       3.205   7.937   0.315  0.00  0.00    +0.185 C 
ATOM     29  O   UNL     1       4.084   8.983   0.299  0.00  0.00    -0.350 OA
ATOM     30  C   UNL     1       5.046   8.689   1.231  0.00  0.00    +0.146 C 
ATOM     31  C   UNL     1       5.170   7.224   1.396  0.00  0.00    +0.078 C 
ENDBRANCH  26  27
ENDBRANCH  23  26
ENDBRANCH  19  20
ENDBRANCH   3  19
TORSDOF 6
ENDMDL
