MODEL 1
REMARK VINA RESULT:      -8.4      0.000      0.000
REMARK  Name = 
REMARK  9 active torsions:
REMARK  status: ('A' for Active; 'I' for Inactive)
REMARK    1  A    between atoms: C_8  and  C_9
REMARK    2  A    between atoms: C_9  and  N_10
REMARK    3  A    between atoms: N_10  and  C_11
REMARK    4  A    between atoms: C_14  and  C_15
REMARK    5  A    between atoms: N_17  and  CA_18
REMARK    6  A    between atoms: CA_18  and  CB_19
REMARK    7  A    between atoms: CA_18  and  C_24
REMARK    8  A    between atoms: CB_19  and  CG_20
REMARK    9  A    between atoms: CG_20  and  CD_21
REMARK                            x       y       z     vdW  Elec       q    Type
REMARK                         _______ _______ _______ _____ _____    ______ ____
ROOT
ATOM      1  C   UNK A   0       4.692   6.148  -2.792  0.00  0.00    +0.066 A 
ATOM      2  C   UNK A   0       4.632   5.083  -3.684  0.00  0.00    +0.016 A 
ATOM      3  C   UNK A   0       4.319   5.283  -5.028  0.00  0.00    +0.006 A 
ATOM      4  C   UNK A   0       4.106   6.566  -5.527  0.00  0.00    +0.055 A 
ATOM      5  C   UNK A   0       4.691   7.569  -4.762  0.00  0.00    +0.006 A 
ATOM      6  C   UNK A   0       4.935   7.373  -3.405  0.00  0.00    +0.016 A 
ENDROOT
BRANCH   4   7
ATOM      7  C   UNK A   0       2.951   6.831  -6.402  0.00  0.00    +0.265 C 
ATOM      8  N   GLU A   1       1.970   5.821  -6.520  0.00  0.00    -0.192 NA
ATOM      9  O   UNK A   0       2.862   7.908  -7.073  0.00  0.00    -0.268 OA
BRANCH   8  10
ATOM     10  CA  GLU A   1       0.735   6.222  -7.411  0.00  0.00    +0.199 C 
BRANCH  10  11
ATOM     11  C   GLU A   1      -0.250   5.190  -6.668  0.00  0.00    +0.384 C 
ATOM     12  OXT GLU A   1       0.205   4.660  -5.490  0.00  0.00    -0.244 OA
ATOM     13  O   GLU A   1      -1.395   5.044  -7.105  0.00  0.00    -0.244 OA
ENDBRANCH  10  11
BRANCH  10  14
ATOM     14  CB  GLU A   1       1.137   5.135  -8.578  0.00  0.00    +0.045 C 
BRANCH  14  15
ATOM     15  CG  GLU A   1       1.347   6.083  -9.754  0.00  0.00    +0.116 C 
BRANCH  15  16
ATOM     16  CD  GLU A   1       0.301   5.717 -10.760  0.00  0.00    +0.365 C 
ATOM     17  OE2 GLU A   1      -0.598   6.737 -11.089  0.00  0.00    -0.246 OA
ATOM     18  OE1 GLU A   1      -0.164   4.540 -10.666  0.00  0.00    -0.246 OA
ENDBRANCH  15  16
ENDBRANCH  14  15
ENDBRANCH  10  14
ENDBRANCH   8  10
ENDBRANCH   4   7
BRANCH   1  19
ATOM     19  N   UNK A   0       4.045   6.113  -1.512  0.00  0.00    -0.231 NA
BRANCH  19  20
ATOM     20  C   UNK A   0       3.044   7.101  -1.165  0.00  0.00    +0.159 C 
BRANCH  20  27
ATOM     21  N   UNK A   0      -2.706   6.528  -4.162  0.00  0.00    -0.086 NA
ATOM     22  C   UNK A   0      -2.273   6.298  -2.944  0.00  0.00    +0.261 A 
ATOM     23  N   UNK A   0      -1.516   5.239  -2.559  0.00  0.00    -0.190 NA
ATOM     24  C   UNK A   0      -0.606   5.349  -1.564  0.00  0.00    +0.188 A 
ATOM     25  C   UNK A   0      -0.523   6.521  -0.818  0.00  0.00    +0.174 A 
ATOM     26  N   UNK A   0       0.683   6.979  -0.402  0.00  0.00    -0.238 NA
ATOM     27  C   UNK A   0       1.827   6.335  -0.744  0.00  0.00    +0.100 A 
ATOM     28  C   UNK A   0       1.672   4.986  -1.043  0.00  0.00    +0.117 A 
ATOM     29  C   UNK A   0      -1.632   7.355  -0.920  0.00  0.00    +0.302 A 
ATOM     30  O   UNK A   0      -1.634   8.491  -0.102  0.00  0.00    -0.263 OA
ATOM     31  N   UNK A   0       0.462   4.525  -1.447  0.00  0.00    -0.222 NA
ATOM     32  N   UNK A   0      -2.449   7.255  -1.999  0.00  0.00    -0.171 NA
ENDBRANCH  20  27
ENDBRANCH  19  20
ENDBRANCH   1  19
TORSDOF 9
ENDMDL
MODEL 2
REMARK VINA RESULT:      -8.2      2.408      5.189
REMARK  Name = 
REMARK  9 active torsions:
REMARK  status: ('A' for Active; 'I' for Inactive)
REMARK    1  A    between atoms: C_8  and  C_9
REMARK    2  A    between atoms: C_9  and  N_10
REMARK    3  A    between atoms: N_10  and  C_11
REMARK    4  A    between atoms: C_14  and  C_15
REMARK    5  A    between atoms: N_17  and  CA_18
REMARK    6  A    between atoms: CA_18  and  CB_19
REMARK    7  A    between atoms: CA_18  and  C_24
REMARK    8  A    between atoms: CB_19  and  CG_20
REMARK    9  A    between atoms: CG_20  and  CD_21
REMARK                            x       y       z     vdW  Elec       q    Type
REMARK                         _______ _______ _______ _____ _____    ______ ____
ROOT
ATOM      1  C   UNK A   0      -2.204   7.210  -2.481  0.00  0.00    +0.066 A 
ATOM      2  C   UNK A   0      -2.129   8.115  -3.534  0.00  0.00    +0.016 A 
ATOM      3  C   UNK A   0      -2.052   7.680  -4.857  0.00  0.00    +0.006 A 
ATOM      4  C   UNK A   0      -2.098   6.322  -5.164  0.00  0.00    +0.055 A 
ATOM      5  C   UNK A   0      -2.698   5.545  -4.179  0.00  0.00    +0.006 A 
ATOM      6  C   UNK A   0      -2.706   5.967  -2.852  0.00  0.00    +0.016 A 
ENDROOT
BRANCH   4   7
ATOM      7  C   UNK A   0      -1.136   5.753  -6.124  0.00  0.00    +0.265 C 
ATOM      8  N   GLU A   1       0.213   6.161  -6.021  0.00  0.00    -0.192 NA
ATOM      9  O   UNK A   0      -1.510   4.964  -7.048  0.00  0.00    -0.268 OA
BRANCH   8  10
ATOM     10  CA  GLU A   1       1.182   5.443  -7.033  0.00  0.00    +0.199 C 
BRANCH  10  11
ATOM     11  C   GLU A   1       1.780   4.463  -5.907  0.00  0.00    +0.384 C 
ATOM     12  OXT GLU A   1       2.092   3.193  -6.314  0.00  0.00    -0.244 OA
ATOM     13  O   GLU A   1       2.059   4.932  -4.799  0.00  0.00    -0.244 OA
ENDBRANCH  10  11
BRANCH  10  14
ATOM     14  CB  GLU A   1       2.362   6.566  -6.807  0.00  0.00    +0.045 C 
BRANCH  14  15
ATOM     15  CG  GLU A   1       2.925   6.640  -8.223  0.00  0.00    +0.116 C 
BRANCH  15  16
ATOM     16  CD  GLU A   1       4.119   5.737  -8.232  0.00  0.00    +0.365 C 
ATOM     17  OE2 GLU A   1       3.977   4.564  -8.979  0.00  0.00    -0.246 OA
ATOM     18  OE1 GLU A   1       4.754   5.656  -7.137  0.00  0.00    -0.246 OA
ENDBRANCH  15  16
ENDBRANCH  14  15
ENDBRANCH  10  14
ENDBRANCH   8  10
ENDBRANCH   4   7
BRANCH   1  19
ATOM     19  N   UNK A   0      -1.375   7.320  -1.316  0.00  0.00    -0.231 NA
BRANCH  19  20
ATOM     20  C   UNK A   0      -0.922   6.133  -0.619  0.00  0.00    +0.159 C 
BRANCH  20  27
ATOM     21  N   UNK A   0       4.507   7.976  -3.701  0.00  0.00    -0.086 NA
ATOM     22  C   UNK A   0       4.238   7.510  -2.504  0.00  0.00    +0.261 A 
ATOM     23  N   UNK A   0       3.675   8.212  -1.488  0.00  0.00    -0.190 NA
ATOM     24  C   UNK A   0       2.868   7.613  -0.582  0.00  0.00    +0.188 A 
ATOM     25  C   UNK A   0       2.708   6.231  -0.593  0.00  0.00    +0.174 A 
ATOM     26  N   UNK A   0       1.501   5.683  -0.306  0.00  0.00    -0.238 NA
ATOM     27  C   UNK A   0       0.424   6.468  -0.052  0.00  0.00    +0.100 A 
ATOM     28  C   UNK A   0       0.725   7.743   0.412  0.00  0.00    +0.117 A 
ATOM     29  C   UNK A   0       3.678   5.539  -1.311  0.00  0.00    +0.302 A 
ATOM     30  O   UNK A   0       3.614   4.142  -1.256  0.00  0.00    -0.263 OA
ATOM     31  N   UNK A   0       1.937   8.287   0.134  0.00  0.00    -0.222 NA
ATOM     32  N   UNK A   0       4.384   6.181  -2.276  0.00  0.00    -0.171 NA
ENDBRANCH  20  27
ENDBRANCH  19  20
ENDBRANCH   1  19
TORSDOF 9
ENDMDL
MODEL 3
REMARK VINA RESULT:      -8.2      1.378      2.528
REMARK  Name = 
REMARK  9 active torsions:
REMARK  status: ('A' for Active; 'I' for Inactive)
REMARK    1  A    between atoms: C_8  and  C_9
REMARK    2  A    between atoms: C_9  and  N_10
REMARK    3  A    between atoms: N_10  and  C_11
REMARK    4  A    between atoms: C_14  and  C_15
REMARK    5  A    between atoms: N_17  and  CA_18
REMARK    6  A    between atoms: CA_18  and  CB_19
REMARK    7  A    between atoms: CA_18  and  C_24
REMARK    8  A    between atoms: CB_19  and  CG_20
REMARK    9  A    between atoms: CG_20  and  CD_21
REMARK                            x       y       z     vdW  Elec       q    Type
REMARK                         _______ _______ _______ _____ _____    ______ ____
ROOT
ATOM      1  C   UNK A   0       4.047   6.732  -3.015  0.00  0.00    +0.066 A 
ATOM      2  C   UNK A   0       4.313   5.374  -3.148  0.00  0.00    +0.016 A 
ATOM      3  C   UNK A   0       4.363   4.768  -4.403  0.00  0.00    +0.006 A 
ATOM      4  C   UNK A   0       4.196   5.519  -5.565  0.00  0.00    +0.055 A 
ATOM      5  C   UNK A   0       4.473   6.871  -5.402  0.00  0.00    +0.006 A 
ATOM      6  C   UNK A   0       4.354   7.473  -4.152  0.00  0.00    +0.016 A 
ENDROOT
BRANCH   4   7
ATOM      7  C   UNK A   0       3.305   5.031  -6.633  0.00  0.00    +0.265 C 
ATOM      8  N   GLU A   1       3.238   5.785  -7.826  0.00  0.00    -0.192 NA
ATOM      9  O   UNK A   0       2.581   3.999  -6.471  0.00  0.00    -0.268 OA
BRANCH   8  10
ATOM     10  CA  GLU A   1       2.325   5.147  -8.940  0.00  0.00    +0.199 C 
BRANCH  10  11
ATOM     11  C   GLU A   1       3.068   5.936 -10.128  0.00  0.00    +0.384 C 
ATOM     12  OXT GLU A   1       2.653   5.645 -11.401  0.00  0.00    -0.244 OA
ATOM     13  O   GLU A   1       3.849   6.847  -9.838  0.00  0.00    -0.244 OA
ENDBRANCH  10  11
BRANCH  10  14
ATOM     14  CB  GLU A   1       1.178   6.313  -8.764  0.00  0.00    +0.045 C 
BRANCH  14  15
ATOM     15  CG  GLU A   1      -0.061   5.437  -8.616  0.00  0.00    +0.116 C 
BRANCH  15  16
ATOM     16  CD  GLU A   1      -0.401   5.459  -7.158  0.00  0.00    +0.365 C 
ATOM     17  OE2 GLU A   1      -1.708   5.075  -6.841  0.00  0.00    -0.246 OA
ATOM     18  OE1 GLU A   1       0.102   6.415  -6.492  0.00  0.00    -0.246 OA
ENDBRANCH  15  16
ENDBRANCH  14  15
ENDBRANCH  10  14
ENDBRANCH   8  10
ENDBRANCH   4   7
BRANCH   1  19
ATOM     19  N   UNK A   0       3.082   7.236  -2.081  0.00  0.00    -0.231 NA
BRANCH  19  20
ATOM     20  C   UNK A   0       3.025   6.720  -0.729  0.00  0.00    +0.159 C 
BRANCH  20  27
ATOM     21  N   UNK A   0      -2.303   7.416  -4.402  0.00  0.00    -0.086 NA
ATOM     22  C   UNK A   0      -2.066   6.945  -3.200  0.00  0.00    +0.261 A 
ATOM     23  N   UNK A   0      -1.499   5.745  -2.916  0.00  0.00    -0.190 NA
ATOM     24  C   UNK A   0      -0.722   5.575  -1.822  0.00  0.00    +0.188 A 
ATOM     25  C   UNK A   0      -0.600   6.597  -0.884  0.00  0.00    +0.174 A 
ATOM     26  N   UNK A   0       0.586   6.813  -0.266  0.00  0.00    -0.238 NA
ATOM     27  C   UNK A   0       1.681   6.076  -0.581  0.00  0.00    +0.100 A 
ATOM     28  C   UNK A   0       1.407   4.823  -1.118  0.00  0.00    +0.117 A 
ATOM     29  C   UNK A   0      -1.578   7.583  -0.969  0.00  0.00    +0.302 A 
ATOM     30  O   UNK A   0      -1.552   8.570   0.024  0.00  0.00    -0.263 OA
ATOM     31  N   UNK A   0       0.215   4.602  -1.727  0.00  0.00    -0.222 NA
ATOM     32  N   UNK A   0      -2.251   7.763  -2.133  0.00  0.00    -0.171 NA
ENDBRANCH  20  27
ENDBRANCH  19  20
ENDBRANCH   1  19
TORSDOF 9
ENDMDL
MODEL 4
REMARK VINA RESULT:      -8.1      3.608      5.187
REMARK  Name = 
REMARK  9 active torsions:
REMARK  status: ('A' for Active; 'I' for Inactive)
REMARK    1  A    between atoms: C_8  and  C_9
REMARK    2  A    between atoms: C_9  and  N_10
REMARK    3  A    between atoms: N_10  and  C_11
REMARK    4  A    between atoms: C_14  and  C_15
REMARK    5  A    between atoms: N_17  and  CA_18
REMARK    6  A    between atoms: CA_18  and  CB_19
REMARK    7  A    between atoms: CA_18  and  C_24
REMARK    8  A    between atoms: CB_19  and  CG_20
REMARK    9  A    between atoms: CG_20  and  CD_21
REMARK                            x       y       z     vdW  Elec       q    Type
REMARK                         _______ _______ _______ _____ _____    ______ ____
ROOT
ATOM      1  C   UNK A   0       2.974   5.105  -6.240  0.00  0.00    +0.066 A 
ATOM      2  C   UNK A   0       2.456   4.315  -7.261  0.00  0.00    +0.016 A 
ATOM      3  C   UNK A   0       3.019   4.324  -8.537  0.00  0.00    +0.006 A 
ATOM      4  C   UNK A   0       4.149   5.090  -8.812  0.00  0.00    +0.055 A 
ATOM      5  C   UNK A   0       4.903   5.400  -7.686  0.00  0.00    +0.006 A 
ATOM      6  C   UNK A   0       4.308   5.451  -6.428  0.00  0.00    +0.016 A 
ENDROOT
BRANCH   4   7
ATOM      7  C   UNK A   0       4.199   5.915 -10.032  0.00  0.00    +0.265 C 
ATOM      8  N   GLU A   1       4.289   5.246 -11.273  0.00  0.00    -0.192 NA
ATOM      9  O   UNK A   0       4.214   7.185  -9.972  0.00  0.00    -0.268 OA
BRANCH   8  10
ATOM     10  CA  GLU A   1       4.255   6.203 -12.524  0.00  0.00    +0.199 C 
BRANCH  10  11
ATOM     11  C   GLU A   1       2.936   5.511 -13.131  0.00  0.00    +0.384 C 
ATOM     12  OXT GLU A   1       3.088   4.870 -14.332  0.00  0.00    -0.244 OA
ATOM     13  O   GLU A   1       1.917   5.464 -12.436  0.00  0.00    -0.244 OA
ENDBRANCH  10  11
BRANCH  10  14
ATOM     14  CB  GLU A   1       5.267   5.230 -13.381  0.00  0.00    +0.045 C 
BRANCH  14  15
ATOM     15  CG  GLU A   1       6.329   6.249 -13.781  0.00  0.00    +0.116 C 
BRANCH  15  16
ATOM     16  CD  GLU A   1       7.541   5.910 -12.970  0.00  0.00    +0.365 C 
ATOM     17  OE2 GLU A   1       7.766   4.544 -12.772  0.00  0.00    -0.246 OA
ATOM     18  OE1 GLU A   1       7.786   6.687 -11.998  0.00  0.00    -0.246 OA
ENDBRANCH  15  16
ENDBRANCH  14  15
ENDBRANCH  10  14
ENDBRANCH   8  10
ENDBRANCH   4   7
BRANCH   1  19
ATOM     19  N   UNK A   0       2.141   5.923  -5.406  0.00  0.00    -0.231 NA
BRANCH  19  20
ATOM     20  C   UNK A   0       0.963   6.569  -5.949  0.00  0.00    +0.159 C 
BRANCH  20  27
ATOM     21  N   UNK A   0      -1.491   8.411  -0.208  0.00  0.00    -0.086 NA
ATOM     22  C   UNK A   0      -1.606   7.341  -0.961  0.00  0.00    +0.261 A 
ATOM     23  N   UNK A   0      -2.342   7.247  -2.098  0.00  0.00    -0.190 NA
ATOM     24  C   UNK A   0      -1.958   6.447  -3.119  0.00  0.00    +0.188 A 
ATOM     25  C   UNK A   0      -0.869   5.594  -2.969  0.00  0.00    +0.174 A 
ATOM     26  N   UNK A   0      -0.029   5.373  -4.010  0.00  0.00    -0.238 NA
ATOM     27  C   UNK A   0      -0.205   6.013  -5.194  0.00  0.00    +0.100 A 
ATOM     28  C   UNK A   0      -1.506   6.438  -5.441  0.00  0.00    +0.117 A 
ATOM     29  C   UNK A   0      -0.482   5.371  -1.652  0.00  0.00    +0.302 A 
ATOM     30  O   UNK A   0       0.540   4.435  -1.454  0.00  0.00    -0.263 OA
ATOM     31  N   UNK A   0      -2.350   6.648  -4.400  0.00  0.00    -0.222 NA
ATOM     32  N   UNK A   0      -0.819   6.270  -0.692  0.00  0.00    -0.171 NA
ENDBRANCH  20  27
ENDBRANCH  19  20
ENDBRANCH   1  19
TORSDOF 9
ENDMDL
MODEL 5
REMARK VINA RESULT:      -8.1      2.136      2.463
REMARK  Name = 
REMARK  9 active torsions:
REMARK  status: ('A' for Active; 'I' for Inactive)
REMARK    1  A    between atoms: C_8  and  C_9
REMARK    2  A    between atoms: C_9  and  N_10
REMARK    3  A    between atoms: N_10  and  C_11
REMARK    4  A    between atoms: C_14  and  C_15
REMARK    5  A    between atoms: N_17  and  CA_18
REMARK    6  A    between atoms: CA_18  and  CB_19
REMARK    7  A    between atoms: CA_18  and  C_24
REMARK    8  A    between atoms: CB_19  and  CG_20
REMARK    9  A    between atoms: CG_20  and  CD_21
REMARK                            x       y       z     vdW  Elec       q    Type
REMARK                         _______ _______ _______ _____ _____    ______ ____
ROOT
ATOM      1  C   UNK A   0       4.070   6.877  -2.500  0.00  0.00    +0.066 A 
ATOM      2  C   UNK A   0       4.085   5.609  -3.070  0.00  0.00    +0.016 A 
ATOM      3  C   UNK A   0       4.277   5.435  -4.440  0.00  0.00    +0.006 A 
ATOM      4  C   UNK A   0       4.508   6.528  -5.272  0.00  0.00    +0.055 A 
ATOM      5  C   UNK A   0       5.007   7.643  -4.607  0.00  0.00    +0.006 A 
ATOM      6  C   UNK A   0       4.748   7.832  -3.251  0.00  0.00    +0.016 A 
ENDROOT
BRANCH   4   7
ATOM      7  C   UNK A   0       3.784   6.646  -6.550  0.00  0.00    +0.265 C 
ATOM      8  N   GLU A   1       4.111   5.731  -7.576  0.00  0.00    -0.192 NA
ATOM      9  O   UNK A   0       2.932   7.569  -6.746  0.00  0.00    -0.268 OA
BRANCH   8  10
ATOM     10  CA  GLU A   1       3.232   5.879  -8.875  0.00  0.00    +0.199 C 
BRANCH  10  11
ATOM     11  C   GLU A   1       2.263   4.662  -8.467  0.00  0.00    +0.384 C 
ATOM     12  OXT GLU A   1       0.984   5.000  -8.111  0.00  0.00    -0.244 OA
ATOM     13  O   GLU A   1       2.661   3.505  -8.633  0.00  0.00    -0.244 OA
ENDBRANCH  10  11
BRANCH  10  14
ATOM     14  CB  GLU A   1       4.233   4.907  -9.746  0.00  0.00    +0.045 C 
BRANCH  14  15
ATOM     15  CG  GLU A   1       5.512   5.735  -9.690  0.00  0.00    +0.116 C 
BRANCH  15  16
ATOM     16  CD  GLU A   1       5.654   6.354 -11.045  0.00  0.00    +0.365 C 
ATOM     17  OE2 GLU A   1       5.664   7.752 -11.067  0.00  0.00    -0.246 OA
ATOM     18  OE1 GLU A   1       5.043   5.762 -11.986  0.00  0.00    -0.246 OA
ENDBRANCH  15  16
ENDBRANCH  14  15
ENDBRANCH  10  14
ENDBRANCH   8  10
ENDBRANCH   4   7
BRANCH   1  19
ATOM     19  N   UNK A   0       3.048   7.292  -1.583  0.00  0.00    -0.231 NA
BRANCH  19  20
ATOM     20  C   UNK A   0       2.856   6.595  -0.328  0.00  0.00    +0.159 C 
BRANCH  20  27
ATOM     21  N   UNK A   0      -1.959   7.685  -4.569  0.00  0.00    -0.086 NA
ATOM     22  C   UNK A   0      -1.881   7.121  -3.386  0.00  0.00    +0.261 A 
ATOM     23  N   UNK A   0      -1.372   5.890  -3.127  0.00  0.00    -0.190 NA
ATOM     24  C   UNK A   0      -0.740   5.622  -1.960  0.00  0.00    +0.188 A 
ATOM     25  C   UNK A   0      -0.722   6.568  -0.940  0.00  0.00    +0.174 A 
ATOM     26  N   UNK A   0       0.380   6.711  -0.165  0.00  0.00    -0.238 NA
ATOM     27  C   UNK A   0       1.495   5.973  -0.397  0.00  0.00    +0.100 A 
ATOM     28  C   UNK A   0       1.273   4.770  -1.058  0.00  0.00    +0.117 A 
ATOM     29  C   UNK A   0      -1.668   7.580  -1.069  0.00  0.00    +0.302 A 
ATOM     30  O   UNK A   0      -1.753   8.490  -0.009  0.00  0.00    -0.263 OA
ATOM     31  N   UNK A   0       0.164   4.623  -1.825  0.00  0.00    -0.222 NA
ATOM     32  N   UNK A   0      -2.187   7.862  -2.291  0.00  0.00    -0.171 NA
ENDBRANCH  20  27
ENDBRANCH  19  20
ENDBRANCH   1  19
TORSDOF 9
ENDMDL
MODEL 6
REMARK VINA RESULT:      -8.0      1.951      4.971
REMARK  Name = 
REMARK  9 active torsions:
REMARK  status: ('A' for Active; 'I' for Inactive)
REMARK    1  A    between atoms: C_8  and  C_9
REMARK    2  A    between atoms: C_9  and  N_10
REMARK    3  A    between atoms: N_10  and  C_11
REMARK    4  A    between atoms: C_14  and  C_15
REMARK    5  A    between atoms: N_17  and  CA_18
REMARK    6  A    between atoms: CA_18  and  CB_19
REMARK    7  A    between atoms: CA_18  and  C_24
REMARK    8  A    between atoms: CB_19  and  CG_20
REMARK    9  A    between atoms: CG_20  and  CD_21
REMARK                            x       y       z     vdW  Elec       q    Type
REMARK                         _______ _______ _______ _____ _____    ______ ____
ROOT
ATOM      1  C   UNK A   0      -2.250   7.042  -2.541  0.00  0.00    +0.066 A 
ATOM      2  C   UNK A   0      -1.956   8.040  -3.463  0.00  0.00    +0.016 A 
ATOM      3  C   UNK A   0      -1.723   7.738  -4.805  0.00  0.00    +0.006 A 
ATOM      4  C   UNK A   0      -1.827   6.429  -5.270  0.00  0.00    +0.055 A 
ATOM      5  C   UNK A   0      -2.620   5.613  -4.470  0.00  0.00    +0.006 A 
ATOM      6  C   UNK A   0      -2.787   5.894  -3.117  0.00  0.00    +0.016 A 
ENDROOT
BRANCH   4   7
ATOM      7  C   UNK A   0      -0.783   5.876  -6.150  0.00  0.00    +0.265 C 
ATOM      8  N   GLU A   1       0.492   6.483  -6.116  0.00  0.00    -0.192 NA
ATOM      9  O   UNK A   0      -1.032   4.923  -6.954  0.00  0.00    -0.268 OA
BRANCH   8  10
ATOM     10  CA  GLU A   1       1.565   5.777  -7.028  0.00  0.00    +0.199 C 
BRANCH  10  11
ATOM     11  C   GLU A   1       2.801   6.339  -6.165  0.00  0.00    +0.384 C 
ATOM     12  OXT GLU A   1       3.504   5.412  -5.442  0.00  0.00    -0.244 OA
ATOM     13  O   GLU A   1       3.137   7.518  -6.308  0.00  0.00    -0.244 OA
ENDBRANCH  10  11
BRANCH  10  14
ATOM     14  CB  GLU A   1       1.607   7.044  -8.077  0.00  0.00    +0.045 C 
BRANCH  14  15
ATOM     15  CG  GLU A   1       1.783   6.289  -9.390  0.00  0.00    +0.116 C 
BRANCH  15  16
ATOM     16  CD  GLU A   1       0.405   6.125  -9.950  0.00  0.00    +0.365 C 
ATOM     17  OE2 GLU A   1       0.004   4.805 -10.180  0.00  0.00    -0.246 OA
ATOM     18  OE1 GLU A   1       0.051   6.997 -10.801  0.00  0.00    -0.246 OA
ENDBRANCH  15  16
ENDBRANCH  14  15
ENDBRANCH  10  14
ENDBRANCH   8  10
ENDBRANCH   4   7
BRANCH   1  19
ATOM     19  N   UNK A   0      -1.591   6.954  -1.270  0.00  0.00    -0.231 NA
BRANCH  19  20
ATOM     20  C   UNK A   0      -0.843   5.767  -0.908  0.00  0.00    +0.159 C 
BRANCH  20  27
ATOM     21  N   UNK A   0       4.693   8.097  -3.416  0.00  0.00    -0.086 NA
ATOM     22  C   UNK A   0       4.337   7.627  -2.243  0.00  0.00    +0.261 A 
ATOM     23  N   UNK A   0       3.595   8.286  -1.317  0.00  0.00    -0.190 NA
ATOM     24  C   UNK A   0       2.753   7.625  -0.491  0.00  0.00    +0.188 A 
ATOM     25  C   UNK A   0       2.732   6.233  -0.479  0.00  0.00    +0.174 A 
ATOM     26  N   UNK A   0       1.561   5.572  -0.312  0.00  0.00    -0.238 NA
ATOM     27  C   UNK A   0       0.389   6.247  -0.204  0.00  0.00    +0.100 A 
ATOM     28  C   UNK A   0       0.508   7.554   0.254  0.00  0.00    +0.117 A 
ATOM     29  C   UNK A   0       3.842   5.631  -1.063  0.00  0.00    +0.302 A 
ATOM     30  O   UNK A   0       3.910   4.236  -0.975  0.00  0.00    -0.263 OA
ATOM     31  N   UNK A   0       1.684   8.213   0.098  0.00  0.00    -0.222 NA
ATOM     32  N   UNK A   0       4.586   6.324  -1.962  0.00  0.00    -0.171 NA
ENDBRANCH  20  27
ENDBRANCH  19  20
ENDBRANCH   1  19
TORSDOF 9
ENDMDL
MODEL 7
REMARK VINA RESULT:      -8.0      6.393     11.155
REMARK  Name = 
REMARK  9 active torsions:
REMARK  status: ('A' for Active; 'I' for Inactive)
REMARK    1  A    between atoms: C_8  and  C_9
REMARK    2  A    between atoms: C_9  and  N_10
REMARK    3  A    between atoms: N_10  and  C_11
REMARK    4  A    between atoms: C_14  and  C_15
REMARK    5  A    between atoms: N_17  and  CA_18
REMARK    6  A    between atoms: CA_18  and  CB_19
REMARK    7  A    between atoms: CA_18  and  C_24
REMARK    8  A    between atoms: CB_19  and  CG_20
REMARK    9  A    between atoms: CG_20  and  CD_21
REMARK                            x       y       z     vdW  Elec       q    Type
REMARK                         _______ _______ _______ _____ _____    ______ ____
ROOT
ATOM      1  C   UNK A   0       6.662   7.246 -12.938  0.00  0.00    +0.066 A 
ATOM      2  C   UNK A   0       6.279   8.010 -11.841  0.00  0.00    +0.016 A 
ATOM      3  C   UNK A   0       5.741   7.416 -10.700  0.00  0.00    +0.006 A 
ATOM      4  C   UNK A   0       5.615   6.032 -10.609  0.00  0.00    +0.055 A 
ATOM      5  C   UNK A   0       6.475   5.335 -11.451  0.00  0.00    +0.006 A 
ATOM      6  C   UNK A   0       6.950   5.923 -12.621  0.00  0.00    +0.016 A 
ENDROOT
BRANCH   4   7
ATOM      7  C   UNK A   0       4.360   5.438 -10.116  0.00  0.00    +0.265 C 
ATOM      8  N   GLU A   1       3.147   5.946 -10.632  0.00  0.00    -0.192 NA
ATOM      9  O   UNK A   0       4.361   4.538  -9.218  0.00  0.00    -0.268 OA
BRANCH   8  10
ATOM     10  CA  GLU A   1       1.862   5.199 -10.110  0.00  0.00    +0.199 C 
BRANCH  10  11
ATOM     11  C   GLU A   1       1.076   5.392 -11.500  0.00  0.00    +0.384 C 
ATOM     12  OXT GLU A   1       1.779   5.983 -12.516  0.00  0.00    -0.244 OA
ATOM     13  O   GLU A   1      -0.040   4.879 -11.626  0.00  0.00    -0.244 OA
ENDBRANCH  10  11
BRANCH  10  14
ATOM     14  CB  GLU A   1       1.239   6.578  -9.465  0.00  0.00    +0.045 C 
BRANCH  14  15
ATOM     15  CG  GLU A   1       1.280   6.214  -7.984  0.00  0.00    +0.116 C 
BRANCH  15  16
ATOM     16  CD  GLU A   1       2.167   7.233  -7.341  0.00  0.00    +0.365 C 
ATOM     17  OE2 GLU A   1       2.150   8.501  -7.931  0.00  0.00    -0.246 OA
ATOM     18  OE1 GLU A   1       3.284   6.802  -6.920  0.00  0.00    -0.246 OA
ENDBRANCH  15  16
ENDBRANCH  14  15
ENDBRANCH  10  14
ENDBRANCH   8  10
ENDBRANCH   4   7
BRANCH   1  19
ATOM     19  N   UNK A   0       6.280   7.586 -14.279  0.00  0.00    -0.231 NA
BRANCH  19  20
ATOM     20  C   UNK A   0       5.562   6.636 -15.104  0.00  0.00    +0.159 C 
BRANCH  20  27
ATOM     21  N   UNK A   0       0.874  11.147 -14.902  0.00  0.00    -0.086 NA
ATOM     22  C   UNK A   0       1.414  10.419 -15.851  0.00  0.00    +0.261 A 
ATOM     23  N   UNK A   0       2.633  10.626 -16.411  0.00  0.00    -0.190 NA
ATOM     24  C   UNK A   0       3.387   9.594 -16.856  0.00  0.00    +0.188 A 
ATOM     25  C   UNK A   0       2.866   8.304 -16.874  0.00  0.00    +0.174 A 
ATOM     26  N   UNK A   0       3.661   7.245 -16.583  0.00  0.00    -0.238 NA
ATOM     27  C   UNK A   0       4.957   7.426 -16.223  0.00  0.00    +0.100 A 
ATOM     28  C   UNK A   0       5.530   8.609 -16.676  0.00  0.00    +0.117 A 
ATOM     29  C   UNK A   0       1.481   8.235 -16.771  0.00  0.00    +0.302 A 
ATOM     30  O   UNK A   0       0.911   6.962 -16.894  0.00  0.00    -0.263 OA
ATOM     31  N   UNK A   0       4.734   9.665 -16.979  0.00  0.00    -0.222 NA
ATOM     32  N   UNK A   0       0.796   9.270 -16.221  0.00  0.00    -0.171 NA
ENDBRANCH  20  27
ENDBRANCH  19  20
ENDBRANCH   1  19
TORSDOF 9
ENDMDL
MODEL 8
REMARK VINA RESULT:      -8.0      2.406      5.186
REMARK  Name = 
REMARK  9 active torsions:
REMARK  status: ('A' for Active; 'I' for Inactive)
REMARK    1  A    between atoms: C_8  and  C_9
REMARK    2  A    between atoms: C_9  and  N_10
REMARK    3  A    between atoms: N_10  and  C_11
REMARK    4  A    between atoms: C_14  and  C_15
REMARK    5  A    between atoms: N_17  and  CA_18
REMARK    6  A    between atoms: CA_18  and  CB_19
REMARK    7  A    between atoms: CA_18  and  C_24
REMARK    8  A    between atoms: CB_19  and  CG_20
REMARK    9  A    between atoms: CG_20  and  CD_21
REMARK                            x       y       z     vdW  Elec       q    Type
REMARK                         _______ _______ _______ _____ _____    ______ ____
ROOT
ATOM      1  C   UNK A   0      -2.614   6.789  -2.472  0.00  0.00    +0.066 A 
ATOM      2  C   UNK A   0      -2.207   7.867  -3.250  0.00  0.00    +0.016 A 
ATOM      3  C   UNK A   0      -1.780   7.687  -4.566  0.00  0.00    +0.006 A 
ATOM      4  C   UNK A   0      -1.796   6.424  -5.154  0.00  0.00    +0.055 A 
ATOM      5  C   UNK A   0      -2.681   5.537  -4.552  0.00  0.00    +0.006 A 
ATOM      6  C   UNK A   0      -3.045   5.696  -3.217  0.00  0.00    +0.016 A 
ENDROOT
BRANCH   4   7
ATOM      7  C   UNK A   0      -0.628   5.955  -5.920  0.00  0.00    +0.265 C 
ATOM      8  N   GLU A   1       0.596   6.637  -5.734  0.00  0.00    -0.192 NA
ATOM      9  O   UNK A   0      -0.725   5.006  -6.761  0.00  0.00    -0.268 OA
BRANCH   8  10
ATOM     10  CA  GLU A   1       1.805   6.019  -6.531  0.00  0.00    +0.199 C 
BRANCH  10  11
ATOM     11  C   GLU A   1       2.896   6.593  -5.499  0.00  0.00    +0.384 C 
ATOM     12  OXT GLU A   1       2.956   5.977  -4.277  0.00  0.00    -0.244 OA
ATOM     13  O   GLU A   1       3.703   7.438  -5.897  0.00  0.00    -0.244 OA
ENDBRANCH  10  11
BRANCH  10  14
ATOM     14  CB  GLU A   1       1.917   7.331  -7.516  0.00  0.00    +0.045 C 
BRANCH  14  15
ATOM     15  CG  GLU A   1       2.232   6.638  -8.837  0.00  0.00    +0.116 C 
BRANCH  15  16
ATOM     16  CD  GLU A   1       0.907   6.370  -9.480  0.00  0.00    +0.365 C 
ATOM     17  OE2 GLU A   1       0.654   5.031  -9.796  0.00  0.00    -0.246 OA
ATOM     18  OE1 GLU A   1       0.510   7.248 -10.306  0.00  0.00    -0.246 OA
ENDBRANCH  15  16
ENDBRANCH  14  15
ENDBRANCH  10  14
ENDBRANCH   8  10
ENDBRANCH   4   7
BRANCH   1  19
ATOM     19  N   UNK A   0      -2.143   6.591  -1.132  0.00  0.00    -0.231 NA
BRANCH  19  20
ATOM     20  C   UNK A   0      -0.770   6.198  -0.884  0.00  0.00    +0.159 C 
BRANCH  20  27
ATOM     21  N   UNK A   0       3.570  11.047  -0.753  0.00  0.00    -0.086 NA
ATOM     22  C   UNK A   0       3.023  10.273   0.155  0.00  0.00    +0.261 A 
ATOM     23  N   UNK A   0       1.758  10.383   0.633  0.00  0.00    -0.190 NA
ATOM     24  C   UNK A   0       1.056   9.294   1.022  0.00  0.00    +0.188 A 
ATOM     25  C   UNK A   0       1.669   8.046   1.070  0.00  0.00    +0.174 A 
ATOM     26  N   UNK A   0       0.977   6.934   0.722  0.00  0.00    -0.238 NA
ATOM     27  C   UNK A   0      -0.302   7.021   0.277  0.00  0.00    +0.100 A 
ATOM     28  C   UNK A   0      -0.991   8.154   0.696  0.00  0.00    +0.117 A 
ATOM     29  C   UNK A   0       3.060   8.081   1.059  0.00  0.00    +0.302 A 
ATOM     30  O   UNK A   0       3.714   6.854   1.215  0.00  0.00    -0.263 OA
ATOM     31  N   UNK A   0      -0.298   9.263   1.056  0.00  0.00    -0.222 NA
ATOM     32  N   UNK A   0       3.700   9.169   0.561  0.00  0.00    -0.171 NA
ENDBRANCH  20  27
ENDBRANCH  19  20
ENDBRANCH   1  19
TORSDOF 9
ENDMDL
MODEL 9
REMARK VINA RESULT:      -8.0      2.531      5.085
REMARK  Name = 
REMARK  9 active torsions:
REMARK  status: ('A' for Active; 'I' for Inactive)
REMARK    1  A    between atoms: C_8  and  C_9
REMARK    2  A    between atoms: C_9  and  N_10
REMARK    3  A    between atoms: N_10  and  C_11
REMARK    4  A    between atoms: C_14  and  C_15
REMARK    5  A    between atoms: N_17  and  CA_18
REMARK    6  A    between atoms: CA_18  and  CB_19
REMARK    7  A    between atoms: CA_18  and  C_24
REMARK    8  A    between atoms: CB_19  and  CG_20
REMARK    9  A    between atoms: CG_20  and  CD_21
REMARK                            x       y       z     vdW  Elec       q    Type
REMARK                         _______ _______ _______ _____ _____    ______ ____
ROOT
ATOM      1  C   UNK A   0      -2.423   7.152  -2.700  0.00  0.00    +0.066 A 
ATOM      2  C   UNK A   0      -2.066   8.075  -3.676  0.00  0.00    +0.016 A 
ATOM      3  C   UNK A   0      -1.539   7.665  -4.900  0.00  0.00    +0.006 A 
ATOM      4  C   UNK A   0      -1.400   6.311  -5.198  0.00  0.00    +0.055 A 
ATOM      5  C   UNK A   0      -2.238   5.486  -4.457  0.00  0.00    +0.006 A 
ATOM      6  C   UNK A   0      -2.702   5.886  -3.207  0.00  0.00    +0.016 A 
ENDROOT
BRANCH   4   7
ATOM      7  C   UNK A   0      -0.146   5.814  -5.791  0.00  0.00    +0.265 C 
ATOM      8  N   GLU A   1       0.384   6.521  -6.894  0.00  0.00    -0.192 NA
ATOM      9  O   UNK A   0       0.416   4.757  -5.363  0.00  0.00    -0.268 OA
BRANCH   8  10
ATOM     10  CA  GLU A   1       1.765   5.968  -7.411  0.00  0.00    +0.199 C 
BRANCH  10  11
ATOM     11  C   GLU A   1       2.535   7.345  -7.102  0.00  0.00    +0.384 C 
ATOM     12  OXT GLU A   1       2.169   8.426  -7.860  0.00  0.00    -0.244 OA
ATOM     13  O   GLU A   1       3.289   7.397  -6.126  0.00  0.00    -0.244 OA
ENDBRANCH  10  11
BRANCH  10  14
ATOM     14  CB  GLU A   1       1.435   6.398  -8.964  0.00  0.00    +0.045 C 
BRANCH  14  15
ATOM     15  CG  GLU A   1       0.729   5.133  -9.440  0.00  0.00    +0.116 C 
BRANCH  15  16
ATOM     16  CD  GLU A   1       0.547   5.301 -10.916  0.00  0.00    +0.365 C 
ATOM     17  OE2 GLU A   1       0.764   6.594 -11.403  0.00  0.00    -0.246 OA
ATOM     18  OE1 GLU A   1      -0.404   4.638 -11.431  0.00  0.00    -0.246 OA
ENDBRANCH  15  16
ENDBRANCH  14  15
ENDBRANCH  10  14
ENDBRANCH   8  10
ENDBRANCH   4   7
BRANCH   1  19
ATOM     19  N   UNK A   0      -2.025   7.293  -1.329  0.00  0.00    -0.231 NA
BRANCH  19  20
ATOM     20  C   UNK A   0      -0.998   6.438  -0.768  0.00  0.00    +0.159 C 
BRANCH  20  27
ATOM     21  N   UNK A   0       3.609  11.036  -0.820  0.00  0.00    -0.086 NA
ATOM     22  C   UNK A   0       3.086  10.264   0.104  0.00  0.00    +0.261 A 
ATOM     23  N   UNK A   0       1.866  10.428   0.677  0.00  0.00    -0.190 NA
ATOM     24  C   UNK A   0       1.133   9.367   1.085  0.00  0.00    +0.188 A 
ATOM     25  C   UNK A   0       1.677   8.086   1.052  0.00  0.00    +0.174 A 
ATOM     26  N   UNK A   0       0.899   7.025   0.725  0.00  0.00    -0.238 NA
ATOM     27  C   UNK A   0      -0.401   7.196   0.378  0.00  0.00    +0.100 A 
ATOM     28  C   UNK A   0      -0.993   8.351   0.878  0.00  0.00    +0.117 A 
ATOM     29  C   UNK A   0       3.063   8.046   0.940  0.00  0.00    +0.302 A 
ATOM     30  O   UNK A   0       3.656   6.780   1.012  0.00  0.00    -0.263 OA
ATOM     31  N   UNK A   0      -0.214   9.409   1.217  0.00  0.00    -0.222 NA
ATOM     32  N   UNK A   0       3.726   9.113   0.427  0.00  0.00    -0.171 NA
ENDBRANCH  20  27
ENDBRANCH  19  20
ENDBRANCH   1  19
TORSDOF 9
ENDMDL
