MODEL 1
REMARK VINA RESULT:      -9.8      0.000      0.000
REMARK  Name = 
REMARK  7 active torsions:
REMARK  status: ('A' for Active; 'I' for Inactive)
REMARK    1  A    between atoms: C_2  and  C_3
REMARK    2  A    between atoms: C_3  and  C_4
REMARK    3  A    between atoms: C_4  and  C_5
REMARK    4  A    between atoms: N_14  and  C_15
REMARK    5  A    between atoms: C_15  and  C_16
REMARK    6  A    between atoms: C_19  and  C_20
REMARK    7  A    between atoms: C_25  and  C_26
REMARK                            x       y       z     vdW  Elec       q    Type
REMARK                         _______ _______ _______ _____ _____    ______ ____
ROOT
ATOM      1  C   UNL     1       2.485   4.988  -7.818  0.00  0.00    +0.025 A 
ATOM      2  C   UNL     1       2.621   6.217  -7.238  0.00  0.00    -0.000 A 
ATOM      3  C   UNL     1       1.813   6.515  -6.149  0.00  0.00    -0.000 A 
ATOM      4  C   UNL     1       1.167   5.537  -5.404  0.00  0.00    -0.001 A 
ATOM      5  C   UNL     1       1.377   4.234  -5.835  0.00  0.00    -0.000 A 
ATOM      6  C   UNL     1       2.114   3.947  -6.977  0.00  0.00    -0.000 A 
ENDROOT
BRANCH   4   7
ATOM      7  C   UNL     1      -0.090   5.947  -4.764  0.00  0.00    -0.006 A 
ATOM      8  C   UNL     1      -0.352   5.514  -3.492  0.00  0.00    -0.015 A 
ATOM      9  C   UNL     1      -1.675   5.403  -3.118  0.00  0.00    -0.007 A 
ATOM     10  C   UNL     1      -2.710   5.633  -4.015  0.00  0.00    -0.001 A 
ATOM     11  C   UNL     1      -2.408   6.504  -5.055  0.00  0.00    -0.000 A 
ATOM     12  C   UNL     1      -1.108   6.575  -5.472  0.00  0.00    -0.001 A 
BRANCH   8  13
ATOM     13  C   UNL     1       0.755   5.457  -2.531  0.00  0.00    +0.044 A 
ATOM     14  N   UNL     1       1.594   6.460  -2.176  0.00  0.00    -0.289 NA
ATOM     15  N   UNL     1       2.185   6.123  -1.031  0.00  0.00    -0.218 NA
ATOM     16  N   UNL     1       1.316   5.325  -0.412  0.00  0.00    -0.218 NA
ATOM     17  N   UNL     1       0.694   4.697  -1.410  0.00  0.00    -0.289 NA
ENDBRANCH   8  13
ENDBRANCH   4   7
BRANCH   1  18
ATOM     18  C   UNL     1       2.811   4.639  -9.205  0.00  0.00    +0.237 C 
BRANCH  18  20
ATOM     19  C   UNL     1       3.203   6.255 -11.088  0.00  0.00    +0.301 C 
ATOM     20  N   UNL     1       2.315   5.601 -10.175  0.00  0.00    -0.137 N 
ATOM     21  C   UNL     1       1.052   5.620 -10.851  0.00  0.00    +0.358 C 
ATOM     22  O   UNL     1       0.022   5.110 -10.371  0.00  0.00    -0.242 OA
ATOM     23  C   UNL     1       1.280   6.024 -12.253  0.00  0.00    +0.264 C 
ATOM     24  C   UNL     1       0.429   7.188 -12.684  0.00  0.00    +0.061 C 
ATOM     25  C   UNL     1       0.580   7.146 -14.189  0.00  0.00    +0.005 C 
ATOM     26  C   UNL     1       0.910   5.716 -14.551  0.00  0.00    +0.005 C 
ATOM     27  C   UNL     1       0.954   4.947 -13.247  0.00  0.00    +0.061 C 
ATOM     28  N   UNL     1       2.668   6.394 -12.240  0.00  0.00    -0.067 NA
BRANCH  19  29
ATOM     29  C   UNL     1       4.524   6.862 -10.736  0.00  0.00    +0.117 C 
BRANCH  29  30
ATOM     30  C   UNL     1       5.609   5.915 -11.237  0.00  0.00    +0.013 C 
BRANCH  30  32
ATOM     31  C   UNL     1       6.465   8.185 -11.406  0.00  0.00    +0.000 C 
ATOM     32  C   UNL     1       6.885   6.746 -11.293  0.00  0.00    +0.001 C 
ENDBRANCH  30  32
ENDBRANCH  29  30
ENDBRANCH  19  29
ENDBRANCH  18  20
ENDBRANCH   1  18
TORSDOF 7
ENDMDL
MODEL 2
REMARK VINA RESULT:      -9.5      1.554      2.095
REMARK  Name = 
REMARK  7 active torsions:
REMARK  status: ('A' for Active; 'I' for Inactive)
REMARK    1  A    between atoms: C_2  and  C_3
REMARK    2  A    between atoms: C_3  and  C_4
REMARK    3  A    between atoms: C_4  and  C_5
REMARK    4  A    between atoms: N_14  and  C_15
REMARK    5  A    between atoms: C_15  and  C_16
REMARK    6  A    between atoms: C_19  and  C_20
REMARK    7  A    between atoms: C_25  and  C_26
REMARK                            x       y       z     vdW  Elec       q    Type
REMARK                         _______ _______ _______ _____ _____    ______ ____
ROOT
ATOM      1  C   UNL     1       3.369   6.150  -6.057  0.00  0.00    +0.025 A 
ATOM      2  C   UNL     1       3.257   6.893  -4.916  0.00  0.00    -0.000 A 
ATOM      3  C   UNL     1       2.075   6.801  -4.193  0.00  0.00    -0.000 A 
ATOM      4  C   UNL     1       1.181   5.750  -4.347  0.00  0.00    -0.001 A 
ATOM      5  C   UNL     1       1.548   4.799  -5.291  0.00  0.00    -0.000 A 
ATOM      6  C   UNL     1       2.686   4.941  -6.074  0.00  0.00    -0.000 A 
ENDROOT
BRANCH   4   7
ATOM      7  C   UNL     1      -0.228   6.063  -4.072  0.00  0.00    -0.006 A 
ATOM      8  C   UNL     1      -0.829   5.487  -2.985  0.00  0.00    -0.015 A 
ATOM      9  C   UNL     1      -2.195   5.311  -3.034  0.00  0.00    -0.007 A 
ATOM     10  C   UNL     1      -2.932   5.619  -4.170  0.00  0.00    -0.001 A 
ATOM     11  C   UNL     1      -2.384   6.605  -4.980  0.00  0.00    -0.000 A 
ATOM     12  C   UNL     1      -1.023   6.746  -4.983  0.00  0.00    -0.001 A 
BRANCH   8  13
ATOM     13  C   UNL     1      -0.051   5.344  -1.749  0.00  0.00    +0.044 A 
ATOM     14  N   UNL     1       0.920   4.436  -1.484  0.00  0.00    -0.289 NA
ATOM     15  N   UNL     1       1.625   4.874  -0.442  0.00  0.00    -0.218 NA
ATOM     16  N   UNL     1       1.530   6.202  -0.489  0.00  0.00    -0.218 NA
ATOM     17  N   UNL     1       0.320   6.416  -1.007  0.00  0.00    -0.289 NA
ENDBRANCH   8  13
ENDBRANCH   4   7
BRANCH   1  18
ATOM     18  C   UNL     1       4.231   6.444  -7.206  0.00  0.00    +0.237 C 
BRANCH  18  20
ATOM     19  C   UNL     1       3.777   5.686  -9.558  0.00  0.00    +0.301 C 
ATOM     20  N   UNL     1       3.505   6.563  -8.459  0.00  0.00    -0.137 N 
ATOM     21  C   UNL     1       2.147   6.967  -8.671  0.00  0.00    +0.358 C 
ATOM     22  O   UNL     1       1.539   7.725  -7.891  0.00  0.00    -0.242 OA
ATOM     23  C   UNL     1       1.562   6.106  -9.719  0.00  0.00    +0.264 C 
ATOM     24  C   UNL     1       0.948   6.881 -10.854  0.00  0.00    +0.061 C 
ATOM     25  C   UNL     1       0.132   5.816 -11.554  0.00  0.00    +0.005 C 
ATOM     26  C   UNL     1      -0.196   4.769 -10.515  0.00  0.00    +0.005 C 
ATOM     27  C   UNL     1       0.442   5.237  -9.224  0.00  0.00    +0.061 C 
ATOM     28  N   UNL     1       2.706   5.367 -10.177  0.00  0.00    -0.067 NA
BRANCH  19  29
ATOM     29  C   UNL     1       5.136   5.303 -10.052  0.00  0.00    +0.117 C 
BRANCH  29  30
ATOM     30  C   UNL     1       5.317   5.937 -11.427  0.00  0.00    +0.013 C 
BRANCH  30  32
ATOM     31  C   UNL     1       7.215   7.307 -10.767  0.00  0.00    +0.000 C 
ATOM     32  C   UNL     1       5.765   7.369 -11.163  0.00  0.00    +0.001 C 
ENDBRANCH  30  32
ENDBRANCH  29  30
ENDBRANCH  19  29
ENDBRANCH  18  20
ENDBRANCH   1  18
TORSDOF 7
ENDMDL
MODEL 3
REMARK VINA RESULT:      -9.4      2.385      9.335
REMARK  Name = 
REMARK  7 active torsions:
REMARK  status: ('A' for Active; 'I' for Inactive)
REMARK    1  A    between atoms: C_2  and  C_3
REMARK    2  A    between atoms: C_3  and  C_4
REMARK    3  A    between atoms: C_4  and  C_5
REMARK    4  A    between atoms: N_14  and  C_15
REMARK    5  A    between atoms: C_15  and  C_16
REMARK    6  A    between atoms: C_19  and  C_20
REMARK    7  A    between atoms: C_25  and  C_26
REMARK                            x       y       z     vdW  Elec       q    Type
REMARK                         _______ _______ _______ _____ _____    ______ ____
ROOT
ATOM      1  C   UNL     1       2.457   4.976  -7.109  0.00  0.00    +0.025 A 
ATOM      2  C   UNL     1       2.285   6.225  -7.634  0.00  0.00    -0.000 A 
ATOM      3  C   UNL     1       2.920   6.520  -8.833  0.00  0.00    -0.000 A 
ATOM      4  C   UNL     1       3.394   5.538  -9.692  0.00  0.00    -0.001 A 
ATOM      5  C   UNL     1       3.198   4.232  -9.259  0.00  0.00    -0.000 A 
ATOM      6  C   UNL     1       2.641   3.945  -8.020  0.00  0.00    -0.000 A 
ENDROOT
BRANCH   4   7
ATOM      7  C   UNL     1       4.550   5.913 -10.518  0.00  0.00    -0.006 A 
ATOM      8  C   UNL     1       4.570   5.533 -11.833  0.00  0.00    -0.015 A 
ATOM      9  C   UNL     1       5.802   5.372 -12.430  0.00  0.00    -0.007 A 
ATOM     10  C   UNL     1       6.984   5.501 -11.712  0.00  0.00    -0.001 A 
ATOM     11  C   UNL     1       6.913   6.332 -10.601  0.00  0.00    -0.000 A 
ATOM     12  C   UNL     1       5.707   6.449  -9.967  0.00  0.00    -0.001 A 
BRANCH   8  13
ATOM     13  C   UNL     1       3.316   5.583 -12.595  0.00  0.00    +0.044 A 
ATOM     14  N   UNL     1       2.374   6.557 -12.572  0.00  0.00    -0.289 NA
ATOM     15  N   UNL     1       1.612   6.423 -13.656  0.00  0.00    -0.218 NA
ATOM     16  N   UNL     1       2.402   5.864 -14.571  0.00  0.00    -0.218 NA
ATOM     17  N   UNL     1       3.223   5.094 -13.856  0.00  0.00    -0.289 NA
ENDBRANCH   8  13
ENDBRANCH   4   7
BRANCH   1  18
ATOM     18  C   UNL     1       2.342   4.604  -5.695  0.00  0.00    +0.237 C 
BRANCH  18  20
ATOM     19  C   UNL     1       1.493   5.971  -3.766  0.00  0.00    +0.301 C 
ATOM     20  N   UNL     1       2.467   5.732  -4.788  0.00  0.00    -0.137 N 
ATOM     21  C   UNL     1       3.658   6.340  -4.275  0.00  0.00    +0.358 C 
ATOM     22  O   UNL     1       4.745   6.314  -4.883  0.00  0.00    -0.242 OA
ATOM     23  C   UNL     1       3.438   6.670  -2.852  0.00  0.00    +0.264 C 
ATOM     24  C   UNL     1       3.727   8.109  -2.522  0.00  0.00    +0.061 C 
ATOM     25  C   UNL     1       3.785   8.079  -1.010  0.00  0.00    +0.005 C 
ATOM     26  C   UNL     1       4.168   6.670  -0.620  0.00  0.00    +0.005 C 
ATOM     27  C   UNL     1       4.321   5.898  -1.914  0.00  0.00    +0.061 C 
ATOM     28  N   UNL     1       2.039   6.388  -2.689  0.00  0.00    -0.067 NA
BRANCH  19  29
ATOM     29  C   UNL     1       0.009   5.914  -3.946  0.00  0.00    +0.117 C 
BRANCH  29  30
ATOM     30  C   UNL     1      -0.359   6.917  -5.034  0.00  0.00    +0.013 C 
BRANCH  30  32
ATOM     31  C   UNL     1      -1.255   5.370  -6.683  0.00  0.00    +0.000 C 
ATOM     32  C   UNL     1      -1.648   6.395  -5.654  0.00  0.00    +0.001 C 
ENDBRANCH  30  32
ENDBRANCH  29  30
ENDBRANCH  19  29
ENDBRANCH  18  20
ENDBRANCH   1  18
TORSDOF 7
ENDMDL
MODEL 4
REMARK VINA RESULT:      -9.3      2.232      8.872
REMARK  Name = 
REMARK  7 active torsions:
REMARK  status: ('A' for Active; 'I' for Inactive)
REMARK    1  A    between atoms: C_2  and  C_3
REMARK    2  A    between atoms: C_3  and  C_4
REMARK    3  A    between atoms: C_4  and  C_5
REMARK    4  A    between atoms: N_14  and  C_15
REMARK    5  A    between atoms: C_15  and  C_16
REMARK    6  A    between atoms: C_19  and  C_20
REMARK    7  A    between atoms: C_25  and  C_26
REMARK                            x       y       z     vdW  Elec       q    Type
REMARK                         _______ _______ _______ _____ _____    ______ ____
ROOT
ATOM      1  C   UNL     1       3.695   5.573  -7.354  0.00  0.00    +0.025 A 
ATOM      2  C   UNL     1       3.112   6.702  -7.855  0.00  0.00    -0.000 A 
ATOM      3  C   UNL     1       3.342   7.017  -9.187  0.00  0.00    -0.000 A 
ATOM      4  C   UNL     1       3.800   6.086 -10.110  0.00  0.00    -0.001 A 
ATOM      5  C   UNL     1       4.027   4.814  -9.600  0.00  0.00    -0.000 A 
ATOM      6  C   UNL     1       3.880   4.527  -8.249  0.00  0.00    -0.000 A 
ENDROOT
BRANCH   4   7
ATOM      7  C   UNL     1       4.593   6.626 -11.223  0.00  0.00    -0.006 A 
ATOM      8  C   UNL     1       4.425   6.089 -12.471  0.00  0.00    -0.015 A 
ATOM      9  C   UNL     1       5.489   6.165 -13.344  0.00  0.00    -0.007 A 
ATOM     10  C   UNL     1       6.718   6.684 -12.956  0.00  0.00    -0.001 A 
ATOM     11  C   UNL     1       6.667   7.612 -11.924  0.00  0.00    -0.000 A 
ATOM     12  C   UNL     1       5.648   7.506 -11.018  0.00  0.00    -0.001 A 
BRANCH   8  13
ATOM     13  C   UNL     1       3.070   5.719 -12.896  0.00  0.00    +0.044 A 
ATOM     14  N   UNL     1       1.928   6.429 -12.729  0.00  0.00    -0.289 NA
ATOM     15  N   UNL     1       1.014   5.950 -13.571  0.00  0.00    -0.218 NA
ATOM     16  N   UNL     1       1.707   5.462 -14.599  0.00  0.00    -0.218 NA
ATOM     17  N   UNL     1       2.841   5.033 -14.043  0.00  0.00    -0.289 NA
ENDBRANCH   8  13
ENDBRANCH   4   7
BRANCH   1  18
ATOM     18  C   UNL     1       4.027   5.314  -5.950  0.00  0.00    +0.237 C 
BRANCH  18  20
ATOM     19  C   UNL     1       2.685   6.634  -4.286  0.00  0.00    +0.301 C 
ATOM     20  N   UNL     1       2.890   5.443  -5.054  0.00  0.00    -0.137 N 
ATOM     21  C   UNL     1       1.574   4.894  -5.193  0.00  0.00    +0.358 C 
ATOM     22  O   UNL     1       1.343   3.851  -5.834  0.00  0.00    -0.242 OA
ATOM     23  C   UNL     1       0.596   5.911  -4.755  0.00  0.00    +0.264 C 
ATOM     24  C   UNL     1      -0.360   5.406  -3.708  0.00  0.00    +0.061 C 
ATOM     25  C   UNL     1      -1.432   6.474  -3.721  0.00  0.00    +0.005 C 
ATOM     26  C   UNL     1      -1.398   7.104  -5.095  0.00  0.00    +0.005 C 
ATOM     27  C   UNL     1      -0.298   6.396  -5.859  0.00  0.00    +0.061 C 
ATOM     28  N   UNL     1       1.445   6.933  -4.210  0.00  0.00    -0.067 NA
BRANCH  19  29
ATOM     29  C   UNL     1       3.737   7.368  -3.517  0.00  0.00    +0.117 C 
BRANCH  29  30
ATOM     30  C   UNL     1       4.253   6.425  -2.435  0.00  0.00    +0.013 C 
BRANCH  30  32
ATOM     31  C   UNL     1       4.824   6.901  -0.119  0.00  0.00    +0.000 C 
ATOM     32  C   UNL     1       3.705   6.970  -1.121  0.00  0.00    +0.001 C 
ENDBRANCH  30  32
ENDBRANCH  29  30
ENDBRANCH  19  29
ENDBRANCH  18  20
ENDBRANCH   1  18
TORSDOF 7
ENDMDL
MODEL 5
REMARK VINA RESULT:      -9.3      2.763      8.934
REMARK  Name = 
REMARK  7 active torsions:
REMARK  status: ('A' for Active; 'I' for Inactive)
REMARK    1  A    between atoms: C_2  and  C_3
REMARK    2  A    between atoms: C_3  and  C_4
REMARK    3  A    between atoms: C_4  and  C_5
REMARK    4  A    between atoms: N_14  and  C_15
REMARK    5  A    between atoms: C_15  and  C_16
REMARK    6  A    between atoms: C_19  and  C_20
REMARK    7  A    between atoms: C_25  and  C_26
REMARK                            x       y       z     vdW  Elec       q    Type
REMARK                         _______ _______ _______ _____ _____    ______ ____
ROOT
ATOM      1  C   UNL     1       3.234   5.719  -8.441  0.00  0.00    +0.025 A 
ATOM      2  C   UNL     1       3.273   6.938  -9.054  0.00  0.00    -0.000 A 
ATOM      3  C   UNL     1       4.135   7.099 -10.130  0.00  0.00    -0.000 A 
ATOM      4  C   UNL     1       4.662   6.026 -10.835  0.00  0.00    -0.001 A 
ATOM      5  C   UNL     1       4.275   4.773 -10.377  0.00  0.00    -0.000 A 
ATOM      6  C   UNL     1       3.483   4.616  -9.247  0.00  0.00    -0.000 A 
ENDROOT
BRANCH   4   7
ATOM      7  C   UNL     1       5.976   6.250 -11.455  0.00  0.00    -0.006 A 
ATOM      8  C   UNL     1       6.300   5.547 -12.583  0.00  0.00    -0.015 A 
ATOM      9  C   UNL     1       7.637   5.319 -12.828  0.00  0.00    -0.007 A 
ATOM     10  C   UNL     1       8.622   5.705 -11.927  0.00  0.00    -0.001 A 
ATOM     11  C   UNL     1       8.292   6.787 -11.121  0.00  0.00    -0.000 A 
ATOM     12  C   UNL     1       6.972   6.985 -10.824  0.00  0.00    -0.001 A 
BRANCH   8  13
ATOM     13  C   UNL     1       5.255   5.317 -13.588  0.00  0.00    +0.044 A 
ATOM     14  N   UNL     1       4.261   4.397 -13.552  0.00  0.00    -0.289 NA
ATOM     15  N   UNL     1       3.326   4.760 -14.429  0.00  0.00    -0.218 NA
ATOM     16  N   UNL     1       3.413   6.088 -14.502  0.00  0.00    -0.218 NA
ATOM     17  N   UNL     1       4.708   6.334 -14.299  0.00  0.00    -0.289 NA
ENDBRANCH   8  13
ENDBRANCH   4   7
BRANCH   1  18
ATOM     18  C   UNL     1       2.837   5.453  -7.054  0.00  0.00    +0.237 C 
BRANCH  18  20
ATOM     19  C   UNL     1       0.329   5.558  -7.176  0.00  0.00    +0.301 C 
ATOM     20  N   UNL     1       1.574   6.071  -6.687  0.00  0.00    -0.137 N 
ATOM     21  C   UNL     1       1.219   6.720  -5.460  0.00  0.00    +0.358 C 
ATOM     22  O   UNL     1       2.057   7.272  -4.722  0.00  0.00    -0.242 OA
ATOM     23  C   UNL     1      -0.164   6.334  -5.111  0.00  0.00    +0.264 C 
ATOM     24  C   UNL     1      -1.067   7.512  -4.864  0.00  0.00    +0.061 C 
ATOM     25  C   UNL     1      -2.254   6.860  -4.189  0.00  0.00    +0.005 C 
ATOM     26  C   UNL     1      -1.740   5.597  -3.534  0.00  0.00    +0.005 C 
ATOM     27  C   UNL     1      -0.260   5.530  -3.846  0.00  0.00    +0.061 C 
ATOM     28  N   UNL     1      -0.583   5.616  -6.283  0.00  0.00    -0.067 NA
BRANCH  19  29
ATOM     29  C   UNL     1       0.048   5.155  -8.588  0.00  0.00    +0.117 C 
BRANCH  29  30
ATOM     30  C   UNL     1      -0.034   6.429  -9.420  0.00  0.00    +0.013 C 
BRANCH  30  32
ATOM     31  C   UNL     1       0.290   4.514 -10.882  0.00  0.00    +0.000 C 
ATOM     32  C   UNL     1      -0.086   5.970 -10.871  0.00  0.00    +0.001 C 
ENDBRANCH  30  32
ENDBRANCH  29  30
ENDBRANCH  19  29
ENDBRANCH  18  20
ENDBRANCH   1  18
TORSDOF 7
ENDMDL
MODEL 6
REMARK VINA RESULT:      -9.0      2.955      9.089
REMARK  Name = 
REMARK  7 active torsions:
REMARK  status: ('A' for Active; 'I' for Inactive)
REMARK    1  A    between atoms: C_2  and  C_3
REMARK    2  A    between atoms: C_3  and  C_4
REMARK    3  A    between atoms: C_4  and  C_5
REMARK    4  A    between atoms: N_14  and  C_15
REMARK    5  A    between atoms: C_15  and  C_16
REMARK    6  A    between atoms: C_19  and  C_20
REMARK    7  A    between atoms: C_25  and  C_26
REMARK                            x       y       z     vdW  Elec       q    Type
REMARK                         _______ _______ _______ _____ _____    ______ ____
ROOT
ATOM      1  C   UNL     1       3.962   5.653  -6.679  0.00  0.00    +0.025 A 
ATOM      2  C   UNL     1       4.683   5.065  -7.679  0.00  0.00    -0.000 A 
ATOM      3  C   UNL     1       4.228   5.213  -8.982  0.00  0.00    -0.000 A 
ATOM      4  C   UNL     1       3.331   6.204  -9.356  0.00  0.00    -0.001 A 
ATOM      5  C   UNL     1       2.907   7.034  -8.325  0.00  0.00    -0.000 A 
ATOM      6  C   UNL     1       3.296   6.826  -7.007  0.00  0.00    -0.000 A 
ENDROOT
BRANCH   4   7
ATOM      7  C   UNL     1       2.463   5.885 -10.497  0.00  0.00    -0.006 A 
ATOM      8  C   UNL     1       2.938   6.097 -11.764  0.00  0.00    -0.015 A 
ATOM      9  C   UNL     1       2.014   6.344 -12.756  0.00  0.00    -0.007 A 
ATOM     10  C   UNL     1       0.658   6.464 -12.479  0.00  0.00    -0.001 A 
ATOM     11  C   UNL     1       0.222   5.777 -11.353  0.00  0.00    -0.000 A 
ATOM     12  C   UNL     1       1.117   5.581 -10.338  0.00  0.00    -0.001 A 
BRANCH   8  13
ATOM     13  C   UNL     1       4.344   5.785 -12.044  0.00  0.00    +0.044 A 
ATOM     14  N   UNL     1       4.830   4.826 -12.870  0.00  0.00    -0.289 NA
ATOM     15  N   UNL     1       6.101   5.116 -13.141  0.00  0.00    -0.218 NA
ATOM     16  N   UNL     1       6.186   6.442 -13.045  0.00  0.00    -0.218 NA
ATOM     17  N   UNL     1       5.295   6.750 -12.101  0.00  0.00    -0.289 NA
ENDBRANCH   8  13
ENDBRANCH   4   7
BRANCH   1  18
ATOM     18  C   UNL     1       3.924   5.238  -5.273  0.00  0.00    +0.237 C 
BRANCH  18  20
ATOM     19  C   UNL     1       2.402   6.218  -3.531  0.00  0.00    +0.301 C 
ATOM     20  N   UNL     1       3.564   6.311  -4.362  0.00  0.00    -0.137 N 
ATOM     21  C   UNL     1       4.426   7.206  -3.648  0.00  0.00    +0.358 C 
ATOM     22  O   UNL     1       5.562   7.516  -4.054  0.00  0.00    -0.242 OA
ATOM     23  C   UNL     1       3.880   7.393  -2.288  0.00  0.00    +0.264 C 
ATOM     24  C   UNL     1       3.684   8.839  -1.918  0.00  0.00    +0.061 C 
ATOM     25  C   UNL     1       3.488   8.755  -0.420  0.00  0.00    +0.005 C 
ATOM     26  C   UNL     1       4.187   7.494   0.037  0.00  0.00    +0.005 C 
ATOM     27  C   UNL     1       4.773   6.858  -1.206  0.00  0.00    +0.061 C 
ATOM     28  N   UNL     1       2.613   6.720  -2.375  0.00  0.00    -0.067 NA
BRANCH  19  29
ATOM     29  C   UNL     1       1.050   5.753  -3.970  0.00  0.00    +0.117 C 
BRANCH  29  30
ATOM     30  C   UNL     1       0.449   6.852  -4.838  0.00  0.00    +0.013 C 
BRANCH  30  32
ATOM     31  C   UNL     1       0.129   5.107  -6.501  0.00  0.00    +0.000 C 
ATOM     32  C   UNL     1      -0.592   6.164  -5.711  0.00  0.00    +0.001 C 
ENDBRANCH  30  32
ENDBRANCH  29  30
ENDBRANCH  19  29
ENDBRANCH  18  20
ENDBRANCH   1  18
TORSDOF 7
ENDMDL
MODEL 7
REMARK VINA RESULT:      -9.0      1.519      2.718
REMARK  Name = 
REMARK  7 active torsions:
REMARK  status: ('A' for Active; 'I' for Inactive)
REMARK    1  A    between atoms: C_2  and  C_3
REMARK    2  A    between atoms: C_3  and  C_4
REMARK    3  A    between atoms: C_4  and  C_5
REMARK    4  A    between atoms: N_14  and  C_15
REMARK    5  A    between atoms: C_15  and  C_16
REMARK    6  A    between atoms: C_19  and  C_20
REMARK    7  A    between atoms: C_25  and  C_26
REMARK                            x       y       z     vdW  Elec       q    Type
REMARK                         _______ _______ _______ _____ _____    ______ ____
ROOT
ATOM      1  C   UNL     1       2.009   5.328  -7.409  0.00  0.00    +0.025 A 
ATOM      2  C   UNL     1       1.102   4.589  -6.703  0.00  0.00    -0.000 A 
ATOM      3  C   UNL     1       1.040   4.776  -5.329  0.00  0.00    -0.000 A 
ATOM      4  C   UNL     1       1.558   5.900  -4.700  0.00  0.00    -0.001 A 
ATOM      5  C   UNL     1       2.159   6.824  -5.546  0.00  0.00    -0.000 A 
ATOM      6  C   UNL     1       2.297   6.591  -6.909  0.00  0.00    -0.000 A 
ENDROOT
BRANCH   4   7
ATOM      7  C   UNL     1       2.015   5.706  -3.318  0.00  0.00    -0.006 A 
ATOM      8  C   UNL     1       1.190   6.084  -2.293  0.00  0.00    -0.015 A 
ATOM      9  C   UNL     1       1.781   6.432  -1.097  0.00  0.00    -0.007 A 
ATOM     10  C   UNL     1       3.161   6.486  -0.951  0.00  0.00    -0.001 A 
ATOM     11  C   UNL     1       3.878   5.655  -1.803  0.00  0.00    -0.000 A 
ATOM     12  C   UNL     1       3.325   5.354  -3.017  0.00  0.00    -0.001 A 
BRANCH   8  13
ATOM     13  C   UNL     1      -0.251   5.842  -2.429  0.00  0.00    +0.044 A 
ATOM     14  N   UNL     1      -0.990   4.887  -1.813  0.00  0.00    -0.289 NA
ATOM     15  N   UNL     1      -2.273   5.238  -1.895  0.00  0.00    -0.218 NA
ATOM     16  N   UNL     1      -2.268   6.569  -1.955  0.00  0.00    -0.218 NA
ATOM     17  N   UNL     1      -1.136   6.854  -2.600  0.00  0.00    -0.289 NA
ENDBRANCH   8  13
ENDBRANCH   4   7
BRANCH   1  18
ATOM     18  C   UNL     1       2.608   4.971  -8.699  0.00  0.00    +0.237 C 
BRANCH  18  20
ATOM     19  C   UNL     1       3.130   6.350 -10.733  0.00  0.00    +0.301 C 
ATOM     20  N   UNL     1       2.185   5.831  -9.791  0.00  0.00    -0.137 N 
ATOM     21  C   UNL     1       0.951   5.812 -10.518  0.00  0.00    +0.358 C 
ATOM     22  O   UNL     1      -0.115   5.391 -10.029  0.00  0.00    -0.242 OA
ATOM     23  C   UNL     1       1.247   6.047 -11.946  0.00  0.00    +0.264 C 
ATOM     24  C   UNL     1       0.456   7.180 -12.542  0.00  0.00    +0.061 C 
ATOM     25  C   UNL     1       0.664   6.963 -14.024  0.00  0.00    +0.005 C 
ATOM     26  C   UNL     1       0.957   5.491 -14.209  0.00  0.00    +0.005 C 
ATOM     27  C   UNL     1       0.922   4.874 -12.826  0.00  0.00    +0.061 C 
ATOM     28  N   UNL     1       2.646   6.373 -11.915  0.00  0.00    -0.067 NA
BRANCH  19  29
ATOM     29  C   UNL     1       4.457   6.951 -10.395  0.00  0.00    +0.117 C 
BRANCH  29  30
ATOM     30  C   UNL     1       5.525   5.913 -10.720  0.00  0.00    +0.013 C 
BRANCH  30  32
ATOM     31  C   UNL     1       6.623   8.002 -11.306  0.00  0.00    +0.000 C 
ATOM     32  C   UNL     1       6.852   6.659 -10.668  0.00  0.00    +0.001 C 
ENDBRANCH  30  32
ENDBRANCH  29  30
ENDBRANCH  19  29
ENDBRANCH  18  20
ENDBRANCH   1  18
TORSDOF 7
ENDMDL
MODEL 8
REMARK VINA RESULT:      -9.0      2.665      8.585
REMARK  Name = 
REMARK  7 active torsions:
REMARK  status: ('A' for Active; 'I' for Inactive)
REMARK    1  A    between atoms: C_2  and  C_3
REMARK    2  A    between atoms: C_3  and  C_4
REMARK    3  A    between atoms: C_4  and  C_5
REMARK    4  A    between atoms: N_14  and  C_15
REMARK    5  A    between atoms: C_15  and  C_16
REMARK    6  A    between atoms: C_19  and  C_20
REMARK    7  A    between atoms: C_25  and  C_26
REMARK                            x       y       z     vdW  Elec       q    Type
REMARK                         _______ _______ _______ _____ _____    ______ ____
ROOT
ATOM      1  C   UNL     1       1.586   5.720  -9.813  0.00  0.00    +0.025 A 
ATOM      2  C   UNL     1       2.107   6.361 -10.900  0.00  0.00    -0.000 A 
ATOM      3  C   UNL     1       3.478   6.280 -11.108  0.00  0.00    -0.000 A 
ATOM      4  C   UNL     1       4.270   5.307 -10.514  0.00  0.00    -0.001 A 
ATOM      5  C   UNL     1       3.594   4.425  -9.681  0.00  0.00    -0.000 A 
ATOM      6  C   UNL     1       2.239   4.564  -9.407  0.00  0.00    -0.000 A 
ENDROOT
BRANCH   4   7
ATOM      7  C   UNL     1       5.669   5.683 -10.269  0.00  0.00    -0.006 A 
ATOM      8  C   UNL     1       6.562   5.608 -11.304  0.00  0.00    -0.015 A 
ATOM      9  C   UNL     1       7.888   5.405 -10.987  0.00  0.00    -0.007 A 
ATOM     10  C   UNL     1       8.303   5.194  -9.678  0.00  0.00    -0.001 A 
ATOM     11  C   UNL     1       7.488   5.757  -8.703  0.00  0.00    -0.000 A 
ATOM     12  C   UNL     1       6.159   5.906  -8.988  0.00  0.00    -0.001 A 
BRANCH   8  13
ATOM     13  C   UNL     1       6.115   6.012 -12.642  0.00  0.00    +0.044 A 
ATOM     14  N   UNL     1       6.267   7.222 -13.234  0.00  0.00    -0.289 NA
ATOM     15  N   UNL     1       6.084   7.069 -14.545  0.00  0.00    -0.218 NA
ATOM     16  N   UNL     1       6.446   5.814 -14.804  0.00  0.00    -0.218 NA
ATOM     17  N   UNL     1       6.125   5.153 -13.691  0.00  0.00    -0.289 NA
ENDBRANCH   8  13
ENDBRANCH   4   7
BRANCH   1  18
ATOM     18  C   UNL     1       0.342   6.062  -9.115  0.00  0.00    +0.237 C 
BRANCH  18  20
ATOM     19  C   UNL     1       1.183   6.851  -6.882  0.00  0.00    +0.301 C 
ATOM     20  N   UNL     1       0.432   5.921  -7.671  0.00  0.00    -0.137 N 
ATOM     21  C   UNL     1      -0.548   5.411  -6.759  0.00  0.00    +0.358 C 
ATOM     22  O   UNL     1      -1.415   4.582  -7.095  0.00  0.00    -0.242 OA
ATOM     23  C   UNL     1      -0.538   6.252  -5.545  0.00  0.00    +0.264 C 
ATOM     24  C   UNL     1      -0.362   5.464  -4.275  0.00  0.00    +0.061 C 
ATOM     25  C   UNL     1      -0.752   6.477  -3.221  0.00  0.00    +0.005 C 
ATOM     26  C   UNL     1      -1.684   7.462  -3.890  0.00  0.00    +0.005 C 
ATOM     27  C   UNL     1      -1.816   7.009  -5.329  0.00  0.00    +0.061 C 
ATOM     28  N   UNL     1       0.601   7.098  -5.772  0.00  0.00    -0.067 NA
BRANCH  19  29
ATOM     29  C   UNL     1       2.552   7.360  -7.204  0.00  0.00    +0.117 C 
BRANCH  29  30
ATOM     30  C   UNL     1       3.454   7.025  -6.021  0.00  0.00    +0.013 C 
BRANCH  30  32
ATOM     31  C   UNL     1       4.564   5.154  -4.934  0.00  0.00    +0.000 C 
ATOM     32  C   UNL     1       3.755   5.537  -6.143  0.00  0.00    +0.001 C 
ENDBRANCH  30  32
ENDBRANCH  29  30
ENDBRANCH  19  29
ENDBRANCH  18  20
ENDBRANCH   1  18
TORSDOF 7
ENDMDL
MODEL 9
REMARK VINA RESULT:      -9.0      2.434      9.088
REMARK  Name = 
REMARK  7 active torsions:
REMARK  status: ('A' for Active; 'I' for Inactive)
REMARK    1  A    between atoms: C_2  and  C_3
REMARK    2  A    between atoms: C_3  and  C_4
REMARK    3  A    between atoms: C_4  and  C_5
REMARK    4  A    between atoms: N_14  and  C_15
REMARK    5  A    between atoms: C_15  and  C_16
REMARK    6  A    between atoms: C_19  and  C_20
REMARK    7  A    between atoms: C_25  and  C_26
REMARK                            x       y       z     vdW  Elec       q    Type
REMARK                         _______ _______ _______ _____ _____    ______ ____
ROOT
ATOM      1  C   UNL     1       1.544   5.731  -8.999  0.00  0.00    +0.025 A 
ATOM      2  C   UNL     1       1.599   6.315 -10.233  0.00  0.00    -0.000 A 
ATOM      3  C   UNL     1       2.803   6.267 -10.922  0.00  0.00    -0.000 A 
ATOM      4  C   UNL     1       3.811   5.364 -10.610  0.00  0.00    -0.001 A 
ATOM      5  C   UNL     1       3.533   4.517  -9.545  0.00  0.00    -0.000 A 
ATOM      6  C   UNL     1       2.364   4.628  -8.803  0.00  0.00    -0.000 A 
ENDROOT
BRANCH   4   7
ATOM      7  C   UNL     1       5.180   5.804 -10.912  0.00  0.00    -0.006 A 
ATOM      8  C   UNL     1       5.793   5.321 -12.036  0.00  0.00    -0.015 A 
ATOM      9  C   UNL     1       7.170   5.259 -12.032  0.00  0.00    -0.007 A 
ATOM     10  C   UNL     1       7.914   5.586 -10.905  0.00  0.00    -0.001 A 
ATOM     11  C   UNL     1       7.310   6.493 -10.043  0.00  0.00    -0.000 A 
ATOM     12  C   UNL     1       5.943   6.519  -9.997  0.00  0.00    -0.001 A 
BRANCH   8  13
ATOM     13  C   UNL     1       4.992   5.158 -13.255  0.00  0.00    +0.044 A 
ATOM     14  N   UNL     1       4.019   4.244 -13.488  0.00  0.00    -0.289 NA
ATOM     15  N   UNL     1       3.294   4.665 -14.524  0.00  0.00    -0.218 NA
ATOM     16  N   UNL     1       3.386   5.994 -14.498  0.00  0.00    -0.218 NA
ATOM     17  N   UNL     1       4.605   6.218 -14.006  0.00  0.00    -0.289 NA
ENDBRANCH   8  13
ENDBRANCH   4   7
BRANCH   1  18
ATOM     18  C   UNL     1       0.620   6.076  -7.914  0.00  0.00    +0.237 C 
BRANCH  18  20
ATOM     19  C   UNL     1       1.024   5.761  -5.454  0.00  0.00    +0.301 C 
ATOM     20  N   UNL     1       1.292   6.450  -6.680  0.00  0.00    -0.137 N 
ATOM     21  C   UNL     1       2.618   6.962  -6.503  0.00  0.00    +0.358 C 
ATOM     22  O   UNL     1       3.216   7.607  -7.386  0.00  0.00    -0.242 OA
ATOM     23  C   UNL     1       3.207   6.329  -5.305  0.00  0.00    +0.264 C 
ATOM     24  C   UNL     1       3.737   7.321  -4.306  0.00  0.00    +0.061 C 
ATOM     25  C   UNL     1       4.580   6.442  -3.408  0.00  0.00    +0.005 C 
ATOM     26  C   UNL     1       5.000   5.251  -4.240  0.00  0.00    +0.005 C 
ATOM     27  C   UNL     1       4.388   5.453  -5.610  0.00  0.00    +0.061 C 
ATOM     28  N   UNL     1       2.086   5.615  -4.759  0.00  0.00    -0.067 NA
BRANCH  19  29
ATOM     29  C   UNL     1      -0.331   5.392  -4.939  0.00  0.00    +0.117 C 
BRANCH  29  30
ATOM     30  C   UNL     1      -0.579   6.211  -3.677  0.00  0.00    +0.013 C 
BRANCH  30  32
ATOM     31  C   UNL     1      -1.846   8.087  -4.566  0.00  0.00    +0.000 C 
ATOM     32  C   UNL     1      -1.982   6.784  -3.828  0.00  0.00    +0.001 C 
ENDBRANCH  30  32
ENDBRANCH  29  30
ENDBRANCH  19  29
ENDBRANCH  18  20
ENDBRANCH   1  18
TORSDOF 7
ENDMDL
