MODEL 1
REMARK VINA RESULT:      32.2      0.000      0.000
REMARK  Name = 
REMARK  3 active torsions:
REMARK  status: ('A' for Active; 'I' for Inactive)
REMARK    1  A    between atoms: C_17  and  O_18
REMARK    2  A    between atoms: O_18  and  C_19
REMARK    3  A    between atoms: C_32  and  C_33
REMARK                            x       y       z     vdW  Elec       q    Type
REMARK                         _______ _______ _______ _____ _____    ______ ____
ROOT
ATOM      1  C   UNL     1       1.008   7.237  -4.177  0.00  0.00    +0.007 C 
ATOM      2  C   UNL     1       1.396   6.721  -5.662  0.00  0.00    +0.053 C 
ATOM      3  C   UNL     1       1.169   5.096  -5.160  0.00  0.00    +0.159 C 
ATOM      4  O   UNL     1       2.450   5.125  -4.379  0.00  0.00    -0.223 OA
ATOM      5  C   UNL     1       1.773   4.539  -6.644  0.00  0.00    +0.071 C 
ATOM      6  C   UNL     1       1.956   3.032  -6.121  0.00  0.00    +0.006 C 
ATOM      7  C   UNL     1       3.376   5.128  -6.512  0.00  0.00    +0.171 C 
ATOM      8  C   UNL     1       4.040   3.884  -5.646  0.00  0.00    +0.047 C 
ATOM      9  O   UNL     1       3.542   4.325  -7.783  0.00  0.00    -0.452 OA
ATOM     10  C   UNL     1       4.719   4.600  -8.418  0.00  0.00    +0.319 C 
ATOM     11  O   UNL     1       4.556   3.540  -9.062  0.00  0.00    -0.250 OA
ATOM     12  C   UNL     1       4.764   5.890  -9.120  0.00  0.00    +0.142 C 
ATOM     13  C   UNL     1       5.876   5.382 -10.260  0.00  0.00    +0.166 C 
ATOM     14  O   UNL     1       5.133   4.140 -10.728  0.00  0.00    -0.222 OA
ATOM     15  C   UNL     1       5.154   6.180 -11.514  0.00  0.00    +0.066 C 
ATOM     16  C   UNL     1       5.067   4.924 -12.607  0.00  0.00    +0.157 C 
ATOM     17  O   UNL     1       3.574   5.138 -12.787  0.00  0.00    -0.223 OA
ATOM     18  C   UNL     1       5.523   5.869 -13.861  0.00  0.00    +0.066 C 
ATOM     19  C   UNL     1       4.513   7.154 -13.640  0.00  0.00    +0.155 C 
ATOM     20  O   UNL     1       5.621   8.114 -14.038  0.00  0.00    -0.223 OA
ATOM     21  C   UNL     1       3.926   6.918 -15.158  0.00  0.00    +0.036 C 
ATOM     22  C   UNL     1       4.992   7.230 -16.122  0.00  0.00    +0.038 C 
ATOM     23  C   UNL     1       4.416   8.330 -17.208  0.00  0.00    +0.183 C 
ATOM     24  O   UNL     1       3.365   7.335 -17.667  0.00  0.00    -0.220 OA
ATOM     25  C   UNL     1       3.313   9.027 -16.048  0.00  0.00    +0.189 C 
ATOM     26  O   UNL     1       4.101  10.327 -16.093  0.00  0.00    -0.220 OA
ATOM     27  C   UNL     1       2.295   9.469 -17.262  0.00  0.00    +0.100 C 
ATOM     28  C   UNL     1       2.025  10.875 -17.184  0.00  0.00    +0.156 C 
ATOM     29  O   UNL     1       2.156  11.518 -18.224  0.00  0.00    -0.296 OA
ATOM     30  C   UNL     1       1.860  11.543 -15.902  0.00  0.00    +0.098 C 
ATOM     31  C   UNL     1       0.255  11.473 -15.532  0.00  0.00    +0.172 C 
ATOM     32  O   UNL     1       0.499  12.470 -14.415  0.00  0.00    -0.222 OA
ATOM     33  C   UNL     1      -0.108  12.596 -16.784  0.00  0.00    +0.164 C 
ATOM     34  C   UNL     1      -0.701  13.841 -15.769  0.00  0.00    +0.168 C 
ATOM     35  O   UNL     1      -1.528  14.406 -16.905  0.00  0.00    -0.222 OA
ATOM     36  C   UNL     1      -1.923  12.932 -15.157  0.00  0.00    +0.068 C 
ATOM     37  C   UNL     1      -2.260  13.948 -13.896  0.00  0.00    +0.142 C 
ATOM     38  C   UNL     1      -2.832  12.705 -13.008  0.00  0.00    +0.003 C 
ATOM     39  C   UNL     1      -3.792  12.870 -12.219  0.00  0.00    -0.002 C 
ATOM     40  C   UNL     1      -3.441  13.517 -10.969  0.00  0.00    -0.000 C 
ATOM     41  C   UNL     1      -2.960  12.668 -10.099  0.00  0.00    -0.000 C 
ATOM     42  C   UNL     1      -3.881  12.799  -8.936  0.00  0.00    -0.000 C 
ATOM     43  C   UNL     1      -4.838  11.905  -8.996  0.00  0.00    -0.000 C 
ATOM     44  C   UNL     1      -4.771  10.913  -7.905  0.00  0.00    -0.005 C 
ATOM     45  C   UNL     1      -3.724  10.873  -7.092  0.00  0.00    -0.026 C 
ATOM     46  C   UNL     1      -3.738  10.252  -5.764  0.00  0.00    +0.031 C 
ATOM     47  C   UNL     1      -2.346  10.262  -5.188  0.00  0.00    +0.031 C 
ATOM     48  C   UNL     1      -1.499   9.201  -5.761  0.00  0.00    -0.026 C 
ATOM     49  C   UNL     1      -2.042   7.987  -5.864  0.00  0.00    -0.005 C 
ATOM     50  C   UNL     1      -1.124   6.896  -5.509  0.00  0.00    -0.005 C 
ATOM     51  C   UNL     1      -0.081   6.790  -6.243  0.00  0.00    -0.024 C 
ENDROOT
BRANCH  33  52
ATOM     52  C   UNL     1      -1.475  11.879 -17.143  0.00  0.00    +0.369 C 
ATOM     53  O   UNL     1      -2.372  12.450 -18.007  0.00  0.00    -0.245 OA
ATOM     54  O   UNL     1      -1.423  10.656 -17.446  0.00  0.00    -0.245 OA
ENDBRANCH  33  52
BRANCH  37  55
ATOM     55  O   UNL     1      -3.608  14.246 -14.521  0.00  0.00    -0.327 OA
BRANCH  55  56
ATOM     56  C   UNL     1      -3.518  15.774 -14.354  0.00  0.00    +0.268 C 
ATOM     57  C   UNL     1      -4.266  16.196 -15.876  0.00  0.00    +0.228 C 
ATOM     58  O   UNL     1      -5.270  15.069 -16.095  0.00  0.00    -0.216 OA
ATOM     59  C   UNL     1      -5.266  17.395 -15.202  0.00  0.00    +0.160 C 
ATOM     60  N   UNL     1      -5.763  17.750 -16.614  0.00  0.00    -0.127 NA
ATOM     61  C   UNL     1      -6.624  16.452 -14.913  0.00  0.00    +0.199 C 
ATOM     62  O   UNL     1      -6.821  16.846 -13.486  0.00  0.00    -0.219 OA
ATOM     63  C   UNL     1      -5.542  15.186 -14.463  0.00  0.00    +0.150 C 
ATOM     64  C   UNL     1      -4.487  15.699 -15.575  0.00  0.00    +0.035 C 
ATOM     65  O   UNL     1      -4.733  15.904 -13.431  0.00  0.00    -0.328 OA
ENDBRANCH  55  56
ENDBRANCH  37  55
TORSDOF 3
ENDMDL
