MODEL 1
REMARK VINA RESULT:      -6.1      0.000      0.000
REMARK  Name = 
REMARK  1 active torsions:
REMARK  status: ('A' for Active; 'I' for Inactive)
REMARK    1  A    between atoms: C_8  and  N_9
REMARK                            x       y       z     vdW  Elec       q    Type
REMARK                         _______ _______ _______ _____ _____    ______ ____
ROOT
ATOM      1 CL   UNL     1       4.424   4.748 -13.482  0.00  0.00    -0.079 Cl
ATOM      2  C   UNL     1       5.878   5.486 -12.820  0.00  0.00    +0.093 A 
ATOM      3  C   UNL     1       5.922   5.649 -11.439  0.00  0.00    +0.179 A 
ATOM      4  C   UNL     1       7.138   5.787 -10.797  0.00  0.00    +0.093 A 
ATOM      5 CL   UNL     1       7.146   5.612  -9.048  0.00  0.00    -0.079 Cl
ATOM      6  C   UNL     1       8.288   5.656 -11.560  0.00  0.00    +0.014 A 
ATOM      7  C   UNL     1       8.217   5.779 -12.942  0.00  0.00    +0.002 A 
ATOM      8  C   UNL     1       6.997   5.686 -13.599  0.00  0.00    +0.014 A 
ENDROOT
BRANCH   3   9
ATOM      9  N   UNL     1       4.750   6.192 -10.823  0.00  0.00    -0.069 NA
ATOM     10  C   UNL     1       3.826   5.456 -10.308  0.00  0.00    +0.439 C 
ATOM     11  N   UNL     1       2.434   5.778 -10.199  0.00  0.00    -0.060 NA
ATOM     12  C   UNL     1       1.933   5.372  -8.914  0.00  0.00    +0.251 C 
ATOM     13  C   UNL     1       2.821   4.195  -8.582  0.00  0.00    +0.251 C 
ATOM     14  N   UNL     1       4.010   4.361  -9.409  0.00  0.00    -0.060 NA
ENDBRANCH   3   9
TORSDOF 1
ENDMDL
MODEL 2
REMARK VINA RESULT:      -6.0      6.643     10.155
REMARK  Name = 
REMARK  1 active torsions:
REMARK  status: ('A' for Active; 'I' for Inactive)
REMARK    1  A    between atoms: C_8  and  N_9
REMARK                            x       y       z     vdW  Elec       q    Type
REMARK                         _______ _______ _______ _____ _____    ______ ____
ROOT
ATOM      1 CL   UNL     1       0.606   4.882  -1.712  0.00  0.00    -0.079 Cl
ATOM      2  C   UNL     1      -0.825   5.608  -2.436  0.00  0.00    +0.093 A 
ATOM      3  C   UNL     1      -0.870   5.648  -3.826  0.00  0.00    +0.179 A 
ATOM      4  C   UNL     1      -2.083   5.770  -4.475  0.00  0.00    +0.093 A 
ATOM      5 CL   UNL     1      -2.105   5.440  -6.203  0.00  0.00    -0.079 Cl
ATOM      6  C   UNL     1      -3.233   5.747  -3.703  0.00  0.00    +0.014 A 
ATOM      7  C   UNL     1      -3.152   5.989  -2.337  0.00  0.00    +0.002 A 
ATOM      8  C   UNL     1      -1.933   5.914  -1.676  0.00  0.00    +0.014 A 
ENDROOT
BRANCH   3   9
ATOM      9  N   UNL     1       0.318   6.094  -4.490  0.00  0.00    -0.069 NA
ATOM     10  C   UNL     1       1.207   5.283  -4.951  0.00  0.00    +0.439 C 
ATOM     11  N   UNL     1       2.609   5.539  -5.093  0.00  0.00    -0.060 NA
ATOM     12  C   UNL     1       3.082   5.014  -6.346  0.00  0.00    +0.251 C 
ATOM     13  C   UNL     1       2.145   3.852  -6.579  0.00  0.00    +0.251 C 
ATOM     14  N   UNL     1       0.970   4.129  -5.760  0.00  0.00    -0.060 NA
ENDBRANCH   3   9
TORSDOF 1
ENDMDL
MODEL 3
REMARK VINA RESULT:      -5.8      7.021      8.616
REMARK  Name = 
REMARK  1 active torsions:
REMARK  status: ('A' for Active; 'I' for Inactive)
REMARK    1  A    between atoms: C_8  and  N_9
REMARK                            x       y       z     vdW  Elec       q    Type
REMARK                         _______ _______ _______ _____ _____    ______ ____
ROOT
ATOM      1 CL   UNL     1       1.273   5.616  -7.672  0.00  0.00    -0.079 Cl
ATOM      2  C   UNL     1      -0.116   5.374  -6.619  0.00  0.00    +0.093 A 
ATOM      3  C   UNL     1       0.111   5.486  -5.251  0.00  0.00    +0.179 A 
ATOM      4  C   UNL     1      -0.940   5.757  -4.395  0.00  0.00    +0.093 A 
ATOM      5 CL   UNL     1      -0.533   6.252  -2.757  0.00  0.00    -0.079 Cl
ATOM      6  C   UNL     1      -2.181   6.009  -4.958  0.00  0.00    +0.014 A 
ATOM      7  C   UNL     1      -2.437   5.618  -6.266  0.00  0.00    +0.002 A 
ATOM      8  C   UNL     1      -1.394   5.300  -7.127  0.00  0.00    +0.014 A 
ENDROOT
BRANCH   3   9
ATOM      9  N   UNL     1       1.263   4.809  -4.737  0.00  0.00    -0.069 NA
ATOM     10  C   UNL     1       2.422   5.366  -4.653  0.00  0.00    +0.439 C 
ATOM     11  N   UNL     1       3.695   4.714  -4.722  0.00  0.00    -0.060 NA
ATOM     12  C   UNL     1       4.586   5.265  -3.738  0.00  0.00    +0.251 C 
ATOM     13  C   UNL     1       4.081   6.683  -3.607  0.00  0.00    +0.251 C 
ATOM     14  N   UNL     1       2.710   6.654  -4.103  0.00  0.00    -0.060 NA
ENDBRANCH   3   9
TORSDOF 1
ENDMDL
MODEL 4
REMARK VINA RESULT:      -5.7      6.807      8.730
REMARK  Name = 
REMARK  1 active torsions:
REMARK  status: ('A' for Active; 'I' for Inactive)
REMARK    1  A    between atoms: C_8  and  N_9
REMARK                            x       y       z     vdW  Elec       q    Type
REMARK                         _______ _______ _______ _____ _____    ______ ____
ROOT
ATOM      1 CL   UNL     1      -0.446   5.371  -2.767  0.00  0.00    -0.079 Cl
ATOM      2  C   UNL     1      -0.848   5.738  -4.441  0.00  0.00    +0.093 A 
ATOM      3  C   UNL     1       0.212   5.787  -5.341  0.00  0.00    +0.179 A 
ATOM      4  C   UNL     1      -0.019   5.621  -6.693  0.00  0.00    +0.093 A 
ATOM      5 CL   UNL     1       1.379   5.323  -7.716  0.00  0.00    -0.079 Cl
ATOM      6  C   UNL     1      -1.309   5.307  -7.092  0.00  0.00    +0.014 A 
ATOM      7  C   UNL     1      -2.374   5.542  -6.231  0.00  0.00    +0.002 A 
ATOM      8  C   UNL     1      -2.155   5.755  -4.876  0.00  0.00    +0.014 A 
ENDROOT
BRANCH   3   9
ATOM      9  N   UNL     1       1.371   6.518  -4.923  0.00  0.00    -0.069 NA
ATOM     10  C   UNL     1       2.381   5.960  -4.351  0.00  0.00    +0.439 C 
ATOM     11  N   UNL     1       3.278   6.565  -3.413  0.00  0.00    -0.060 NA
ATOM     12  C   UNL     1       4.631   6.171  -3.699  0.00  0.00    +0.251 C 
ATOM     13  C   UNL     1       4.442   4.806  -4.320  0.00  0.00    +0.251 C 
ATOM     14  N   UNL     1       3.060   4.779  -4.784  0.00  0.00    -0.060 NA
ENDBRANCH   3   9
TORSDOF 1
ENDMDL
MODEL 5
REMARK VINA RESULT:      -5.6      5.984      9.335
REMARK  Name = 
REMARK  1 active torsions:
REMARK  status: ('A' for Active; 'I' for Inactive)
REMARK    1  A    between atoms: C_8  and  N_9
REMARK                            x       y       z     vdW  Elec       q    Type
REMARK                         _______ _______ _______ _____ _____    ______ ____
ROOT
ATOM      1 CL   UNL     1      -2.645   6.119  -6.353  0.00  0.00    -0.079 Cl
ATOM      2  C   UNL     1      -2.091   5.591  -4.769  0.00  0.00    +0.093 A 
ATOM      3  C   UNL     1      -0.719   5.634  -4.540  0.00  0.00    +0.179 A 
ATOM      4  C   UNL     1      -0.234   5.677  -3.248  0.00  0.00    +0.093 A 
ATOM      5 CL   UNL     1       1.460   6.103  -3.040  0.00  0.00    -0.079 Cl
ATOM      6  C   UNL     1      -1.154   5.777  -2.217  0.00  0.00    +0.014 A 
ATOM      7  C   UNL     1      -2.485   5.451  -2.446  0.00  0.00    +0.002 A 
ATOM      8  C   UNL     1      -2.979   5.360  -3.741  0.00  0.00    +0.014 A 
ENDROOT
BRANCH   3   9
ATOM      9  N   UNL     1       0.117   5.103  -5.575  0.00  0.00    -0.069 NA
ATOM     10  C   UNL     1       0.572   5.822  -6.543  0.00  0.00    +0.439 C 
ATOM     11  N   UNL     1       0.893   5.375  -7.865  0.00  0.00    -0.060 NA
ATOM     12  C   UNL     1       2.118   5.984  -8.308  0.00  0.00    +0.251 C 
ATOM     13  C   UNL     1       2.112   7.297  -7.560  0.00  0.00    +0.251 C 
ATOM     14  N   UNL     1       1.210   7.096  -6.432  0.00  0.00    -0.060 NA
ENDBRANCH   3   9
TORSDOF 1
ENDMDL
MODEL 6
REMARK VINA RESULT:      -5.6      1.302      2.829
REMARK  Name = 
REMARK  1 active torsions:
REMARK  status: ('A' for Active; 'I' for Inactive)
REMARK    1  A    between atoms: C_8  and  N_9
REMARK                            x       y       z     vdW  Elec       q    Type
REMARK                         _______ _______ _______ _____ _____    ______ ____
ROOT
ATOM      1 CL   UNL     1       7.492   6.235  -9.551  0.00  0.00    -0.079 Cl
ATOM      2  C   UNL     1       6.928   5.616 -11.099  0.00  0.00    +0.093 A 
ATOM      3  C   UNL     1       5.551   5.585 -11.295  0.00  0.00    +0.179 A 
ATOM      4  C   UNL     1       5.035   5.552 -12.577  0.00  0.00    +0.093 A 
ATOM      5 CL   UNL     1       3.318   5.889 -12.759  0.00  0.00    -0.079 Cl
ATOM      6  C   UNL     1       5.926   5.654 -13.633  0.00  0.00    +0.014 A 
ATOM      7  C   UNL     1       7.276   5.400 -13.424  0.00  0.00    +0.002 A 
ATOM      8  C   UNL     1       7.802   5.386 -12.139  0.00  0.00    +0.014 A 
ENDROOT
BRANCH   3   9
ATOM      9  N   UNL     1       4.765   5.058 -10.220  0.00  0.00    -0.069 NA
ATOM     10  C   UNL     1       4.292   5.795  -9.275  0.00  0.00    +0.439 C 
ATOM     11  N   UNL     1       4.022   5.391  -7.927  0.00  0.00    -0.060 NA
ATOM     12  C   UNL     1       2.774   5.954  -7.484  0.00  0.00    +0.251 C 
ATOM     13  C   UNL     1       2.697   7.231  -8.289  0.00  0.00    +0.251 C 
ATOM     14  N   UNL     1       3.585   7.027  -9.427  0.00  0.00    -0.060 NA
ENDBRANCH   3   9
TORSDOF 1
ENDMDL
MODEL 7
REMARK VINA RESULT:      -5.6      1.851      2.369
REMARK  Name = 
REMARK  1 active torsions:
REMARK  status: ('A' for Active; 'I' for Inactive)
REMARK    1  A    between atoms: C_8  and  N_9
REMARK                            x       y       z     vdW  Elec       q    Type
REMARK                         _______ _______ _______ _____ _____    ______ ____
ROOT
ATOM      1 CL   UNL     1       4.647   4.932 -13.077  0.00  0.00    -0.079 Cl
ATOM      2  C   UNL     1       5.425   5.574 -11.635  0.00  0.00    +0.093 A 
ATOM      3  C   UNL     1       4.603   5.825 -10.540  0.00  0.00    +0.179 A 
ATOM      4  C   UNL     1       5.143   5.892  -9.270  0.00  0.00    +0.093 A 
ATOM      5 CL   UNL     1       4.021   5.836  -7.917  0.00  0.00    -0.079 Cl
ATOM      6  C   UNL     1       6.491   5.602  -9.127  0.00  0.00    +0.014 A 
ATOM      7  C   UNL     1       7.326   5.637 -10.237  0.00  0.00    +0.002 A 
ATOM      8  C   UNL     1       6.798   5.614 -11.521  0.00  0.00    +0.014 A 
ENDROOT
BRANCH   3   9
ATOM      9  N   UNL     1       3.378   6.516 -10.808  0.00  0.00    -0.069 NA
ATOM     10  C   UNL     1       2.257   5.908 -10.987  0.00  0.00    +0.439 C 
ATOM     11  N   UNL     1       1.155   6.356 -11.784  0.00  0.00    -0.060 NA
ATOM     12  C   UNL     1      -0.085   6.101 -11.101  0.00  0.00    +0.251 C 
ATOM     13  C   UNL     1       0.252   4.883 -10.273  0.00  0.00    +0.251 C 
ATOM     14  N   UNL     1       1.706   4.877 -10.164  0.00  0.00    -0.060 NA
ENDBRANCH   3   9
TORSDOF 1
ENDMDL
MODEL 8
REMARK VINA RESULT:      -5.4      4.653      7.902
REMARK  Name = 
REMARK  1 active torsions:
REMARK  status: ('A' for Active; 'I' for Inactive)
REMARK    1  A    between atoms: C_8  and  N_9
REMARK                            x       y       z     vdW  Elec       q    Type
REMARK                         _______ _______ _______ _____ _____    ______ ____
ROOT
ATOM      1 CL   UNL     1      -0.862   5.624  -7.329  0.00  0.00    -0.079 Cl
ATOM      2  C   UNL     1      -0.470   5.314  -5.642  0.00  0.00    +0.093 A 
ATOM      3  C   UNL     1       0.873   5.113  -5.339  0.00  0.00    +0.179 A 
ATOM      4  C   UNL     1       1.328   5.308  -4.049  0.00  0.00    +0.093 A 
ATOM      5 CL   UNL     1       3.069   5.402  -3.818  0.00  0.00    -0.079 Cl
ATOM      6  C   UNL     1       0.430   5.801  -3.116  0.00  0.00    +0.014 A 
ATOM      7  C   UNL     1      -0.935   5.722  -3.364  0.00  0.00    +0.002 A 
ATOM      8  C   UNL     1      -1.409   5.484  -4.648  0.00  0.00    +0.014 A 
ENDROOT
BRANCH   3   9
ATOM      9  N   UNL     1       1.595   4.225  -6.200  0.00  0.00    -0.069 NA
ATOM     10  C   UNL     1       2.222   4.627  -7.252  0.00  0.00    +0.439 C 
ATOM     11  N   UNL     1       2.467   3.873  -8.444  0.00  0.00    -0.060 NA
ATOM     12  C   UNL     1       3.808   4.108  -8.909  0.00  0.00    +0.251 C 
ATOM     13  C   UNL     1       4.075   5.512  -8.418  0.00  0.00    +0.251 C 
ATOM     14  N   UNL     1       3.124   5.732  -7.335  0.00  0.00    -0.060 NA
ENDBRANCH   3   9
TORSDOF 1
ENDMDL
MODEL 9
REMARK VINA RESULT:      -5.4      7.040     10.087
REMARK  Name = 
REMARK  1 active torsions:
REMARK  status: ('A' for Active; 'I' for Inactive)
REMARK    1  A    between atoms: C_8  and  N_9
REMARK                            x       y       z     vdW  Elec       q    Type
REMARK                         _______ _______ _______ _____ _____    ______ ____
ROOT
ATOM      1 CL   UNL     1      -1.169   5.949  -5.998  0.00  0.00    -0.079 Cl
ATOM      2  C   UNL     1      -1.593   5.655  -4.315  0.00  0.00    +0.093 A 
ATOM      3  C   UNL     1      -0.559   5.740  -3.387  0.00  0.00    +0.179 A 
ATOM      4  C   UNL     1      -0.843   5.970  -2.055  0.00  0.00    +0.093 A 
ATOM      5 CL   UNL     1       0.499   6.434  -1.017  0.00  0.00    -0.079 Cl
ATOM      6  C   UNL     1      -2.163   6.210  -1.709  0.00  0.00    +0.014 A 
ATOM      7  C   UNL     1      -3.182   5.845  -2.581  0.00  0.00    +0.002 A 
ATOM      8  C   UNL     1      -2.907   5.568  -3.913  0.00  0.00    +0.014 A 
ENDROOT
BRANCH   3   9
ATOM      9  N   UNL     1       0.661   5.073  -3.729  0.00  0.00    -0.069 NA
ATOM     10  C   UNL     1       1.617   5.651  -4.373  0.00  0.00    +0.439 C 
ATOM     11  N   UNL     1       2.566   5.024  -5.243  0.00  0.00    -0.060 NA
ATOM     12  C   UNL     1       3.877   5.570  -5.019  0.00  0.00    +0.251 C 
ATOM     13  C   UNL     1       3.564   6.975  -4.559  0.00  0.00    +0.251 C 
ATOM     14  N   UNL     1       2.184   6.931  -4.087  0.00  0.00    -0.060 NA
ENDBRANCH   3   9
TORSDOF 1
ENDMDL
