MODEL 1
REMARK VINA RESULT:      -5.4      0.000      0.000
REMARK  Name = 
REMARK  3 active torsions:
REMARK  status: ('A' for Active; 'I' for Inactive)
REMARK    1  A    between atoms: N_2  and  C_3
REMARK    2  A    between atoms: C_3  and  C_5
REMARK    3  A    between atoms: C_5  and  C_7
REMARK                            x       y       z     vdW  Elec       q    Type
REMARK                         _______ _______ _______ _____ _____    ______ ____
ROOT
ATOM      1  C   UNL     1       4.381   5.113  -9.123  0.00  0.00    +0.190 C 
ATOM      2  O   UNL     1       5.534   4.692  -8.226  0.00  0.00    -0.217 OA
ENDROOT
BRANCH   1   3
ATOM      3  C   UNL     1       5.278   6.221  -9.829  0.00  0.00    +0.009 A 
ATOM      4  C   UNL     1       6.590   5.767  -9.638  0.00  0.00    -0.002 A 
ATOM      5  C   UNL     1       7.636   6.448 -10.262  0.00  0.00    -0.000 A 
ATOM      6  C   UNL     1       7.306   7.688 -10.799  0.00  0.00    -0.000 A 
ATOM      7  C   UNL     1       6.022   7.841 -11.303  0.00  0.00    -0.000 A 
ATOM      8  C   UNL     1       5.104   6.939 -10.876  0.00  0.00    -0.002 A 
ENDBRANCH   1   3
BRANCH   1   9
ATOM      9  C   UNL     1       3.693   6.053  -7.850  0.00  0.00    +0.107 C 
ATOM     10  C   UNL     1       2.897   4.805  -7.168  0.00  0.00    +0.022 C 
BRANCH   9  12
ATOM     11  C   UNL     1       2.061   7.658  -7.771  0.00  0.00    +0.108 C 
ATOM     12  N   UNL     1       2.470   6.611  -8.643  0.00  0.00    -0.215 NA
ENDBRANCH   9  12
ENDBRANCH   1   9
TORSDOF 3
ENDMDL
MODEL 2
REMARK VINA RESULT:      -5.4      2.542      4.746
REMARK  Name = 
REMARK  3 active torsions:
REMARK  status: ('A' for Active; 'I' for Inactive)
REMARK    1  A    between atoms: N_2  and  C_3
REMARK    2  A    between atoms: C_3  and  C_5
REMARK    3  A    between atoms: C_5  and  C_7
REMARK                            x       y       z     vdW  Elec       q    Type
REMARK                         _______ _______ _______ _____ _____    ______ ____
ROOT
ATOM      1  C   UNL     1       7.378   6.487 -10.584  0.00  0.00    +0.190 C 
ATOM      2  O   UNL     1       7.861   5.355  -9.692  0.00  0.00    -0.217 OA
ENDROOT
BRANCH   1   3
ATOM      3  C   UNL     1       5.861   6.202 -10.198  0.00  0.00    +0.009 A 
ATOM      4  C   UNL     1       5.944   5.523  -8.975  0.00  0.00    -0.002 A 
ATOM      5  C   UNL     1       4.768   5.240  -8.280  0.00  0.00    -0.000 A 
ATOM      6  C   UNL     1       3.591   5.416  -8.999  0.00  0.00    -0.000 A 
ATOM      7  C   UNL     1       3.572   6.428  -9.950  0.00  0.00    -0.000 A 
ATOM      8  C   UNL     1       4.782   6.873 -10.368  0.00  0.00    -0.002 A 
ENDBRANCH   1   3
BRANCH   1   9
ATOM      9  C   UNL     1       7.521   5.488 -11.983  0.00  0.00    +0.107 C 
ATOM     10  C   UNL     1       9.104   5.800 -12.217  0.00  0.00    +0.022 C 
BRANCH   9  12
ATOM     11  C   UNL     1       6.649   5.644 -14.095  0.00  0.00    +0.108 C 
ATOM     12  N   UNL     1       6.995   6.521 -13.029  0.00  0.00    -0.215 NA
ENDBRANCH   9  12
ENDBRANCH   1   9
TORSDOF 3
ENDMDL
MODEL 3
REMARK VINA RESULT:      -5.2      8.461     10.115
REMARK  Name = 
REMARK  3 active torsions:
REMARK  status: ('A' for Active; 'I' for Inactive)
REMARK    1  A    between atoms: N_2  and  C_3
REMARK    2  A    between atoms: C_3  and  C_5
REMARK    3  A    between atoms: C_5  and  C_7
REMARK                            x       y       z     vdW  Elec       q    Type
REMARK                         _______ _______ _______ _____ _____    ______ ____
ROOT
ATOM      1  C   UNL     1      -2.744   6.652  -1.416  0.00  0.00    +0.190 C 
ATOM      2  O   UNL     1      -2.512   5.153  -1.523  0.00  0.00    -0.217 OA
ENDROOT
BRANCH   1   3
ATOM      3  C   UNL     1      -2.204   6.884  -2.895  0.00  0.00    +0.009 A 
ATOM      4  C   UNL     1      -2.589   5.725  -3.582  0.00  0.00    -0.002 A 
ATOM      5  C   UNL     1      -2.387   5.662  -4.961  0.00  0.00    -0.000 A 
ATOM      6  C   UNL     1      -1.566   6.650  -5.492  0.00  0.00    -0.000 A 
ATOM      7  C   UNL     1      -1.598   7.898  -4.884  0.00  0.00    -0.000 A 
ATOM      8  C   UNL     1      -2.098   7.933  -3.624  0.00  0.00    -0.002 A 
ENDBRANCH   1   3
BRANCH   1   9
ATOM      9  C   UNL     1      -1.276   6.847  -0.529  0.00  0.00    +0.107 C 
ATOM     10  C   UNL     1      -1.926   6.437   0.908  0.00  0.00    +0.022 C 
BRANCH   9  12
ATOM     11  C   UNL     1      -0.497   8.542   0.799  0.00  0.00    +0.108 C 
ATOM     12  N   UNL     1      -1.367   8.390  -0.316  0.00  0.00    -0.215 NA
ENDBRANCH   9  12
ENDBRANCH   1   9
TORSDOF 3
ENDMDL
MODEL 4
REMARK VINA RESULT:      -5.2      1.750      2.421
REMARK  Name = 
REMARK  3 active torsions:
REMARK  status: ('A' for Active; 'I' for Inactive)
REMARK    1  A    between atoms: N_2  and  C_3
REMARK    2  A    between atoms: C_3  and  C_5
REMARK    3  A    between atoms: C_5  and  C_7
REMARK                            x       y       z     vdW  Elec       q    Type
REMARK                         _______ _______ _______ _____ _____    ______ ____
ROOT
ATOM      1  C   UNL     1       3.735   6.421  -9.663  0.00  0.00    +0.190 C 
ATOM      2  O   UNL     1       3.333   6.298 -11.124  0.00  0.00    -0.217 OA
ENDROOT
BRANCH   1   3
ATOM      3  C   UNL     1       5.274   6.254 -10.027  0.00  0.00    +0.009 A 
ATOM      4  C   UNL     1       5.542   7.336 -10.876  0.00  0.00    -0.002 A 
ATOM      5  C   UNL     1       6.858   7.569 -11.276  0.00  0.00    -0.000 A 
ATOM      6  C   UNL     1       7.753   6.537 -11.018  0.00  0.00    -0.000 A 
ATOM      7  C   UNL     1       7.532   5.774  -9.879  0.00  0.00    -0.000 A 
ATOM      8  C   UNL     1       6.283   5.833  -9.357  0.00  0.00    -0.002 A 
ENDBRANCH   1   3
BRANCH   1   9
ATOM      9  C   UNL     1       3.315   4.772  -9.376  0.00  0.00    +0.107 C 
ATOM     10  C   UNL     1       1.706   5.029  -9.407  0.00  0.00    +0.022 C 
BRANCH   9  12
ATOM     11  C   UNL     1       2.321   4.010  -7.459  0.00  0.00    +0.108 C 
ATOM     12  N   UNL     1       3.454   4.791  -7.821  0.00  0.00    -0.215 NA
ENDBRANCH   9  12
ENDBRANCH   1   9
TORSDOF 3
ENDMDL
MODEL 5
REMARK VINA RESULT:      -5.1      6.958      8.765
REMARK  Name = 
REMARK  3 active torsions:
REMARK  status: ('A' for Active; 'I' for Inactive)
REMARK    1  A    between atoms: N_2  and  C_3
REMARK    2  A    between atoms: C_3  and  C_5
REMARK    3  A    between atoms: C_5  and  C_7
REMARK                            x       y       z     vdW  Elec       q    Type
REMARK                         _______ _______ _______ _____ _____    ______ ____
ROOT
ATOM      1  C   UNL     1      -1.784   7.143  -3.120  0.00  0.00    +0.190 C 
ATOM      2  O   UNL     1      -3.187   6.586  -3.298  0.00  0.00    -0.217 OA
ENDROOT
BRANCH   1   3
ATOM      3  C   UNL     1      -1.299   6.471  -4.478  0.00  0.00    +0.009 A 
ATOM      4  C   UNL     1      -2.489   6.192  -5.163  0.00  0.00    -0.002 A 
ATOM      5  C   UNL     1      -2.418   5.716  -6.473  0.00  0.00    -0.000 A 
ATOM      6  C   UNL     1      -1.159   5.298  -6.889  0.00  0.00    -0.000 A 
ATOM      7  C   UNL     1      -0.061   5.968  -6.366  0.00  0.00    -0.000 A 
ATOM      8  C   UNL     1      -0.280   6.674  -5.230  0.00  0.00    -0.002 A 
ENDBRANCH   1   3
BRANCH   1   9
ATOM      9  C   UNL     1      -1.391   5.883  -2.008  0.00  0.00    +0.107 C 
ATOM     10  C   UNL     1      -1.964   6.667  -0.699  0.00  0.00    +0.022 C 
BRANCH   9  12
ATOM     11  C   UNL     1       0.645   4.990  -1.457  0.00  0.00    +0.108 C 
ATOM     12  N   UNL     1       0.106   6.266  -1.784  0.00  0.00    -0.215 NA
ENDBRANCH   9  12
ENDBRANCH   1   9
TORSDOF 3
ENDMDL
MODEL 6
REMARK VINA RESULT:      -5.1      3.801      7.002
REMARK  Name = 
REMARK  3 active torsions:
REMARK  status: ('A' for Active; 'I' for Inactive)
REMARK    1  A    between atoms: N_2  and  C_3
REMARK    2  A    between atoms: C_3  and  C_5
REMARK    3  A    between atoms: C_5  and  C_7
REMARK                            x       y       z     vdW  Elec       q    Type
REMARK                         _______ _______ _______ _____ _____    ______ ____
ROOT
ATOM      1  C   UNL     1       1.388   6.665  -6.643  0.00  0.00    +0.190 C 
ATOM      2  O   UNL     1       1.830   6.776  -5.193  0.00  0.00    -0.217 OA
ENDROOT
BRANCH   1   3
ATOM      3  C   UNL     1      -0.071   6.202  -6.209  0.00  0.00    +0.009 A 
ATOM      4  C   UNL     1      -0.412   7.084  -5.174  0.00  0.00    -0.002 A 
ATOM      5  C   UNL     1      -1.705   7.042  -4.652  0.00  0.00    -0.000 A 
ATOM      6  C   UNL     1      -2.462   5.935  -5.018  0.00  0.00    -0.000 A 
ATOM      7  C   UNL     1      -2.240   5.402  -6.281  0.00  0.00    -0.000 A 
ATOM      8  C   UNL     1      -1.066   5.738  -6.870  0.00  0.00    -0.002 A 
ENDBRANCH   1   3
BRANCH   1   9
ATOM      9  C   UNL     1       2.156   5.127  -6.792  0.00  0.00    +0.107 C 
ATOM     10  C   UNL     1       3.658   5.736  -6.961  0.00  0.00    +0.022 C 
BRANCH   9  12
ATOM     11  C   UNL     1       2.748   3.801  -8.563  0.00  0.00    +0.108 C 
ATOM     12  N   UNL     1       1.895   4.912  -8.317  0.00  0.00    -0.215 NA
ENDBRANCH   9  12
ENDBRANCH   1   9
TORSDOF 3
ENDMDL
MODEL 7
REMARK VINA RESULT:      -5.1      4.209      7.207
REMARK  Name = 
REMARK  3 active torsions:
REMARK  status: ('A' for Active; 'I' for Inactive)
REMARK    1  A    between atoms: N_2  and  C_3
REMARK    2  A    between atoms: C_3  and  C_5
REMARK    3  A    between atoms: C_5  and  C_7
REMARK                            x       y       z     vdW  Elec       q    Type
REMARK                         _______ _______ _______ _____ _____    ______ ____
ROOT
ATOM      1  C   UNL     1       1.232   5.251  -5.695  0.00  0.00    +0.190 C 
ATOM      2  O   UNL     1       0.887   5.028  -7.158  0.00  0.00    -0.217 OA
ENDROOT
BRANCH   1   3
ATOM      3  C   UNL     1      -0.111   6.069  -5.457  0.00  0.00    +0.009 A 
ATOM      4  C   UNL     1      -1.032   5.469  -6.327  0.00  0.00    -0.002 A 
ATOM      5  C   UNL     1      -2.368   5.865  -6.270  0.00  0.00    -0.000 A 
ATOM      6  C   UNL     1      -2.620   7.021  -5.540  0.00  0.00    -0.000 A 
ATOM      7  C   UNL     1      -1.808   7.269  -4.441  0.00  0.00    -0.000 A 
ATOM      8  C   UNL     1      -0.627   6.604  -4.412  0.00  0.00    -0.002 A 
ENDBRANCH   1   3
BRANCH   1   9
ATOM      9  C   UNL     1       2.298   6.542  -6.110  0.00  0.00    +0.107 C 
ATOM     10  C   UNL     1       3.536   5.571  -6.538  0.00  0.00    +0.022 C 
BRANCH   9  12
ATOM     11  C   UNL     1       4.161   7.229  -4.968  0.00  0.00    +0.108 C 
ATOM     12  N   UNL     1       2.822   6.850  -4.672  0.00  0.00    -0.215 NA
ENDBRANCH   9  12
ENDBRANCH   1   9
TORSDOF 3
ENDMDL
MODEL 8
REMARK VINA RESULT:      -5.0      3.709      6.874
REMARK  Name = 
REMARK  3 active torsions:
REMARK  status: ('A' for Active; 'I' for Inactive)
REMARK    1  A    between atoms: N_2  and  C_3
REMARK    2  A    between atoms: C_3  and  C_5
REMARK    3  A    between atoms: C_5  and  C_7
REMARK                            x       y       z     vdW  Elec       q    Type
REMARK                         _______ _______ _______ _____ _____    ______ ____
ROOT
ATOM      1  C   UNL     1       1.588   6.653  -4.968  0.00  0.00    +0.190 C 
ATOM      2  O   UNL     1       1.893   5.284  -4.381  0.00  0.00    -0.217 OA
ENDROOT
BRANCH   1   3
ATOM      3  C   UNL     1       0.165   6.163  -5.484  0.00  0.00    +0.009 A 
ATOM      4  C   UNL     1      -0.735   7.071  -4.909  0.00  0.00    -0.002 A 
ATOM      5  C   UNL     1      -2.080   7.009  -5.274  0.00  0.00    -0.000 A 
ATOM      6  C   UNL     1      -2.459   5.867  -5.972  0.00  0.00    -0.000 A 
ATOM      7  C   UNL     1      -1.516   5.297  -6.816  0.00  0.00    -0.000 A 
ATOM      8  C   UNL     1      -0.226   5.646  -6.590  0.00  0.00    -0.002 A 
ENDBRANCH   1   3
BRANCH   1   9
ATOM      9  C   UNL     1       2.545   6.304  -6.360  0.00  0.00    +0.107 C 
ATOM     10  C   UNL     1       3.966   6.659  -5.646  0.00  0.00    +0.022 C 
BRANCH   9  12
ATOM     11  C   UNL     1       2.652   7.299  -8.421  0.00  0.00    +0.108 C 
ATOM     12  N   UNL     1       2.376   7.680  -7.078  0.00  0.00    -0.215 NA
ENDBRANCH   9  12
ENDBRANCH   1   9
TORSDOF 3
ENDMDL
MODEL 9
REMARK VINA RESULT:      -4.9      5.714      7.448
REMARK  Name = 
REMARK  3 active torsions:
REMARK  status: ('A' for Active; 'I' for Inactive)
REMARK    1  A    between atoms: N_2  and  C_3
REMARK    2  A    between atoms: C_3  and  C_5
REMARK    3  A    between atoms: C_5  and  C_7
REMARK                            x       y       z     vdW  Elec       q    Type
REMARK                         _______ _______ _______ _____ _____    ______ ____
ROOT
ATOM      1  C   UNL     1       1.173   6.669  -4.382  0.00  0.00    +0.190 C 
ATOM      2  O   UNL     1       0.366   6.487  -3.106  0.00  0.00    -0.217 OA
ENDROOT
BRANCH   1   3
ATOM      3  C   UNL     1      -0.021   6.106  -5.269  0.00  0.00    +0.009 A 
ATOM      4  C   UNL     1      -1.152   6.771  -4.776  0.00  0.00    -0.002 A 
ATOM      5  C   UNL     1      -2.371   6.606  -5.436  0.00  0.00    -0.000 A 
ATOM      6  C   UNL     1      -2.413   5.575  -6.367  0.00  0.00    -0.000 A 
ATOM      7  C   UNL     1      -1.242   5.295  -7.059  0.00  0.00    -0.000 A 
ATOM      8  C   UNL     1      -0.096   5.757  -6.500  0.00  0.00    -0.002 A 
ENDBRANCH   1   3
BRANCH   1   9
ATOM      9  C   UNL     1       2.037   5.206  -4.082  0.00  0.00    +0.107 C 
ATOM     10  C   UNL     1       2.956   5.827  -2.888  0.00  0.00    +0.022 C 
BRANCH   9  12
ATOM     11  C   UNL     1       4.240   4.799  -4.559  0.00  0.00    +0.108 C 
ATOM     12  N   UNL     1       3.106   5.362  -5.208  0.00  0.00    -0.215 NA
ENDBRANCH   9  12
ENDBRANCH   1   9
TORSDOF 3
ENDMDL
