MODEL 1
REMARK VINA RESULT:      -7.3      0.000      0.000
REMARK  Name = 
REMARK  3 active torsions:
REMARK  status: ('A' for Active; 'I' for Inactive)
REMARK    1  A    between atoms: O_2  and  C_3
REMARK    2  A    between atoms: C_5  and  O_6
REMARK    3  A    between atoms: C_16  and  O_17
REMARK                            x       y       z     vdW  Elec       q    Type
REMARK                         _______ _______ _______ _____ _____    ______ ____
ROOT
ATOM      1  C   UNL     1       0.763   5.258  -3.341  0.00  0.00    +0.148 A 
ATOM      2  C   UNL     1       0.647   5.601  -4.683  0.00  0.00    +0.107 A 
ATOM      3  C   UNL     1       1.181   5.068  -5.946  0.00  0.00    +0.222 C 
ATOM      4  C   UNL     1       1.412   6.265  -6.760  0.00  0.00    +0.237 C 
ATOM      5  C   UNL     1       0.906   5.951  -8.293  0.00  0.00    +0.059 C 
ATOM      6  C   UNL     1      -0.499   5.258  -7.765  0.00  0.00    +0.005 C 
ATOM      7  C   UNL     1       1.694   4.500  -8.337  0.00  0.00    +0.074 C 
ATOM      8  C   UNL     1       3.129   4.896  -8.517  0.00  0.00    +0.176 C 
ATOM      9  O   UNL     1       3.898   3.921  -8.744  0.00  0.00    -0.291 OA
ATOM     10  C   UNL     1       3.618   5.872  -7.549  0.00  0.00    +0.074 C 
ATOM     11  C   UNL     1       2.796   6.691  -6.893  0.00  0.00    +0.162 C 
ATOM     12  O   UNL     1       0.520   7.223  -6.260  0.00  0.00    -0.467 OA
ATOM     13  O   UNL     1       1.806   3.963  -5.892  0.00  0.00    -0.287 OA
ATOM     14  C   UNL     1      -0.041   6.744  -5.073  0.00  0.00    +0.159 A 
ATOM     15  C   UNL     1      -1.010   7.199  -4.189  0.00  0.00    +0.126 A 
ATOM     16 CL   UNL     1      -1.843   8.705  -4.525  0.00  0.00    -0.076 Cl
ATOM     17  C   UNL     1      -1.172   6.612  -2.939  0.00  0.00    +0.155 A 
ATOM     18  C   UNL     1      -0.177   5.767  -2.458  0.00  0.00    +0.075 A 
ENDROOT
BRANCH   1  20
ATOM     19  C   UNL     1       2.951   5.102  -2.264  0.00  0.00    +0.252 C 
ATOM     20  O   UNL     1       1.925   4.626  -2.937  0.00  0.00    -0.471 OA
ENDBRANCH   1  20
BRANCH  11  21
ATOM     21  O   UNL     1       3.370   7.710  -6.128  0.00  0.00    -0.472 OA
ATOM     22  C   UNL     1       4.084   7.355  -4.959  0.00  0.00    +0.252 C 
ENDBRANCH  11  21
BRANCH  17  23
ATOM     23  O   UNL     1      -2.442   6.661  -2.364  0.00  0.00    -0.470 OA
ATOM     24  C   UNL     1      -3.467   5.853  -2.918  0.00  0.00    +0.253 C 
ENDBRANCH  17  23
TORSDOF 3
ENDMDL
MODEL 2
REMARK VINA RESULT:      -6.1      2.959      5.583
REMARK  Name = 
REMARK  3 active torsions:
REMARK  status: ('A' for Active; 'I' for Inactive)
REMARK    1  A    between atoms: O_2  and  C_3
REMARK    2  A    between atoms: C_5  and  O_6
REMARK    3  A    between atoms: C_16  and  O_17
REMARK                            x       y       z     vdW  Elec       q    Type
REMARK                         _______ _______ _______ _____ _____    ______ ____
ROOT
ATOM      1  C   UNL     1      -0.083   6.419  -2.424  0.00  0.00    +0.148 A 
ATOM      2  C   UNL     1       1.304   6.397  -2.518  0.00  0.00    +0.107 A 
ATOM      3  C   UNL     1       2.409   6.149  -1.579  0.00  0.00    +0.222 C 
ATOM      4  C   UNL     1       3.458   7.071  -2.023  0.00  0.00    +0.237 C 
ATOM      5  C   UNL     1       4.897   6.276  -1.974  0.00  0.00    +0.059 C 
ATOM      6  C   UNL     1       4.262   4.932  -2.698  0.00  0.00    +0.005 C 
ATOM      7  C   UNL     1       4.607   5.689  -0.458  0.00  0.00    +0.074 C 
ATOM      8  C   UNL     1       4.838   6.883   0.420  0.00  0.00    +0.176 C 
ATOM      9  O   UNL     1       4.831   6.613   1.653  0.00  0.00    -0.291 OA
ATOM     10  C   UNL     1       4.095   8.077   0.033  0.00  0.00    +0.074 C 
ATOM     11  C   UNL     1       3.651   8.261  -1.211  0.00  0.00    +0.162 C 
ATOM     12  O   UNL     1       3.198   7.290  -3.383  0.00  0.00    -0.467 OA
ATOM     13  O   UNL     1       2.102   5.732  -0.419  0.00  0.00    -0.287 OA
ATOM     14  C   UNL     1       1.947   6.751  -3.698  0.00  0.00    +0.159 A 
ATOM     15  C   UNL     1       1.204   6.602  -4.861  0.00  0.00    +0.126 A 
ATOM     16 CL   UNL     1       1.878   7.144  -6.387  0.00  0.00    -0.076 Cl
ATOM     17  C   UNL     1      -0.139   6.249  -4.813  0.00  0.00    +0.155 A 
ATOM     18  C   UNL     1      -0.813   6.331  -3.599  0.00  0.00    +0.075 A 
ENDROOT
BRANCH   1  20
ATOM     19  C   UNL     1      -1.773   7.368  -0.937  0.00  0.00    +0.252 C 
ATOM     20  O   UNL     1      -0.640   6.756  -1.204  0.00  0.00    -0.471 OA
ENDBRANCH   1  20
BRANCH  11  21
ATOM     21  O   UNL     1       3.113   9.512  -1.528  0.00  0.00    -0.472 OA
ATOM     22  C   UNL     1       3.483  10.626  -0.738  0.00  0.00    +0.252 C 
ENDBRANCH  11  21
BRANCH  17  23
ATOM     23  O   UNL     1      -0.661   5.555  -5.905  0.00  0.00    -0.470 OA
ATOM     24  C   UNL     1      -2.052   5.652  -6.166  0.00  0.00    +0.253 C 
ENDBRANCH  17  23
TORSDOF 3
ENDMDL
MODEL 3
REMARK VINA RESULT:      -5.5      2.493      5.609
REMARK  Name = 
REMARK  3 active torsions:
REMARK  status: ('A' for Active; 'I' for Inactive)
REMARK    1  A    between atoms: O_2  and  C_3
REMARK    2  A    between atoms: C_5  and  O_6
REMARK    3  A    between atoms: C_16  and  O_17
REMARK                            x       y       z     vdW  Elec       q    Type
REMARK                         _______ _______ _______ _____ _____    ______ ____
ROOT
ATOM      1  C   UNL     1       1.855   7.334  -8.045  0.00  0.00    +0.148 A 
ATOM      2  C   UNL     1       0.787   6.649  -7.478  0.00  0.00    +0.107 A 
ATOM      3  C   UNL     1       0.065   6.718  -6.197  0.00  0.00    +0.222 C 
ATOM      4  C   UNL     1      -0.267   5.320  -5.909  0.00  0.00    +0.237 C 
ATOM      5  C   UNL     1      -1.811   5.263  -5.344  0.00  0.00    +0.059 C 
ATOM      6  C   UNL     1      -2.358   6.282  -6.525  0.00  0.00    +0.005 C 
ATOM      7  C   UNL     1      -1.550   6.506  -4.287  0.00  0.00    +0.074 C 
ATOM      8  C   UNL     1      -0.754   5.861  -3.192  0.00  0.00    +0.176 C 
ATOM      9  O   UNL     1      -0.584   6.604  -2.186  0.00  0.00    -0.291 OA
ATOM     10  C   UNL     1       0.428   5.134  -3.645  0.00  0.00    +0.074 C 
ATOM     11  C   UNL     1       0.538   4.668  -4.889  0.00  0.00    +0.162 C 
ATOM     12  O   UNL     1      -0.303   4.689  -7.159  0.00  0.00    -0.467 OA
ATOM     13  O   UNL     1       0.347   7.685  -5.423  0.00  0.00    -0.287 OA
ATOM     14  C   UNL     1       0.210   5.562  -8.123  0.00  0.00    +0.159 A 
ATOM     15  C   UNL     1       0.359   5.527  -9.503  0.00  0.00    +0.126 A 
ATOM     16 CL   UNL     1      -0.218   4.132 -10.396  0.00  0.00    -0.076 Cl
ATOM     17  C   UNL     1       1.153   6.459 -10.161  0.00  0.00    +0.155 A 
ATOM     18  C   UNL     1       2.028   7.243  -9.417  0.00  0.00    +0.075 A 
ENDROOT
BRANCH   1  20
ATOM     19  C   UNL     1       3.595   7.268  -6.331  0.00  0.00    +0.252 C 
ATOM     20  O   UNL     1       2.802   7.870  -7.191  0.00  0.00    -0.471 OA
ENDBRANCH   1  20
BRANCH  11  21
ATOM     21  O   UNL     1       1.620   3.830  -5.173  0.00  0.00    -0.472 OA
ATOM     22  C   UNL     1       2.920   4.388  -5.184  0.00  0.00    +0.252 C 
ENDBRANCH  11  21
BRANCH  17  23
ATOM     23  O   UNL     1       0.822   6.768 -11.481  0.00  0.00    -0.470 OA
ATOM     24  C   UNL     1      -0.376   7.485 -11.729  0.00  0.00    +0.253 C 
ENDBRANCH  17  23
TORSDOF 3
ENDMDL
MODEL 4
REMARK VINA RESULT:      -5.3      2.232      5.721
REMARK  Name = 
REMARK  3 active torsions:
REMARK  status: ('A' for Active; 'I' for Inactive)
REMARK    1  A    between atoms: O_2  and  C_3
REMARK    2  A    between atoms: C_5  and  O_6
REMARK    3  A    between atoms: C_16  and  O_17
REMARK                            x       y       z     vdW  Elec       q    Type
REMARK                         _______ _______ _______ _____ _____    ______ ____
ROOT
ATOM      1  C   UNL     1       2.688   7.177  -4.452  0.00  0.00    +0.148 A 
ATOM      2  C   UNL     1       1.461   6.537  -4.580  0.00  0.00    +0.107 A 
ATOM      3  C   UNL     1       0.097   6.787  -4.087  0.00  0.00    +0.222 C 
ATOM      4  C   UNL     1      -0.432   5.446  -3.829  0.00  0.00    +0.237 C 
ATOM      5  C   UNL     1      -1.984   5.391  -4.373  0.00  0.00    +0.059 C 
ATOM      6  C   UNL     1      -1.590   6.143  -5.792  0.00  0.00    +0.005 C 
ATOM      7  C   UNL     1      -2.372   6.818  -3.637  0.00  0.00    +0.074 C 
ATOM      8  C   UNL     1      -2.495   6.434  -2.192  0.00  0.00    +0.176 C 
ATOM      9  O   UNL     1      -2.954   7.356  -1.462  0.00  0.00    -0.291 OA
ATOM     10  C   UNL     1      -1.345   5.717  -1.652  0.00  0.00    +0.074 C 
ATOM     11  C   UNL     1      -0.502   5.042  -2.434  0.00  0.00    +0.162 C 
ATOM     12  O   UNL     1       0.292   4.599  -4.678  0.00  0.00    -0.467 OA
ATOM     13  O   UNL     1      -0.114   7.895  -3.500  0.00  0.00    -0.287 OA
ATOM     14  C   UNL     1       1.355   5.315  -5.234  0.00  0.00    +0.159 A 
ATOM     15  C   UNL     1       2.343   5.043  -6.171  0.00  0.00    +0.126 A 
ATOM     16 CL   UNL     1       2.374   3.475  -6.957  0.00  0.00    -0.076 Cl
ATOM     17  C   UNL     1       3.432   5.890  -6.331  0.00  0.00    +0.155 A 
ATOM     18  C   UNL     1       3.686   6.851  -5.358  0.00  0.00    +0.075 A 
ENDROOT
BRANCH   1  20
ATOM     19  C   UNL     1       3.873   7.820  -2.415  0.00  0.00    +0.252 C 
ATOM     20  O   UNL     1       2.911   7.918  -3.306  0.00  0.00    -0.471 OA
ENDBRANCH   1  20
BRANCH  11  21
ATOM     21  O   UNL     1       0.458   4.240  -1.811  0.00  0.00    -0.472 OA
ATOM     22  C   UNL     1       1.542   4.870  -1.155  0.00  0.00    +0.252 C 
ENDBRANCH  11  21
BRANCH  17  23
ATOM     23  O   UNL     1       4.035   5.934  -7.588  0.00  0.00    -0.470 OA
ATOM     24  C   UNL     1       3.313   6.508  -8.666  0.00  0.00    +0.253 C 
ENDBRANCH  17  23
TORSDOF 3
ENDMDL
MODEL 5
REMARK VINA RESULT:      -5.2      2.487      5.050
REMARK  Name = 
REMARK  3 active torsions:
REMARK  status: ('A' for Active; 'I' for Inactive)
REMARK    1  A    between atoms: O_2  and  C_3
REMARK    2  A    between atoms: C_5  and  O_6
REMARK    3  A    between atoms: C_16  and  O_17
REMARK                            x       y       z     vdW  Elec       q    Type
REMARK                         _______ _______ _______ _____ _____    ______ ____
ROOT
ATOM      1  C   UNL     1       0.045   6.332  -3.806  0.00  0.00    +0.148 A 
ATOM      2  C   UNL     1       1.432   6.248  -3.855  0.00  0.00    +0.107 A 
ATOM      3  C   UNL     1       2.480   5.756  -2.948  0.00  0.00    +0.222 C 
ATOM      4  C   UNL     1       3.593   6.685  -3.165  0.00  0.00    +0.237 C 
ATOM      5  C   UNL     1       4.987   5.813  -3.226  0.00  0.00    +0.059 C 
ATOM      6  C   UNL     1       4.317   4.677  -4.223  0.00  0.00    +0.005 C 
ATOM      7  C   UNL     1       4.600   4.958  -1.867  0.00  0.00    +0.074 C 
ATOM      8  C   UNL     1       4.852   5.940  -0.762  0.00  0.00    +0.176 C 
ATOM      9  O   UNL     1       4.776   5.434   0.391  0.00  0.00    -0.291 OA
ATOM     10  C   UNL     1       4.188   7.229  -0.930  0.00  0.00    +0.074 C 
ATOM     11  C   UNL     1       3.809   7.679  -2.126  0.00  0.00    +0.162 C 
ATOM     12  O   UNL     1       3.405   7.182  -4.461  0.00  0.00    -0.467 OA
ATOM     13  O   UNL     1       2.101   5.137  -1.904  0.00  0.00    -0.287 OA
ATOM     14  C   UNL     1       2.144   6.789  -4.919  0.00  0.00    +0.159 A 
ATOM     15  C   UNL     1       1.447   6.915  -6.113  0.00  0.00    +0.126 A 
ATOM     16 CL   UNL     1       2.215   7.706  -7.478  0.00  0.00    -0.076 Cl
ATOM     17  C   UNL     1       0.087   6.638  -6.182  0.00  0.00    +0.155 A 
ATOM     18  C   UNL     1      -0.636   6.519  -5.000  0.00  0.00    +0.075 A 
ENDROOT
BRANCH   1  20
ATOM     19  C   UNL     1      -1.655   5.912  -2.102  0.00  0.00    +0.252 C 
ATOM     20  O   UNL     1      -0.548   6.454  -2.563  0.00  0.00    -0.471 OA
ENDBRANCH   1  20
BRANCH  11  21
ATOM     21  O   UNL     1       3.350   8.996  -2.207  0.00  0.00    -0.472 OA
ATOM     22  C   UNL     1       3.546   9.849  -1.094  0.00  0.00    +0.252 C 
ENDBRANCH  11  21
BRANCH  17  23
ATOM     23  O   UNL     1      -0.421   6.204  -7.406  0.00  0.00    -0.470 OA
ATOM     24  C   UNL     1       0.211   5.110  -8.051  0.00  0.00    +0.253 C 
ENDBRANCH  17  23
TORSDOF 3
ENDMDL
MODEL 6
REMARK VINA RESULT:      -5.1      3.807      7.805
REMARK  Name = 
REMARK  3 active torsions:
REMARK  status: ('A' for Active; 'I' for Inactive)
REMARK    1  A    between atoms: O_2  and  C_3
REMARK    2  A    between atoms: C_5  and  O_6
REMARK    3  A    between atoms: C_16  and  O_17
REMARK                            x       y       z     vdW  Elec       q    Type
REMARK                         _______ _______ _______ _____ _____    ______ ____
ROOT
ATOM      1  C   UNL     1       3.371   5.021 -12.013  0.00  0.00    +0.148 A 
ATOM      2  C   UNL     1       3.693   5.375 -10.708  0.00  0.00    +0.107 A 
ATOM      3  C   UNL     1       3.326   4.879  -9.372  0.00  0.00    +0.222 C 
ATOM      4  C   UNL     1       3.261   6.094  -8.555  0.00  0.00    +0.237 C 
ATOM      5  C   UNL     1       3.971   5.778  -7.105  0.00  0.00    +0.059 C 
ATOM      6  C   UNL     1       5.258   5.022  -7.817  0.00  0.00    +0.005 C 
ATOM      7  C   UNL     1       3.143   4.360  -6.924  0.00  0.00    +0.074 C 
ATOM      8  C   UNL     1       1.765   4.816  -6.545  0.00  0.00    +0.176 C 
ATOM      9  O   UNL     1       1.000   3.875  -6.194  0.00  0.00    -0.291 OA
ATOM     10  C   UNL     1       1.178   5.799  -7.450  0.00  0.00    +0.074 C 
ATOM     11  C   UNL     1       1.928   6.576  -8.231  0.00  0.00    +0.162 C 
ATOM     12  O   UNL     1       4.108   7.009  -9.194  0.00  0.00    -0.467 OA
ATOM     13  O   UNL     1       2.659   3.799  -9.317  0.00  0.00    -0.287 OA
ATOM     14  C   UNL     1       4.473   6.494 -10.441  0.00  0.00    +0.159 A 
ATOM     15  C   UNL     1       5.321   6.899 -11.463  0.00  0.00    +0.126 A 
ATOM     16 CL   UNL     1       6.250   8.374 -11.276  0.00  0.00    -0.076 Cl
ATOM     17  C   UNL     1       5.278   6.292 -12.713  0.00  0.00    +0.155 A 
ATOM     18  C   UNL     1       4.193   5.482 -13.031  0.00  0.00    +0.075 A 
ENDROOT
BRANCH   1  20
ATOM     19  C   UNL     1       1.062   4.925 -12.806  0.00  0.00    +0.252 C 
ATOM     20  O   UNL     1       2.140   4.432 -12.236  0.00  0.00    -0.471 OA
ENDBRANCH   1  20
BRANCH  11  21
ATOM     21  O   UNL     1       1.289   7.608  -8.923  0.00  0.00    -0.472 OA
ATOM     22  C   UNL     1       0.515   7.279 -10.061  0.00  0.00    +0.252 C 
ENDBRANCH  11  21
BRANCH  17  23
ATOM     23  O   UNL     1       6.453   6.283 -13.465  0.00  0.00    -0.470 OA
ATOM     24  C   UNL     1       7.497   5.403 -13.080  0.00  0.00    +0.253 C 
ENDBRANCH  17  23
TORSDOF 3
ENDMDL
MODEL 7
REMARK VINA RESULT:      -5.1      2.505      4.036
REMARK  Name = 
REMARK  3 active torsions:
REMARK  status: ('A' for Active; 'I' for Inactive)
REMARK    1  A    between atoms: O_2  and  C_3
REMARK    2  A    between atoms: C_5  and  O_6
REMARK    3  A    between atoms: C_16  and  O_17
REMARK                            x       y       z     vdW  Elec       q    Type
REMARK                         _______ _______ _______ _____ _____    ______ ____
ROOT
ATOM      1  C   UNL     1       1.110   6.270  -4.399  0.00  0.00    +0.148 A 
ATOM      2  C   UNL     1       1.731   6.521  -5.617  0.00  0.00    +0.107 A 
ATOM      3  C   UNL     1       1.290   6.581  -7.020  0.00  0.00    +0.222 C 
ATOM      4  C   UNL     1       2.427   6.033  -7.766  0.00  0.00    +0.237 C 
ATOM      5  C   UNL     1       2.658   6.958  -9.106  0.00  0.00    +0.059 C 
ATOM      6  C   UNL     1       2.505   8.365  -8.251  0.00  0.00    +0.005 C 
ATOM      7  C   UNL     1       1.052   6.931  -9.494  0.00  0.00    +0.074 C 
ATOM      8  C   UNL     1       0.859   5.552 -10.051  0.00  0.00    +0.176 C 
ATOM      9  O   UNL     1      -0.277   5.371 -10.569  0.00  0.00    -0.291 OA
ATOM     10  C   UNL     1       1.338   4.474  -9.191  0.00  0.00    +0.074 C 
ATOM     11  C   UNL     1       2.271   4.674  -8.260  0.00  0.00    +0.162 C 
ATOM     12  O   UNL     1       3.543   6.267  -6.953  0.00  0.00    -0.467 OA
ATOM     13  O   UNL     1       0.040   6.520  -7.239  0.00  0.00    -0.287 OA
ATOM     14  C   UNL     1       3.107   6.697  -5.696  0.00  0.00    +0.159 A 
ATOM     15  C   UNL     1       3.730   7.135  -4.535  0.00  0.00    +0.126 A 
ATOM     16 CL   UNL     1       5.478   7.262  -4.492  0.00  0.00    -0.076 Cl
ATOM     17  C   UNL     1       3.023   7.253  -3.344  0.00  0.00    +0.155 A 
ATOM     18  C   UNL     1       1.770   6.658  -3.243  0.00  0.00    +0.075 A 
ENDROOT
BRANCH   1  20
ATOM     19  C   UNL     1      -1.251   5.729  -4.081  0.00  0.00    +0.252 C 
ATOM     20  O   UNL     1      -0.006   5.453  -4.402  0.00  0.00    -0.471 OA
ENDBRANCH   1  20
BRANCH  11  21
ATOM     21  O   UNL     1       2.794   3.550  -7.615  0.00  0.00    -0.472 OA
ATOM     22  C   UNL     1       2.284   3.205  -6.341  0.00  0.00    +0.252 C 
ENDBRANCH  11  21
BRANCH  17  23
ATOM     23  O   UNL     1       3.467   8.202  -2.423  0.00  0.00    -0.470 OA
ATOM     24  C   UNL     1       3.876   7.760  -1.139  0.00  0.00    +0.253 C 
ENDBRANCH  17  23
TORSDOF 3
ENDMDL
MODEL 8
REMARK VINA RESULT:      -5.0      2.002      3.674
REMARK  Name = 
REMARK  3 active torsions:
REMARK  status: ('A' for Active; 'I' for Inactive)
REMARK    1  A    between atoms: O_2  and  C_3
REMARK    2  A    between atoms: C_5  and  O_6
REMARK    3  A    between atoms: C_16  and  O_17
REMARK                            x       y       z     vdW  Elec       q    Type
REMARK                         _______ _______ _______ _____ _____    ______ ____
ROOT
ATOM      1  C   UNL     1      -0.554   6.854  -4.211  0.00  0.00    +0.148 A 
ATOM      2  C   UNL     1       0.797   6.548  -4.317  0.00  0.00    +0.107 A 
ATOM      3  C   UNL     1       1.849   6.801  -5.314  0.00  0.00    +0.222 C 
ATOM      4  C   UNL     1       2.670   5.587  -5.271  0.00  0.00    +0.237 C 
ATOM      5  C   UNL     1       4.252   6.032  -5.327  0.00  0.00    +0.059 C 
ATOM      6  C   UNL     1       4.031   7.227  -4.206  0.00  0.00    +0.005 C 
ATOM      7  C   UNL     1       3.995   7.066  -6.590  0.00  0.00    +0.074 C 
ATOM      8  C   UNL     1       3.850   6.142  -7.763  0.00  0.00    +0.176 C 
ATOM      9  O   UNL     1       3.810   6.739  -8.874  0.00  0.00    -0.291 OA
ATOM     10  C   UNL     1       2.868   5.078  -7.584  0.00  0.00    +0.074 C 
ATOM     11  C   UNL     1       2.494   4.657  -6.375  0.00  0.00    +0.162 C 
ATOM     12  O   UNL     1       2.475   5.061  -3.987  0.00  0.00    -0.467 OA
ATOM     13  O   UNL     1       1.563   7.581  -6.275  0.00  0.00    -0.287 OA
ATOM     14  C   UNL     1       1.426   5.749  -3.370  0.00  0.00    +0.159 A 
ATOM     15  C   UNL     1       0.841   5.726  -2.111  0.00  0.00    +0.126 A 
ATOM     16 CL   UNL     1       1.481   4.649  -0.884  0.00  0.00    -0.076 Cl
ATOM     17  C   UNL     1      -0.372   6.362  -1.873  0.00  0.00    +0.155 A 
ATOM     18  C   UNL     1      -1.142   6.769  -2.958  0.00  0.00    +0.075 A 
ENDROOT
BRANCH   1  20
ATOM     19  C   UNL     1      -2.276   6.284  -5.848  0.00  0.00    +0.252 C 
ATOM     20  O   UNL     1      -1.275   6.999  -5.382  0.00  0.00    -0.471 OA
ENDBRANCH   1  20
BRANCH  11  21
ATOM     21  O   UNL     1       1.691   3.516  -6.307  0.00  0.00    -0.472 OA
ATOM     22  C   UNL     1       0.288   3.670  -6.418  0.00  0.00    +0.252 C 
ENDBRANCH  11  21
BRANCH  17  23
ATOM     23  O   UNL     1      -0.616   6.821  -0.579  0.00  0.00    -0.470 OA
ATOM     24  C   UNL     1      -1.680   7.735  -0.375  0.00  0.00    +0.253 C 
ENDBRANCH  17  23
TORSDOF 3
ENDMDL
MODEL 9
REMARK VINA RESULT:      -4.8      1.987      4.390
REMARK  Name = 
REMARK  3 active torsions:
REMARK  status: ('A' for Active; 'I' for Inactive)
REMARK    1  A    between atoms: O_2  and  C_3
REMARK    2  A    between atoms: C_5  and  O_6
REMARK    3  A    between atoms: C_16  and  O_17
REMARK                            x       y       z     vdW  Elec       q    Type
REMARK                         _______ _______ _______ _____ _____    ______ ____
ROOT
ATOM      1  C   UNL     1       0.485   7.087  -5.208  0.00  0.00    +0.148 A 
ATOM      2  C   UNL     1       1.373   6.879  -4.159  0.00  0.00    +0.107 A 
ATOM      3  C   UNL     1       2.785   7.205  -3.908  0.00  0.00    +0.222 C 
ATOM      4  C   UNL     1       3.279   6.054  -3.147  0.00  0.00    +0.237 C 
ATOM      5  C   UNL     1       4.232   6.612  -1.928  0.00  0.00    +0.059 C 
ATOM      6  C   UNL     1       3.145   7.791  -1.521  0.00  0.00    +0.005 C 
ATOM      7  C   UNL     1       5.063   7.621  -2.938  0.00  0.00    +0.074 C 
ATOM      8  C   UNL     1       5.966   6.687  -3.686  0.00  0.00    +0.176 C 
ATOM      9  O   UNL     1       6.819   7.277  -4.406  0.00  0.00    -0.291 OA
ATOM     10  C   UNL     1       5.289   5.555  -4.311  0.00  0.00    +0.074 C 
ATOM     11  C   UNL     1       4.109   5.111  -3.879  0.00  0.00    +0.162 C 
ATOM     12  O   UNL     1       2.146   5.518  -2.521  0.00  0.00    -0.467 OA
ATOM     13  O   UNL     1       3.365   7.960  -4.750  0.00  0.00    -0.287 OA
ATOM     14  C   UNL     1       1.005   6.130  -3.047  0.00  0.00    +0.159 A 
ATOM     15  C   UNL     1      -0.357   6.068  -2.782  0.00  0.00    +0.126 A 
ATOM     16 CL   UNL     1      -0.933   5.044  -1.481  0.00  0.00    -0.076 Cl
ATOM     17  C   UNL     1      -1.284   6.615  -3.661  0.00  0.00    +0.155 A 
ATOM     18  C   UNL     1      -0.871   6.963  -4.943  0.00  0.00    +0.075 A 
ENDROOT
BRANCH   1  20
ATOM     19  C   UNL     1       0.997   6.295  -7.462  0.00  0.00    +0.252 C 
ATOM     20  O   UNL     1       1.007   7.176  -6.485  0.00  0.00    -0.471 OA
ENDBRANCH   1  20
BRANCH  11  21
ATOM     21  O   UNL     1       3.630   3.915  -4.420  0.00  0.00    -0.472 OA
ATOM     22  C   UNL     1       2.950   3.959  -5.661  0.00  0.00    +0.252 C 
ENDBRANCH  11  21
BRANCH  17  23
ATOM     23  O   UNL     1      -2.493   7.058  -3.128  0.00  0.00    -0.470 OA
ATOM     24  C   UNL     1      -3.588   6.158  -3.092  0.00  0.00    +0.253 C 
ENDBRANCH  17  23
TORSDOF 3
ENDMDL
