MODEL 1
REMARK VINA RESULT:      -8.8      0.000      0.000
REMARK  Name = 
REMARK  5 active torsions:
REMARK  status: ('A' for Active; 'I' for Inactive)
REMARK    1  A    between atoms: C_8  and  O_9
REMARK    2  A    between atoms: O_9  and  C_10
REMARK    3  A    between atoms: C_10  and  C_12
REMARK    4  A    between atoms: C_12  and  C_14
REMARK    5  A    between atoms: C_12  and  C_20
REMARK                            x       y       z     vdW  Elec       q    Type
REMARK                         _______ _______ _______ _____ _____    ______ ____
ROOT
ATOM      1  C   UNL     1       1.342   6.148  -8.545  0.00  0.00    +0.252 C 
ATOM      2  O   UNL     1       1.695   7.507  -8.604  0.00  0.00    -0.205 OA
ENDROOT
BRANCH   1   3
ATOM      3  C   UNL     1       0.535   5.899  -9.783  0.00  0.00    +0.019 A 
ATOM      4  C   UNL     1       0.195   7.003 -10.552  0.00  0.00    -0.001 A 
ATOM      5  C   UNL     1       0.133   6.948 -11.939  0.00  0.00    -0.000 A 
ATOM      6  C   UNL     1       0.636   5.829 -12.593  0.00  0.00    -0.000 A 
ATOM      7  C   UNL     1       0.578   4.648 -11.862  0.00  0.00    -0.000 A 
ATOM      8  C   UNL     1       0.627   4.700 -10.475  0.00  0.00    -0.001 A 
ENDBRANCH   1   3
BRANCH   1   9
ATOM      9  C   UNL     1       0.465   5.987  -7.368  0.00  0.00    +0.019 A 
ATOM     10  C   UNL     1      -0.811   5.454  -7.507  0.00  0.00    -0.001 A 
ATOM     11  C   UNL     1      -1.676   5.358  -6.432  0.00  0.00    -0.000 A 
ATOM     12  C   UNL     1      -1.180   5.715  -5.190  0.00  0.00    -0.000 A 
ATOM     13  C   UNL     1      -0.232   6.730  -5.161  0.00  0.00    -0.000 A 
ATOM     14  C   UNL     1       0.637   6.763  -6.226  0.00  0.00    -0.001 A 
ENDBRANCH   1   9
BRANCH   1  15
ATOM     15  C   UNL     1       2.571   5.352  -8.495  0.00  0.00    +0.353 C 
ATOM     16  O   UNL     1       2.514   4.148  -8.099  0.00  0.00    -0.247 OA
BRANCH  15  17
ATOM     17  O   UNL     1       3.844   5.786  -8.857  0.00  0.00    -0.444 OA
BRANCH  17  21
ATOM     18  C   UNL     1       7.772   5.821 -11.177  0.00  0.00    +0.171 C 
ATOM     19  N   UNL     1       6.423   5.975 -11.144  0.00  0.00    +0.304 N 
ATOM     20  C   UNL     1       5.936   5.574  -9.854  0.00  0.00    +0.153 C 
ATOM     21  C   UNL     1       4.372   5.030 -10.126  0.00  0.00    +0.224 C 
ATOM     22  C   UNL     1       3.978   6.323 -11.118  0.00  0.00    +0.058 C 
ATOM     23  C   UNL     1       4.466   5.871 -12.486  0.00  0.00    +0.065 C 
ATOM     24  C   UNL     1       4.732   7.485 -10.571  0.00  0.00    +0.065 C 
ATOM     25  C   UNL     1       5.834   5.246 -12.234  0.00  0.00    +0.109 C 
ATOM     26  C   UNL     1       6.105   7.402 -11.237  0.00  0.00    +0.109 C 
ENDBRANCH  17  21
ENDBRANCH  15  17
ENDBRANCH   1  15
TORSDOF 5
ENDMDL
MODEL 2
REMARK VINA RESULT:      -8.5      3.267      7.708
REMARK  Name = 
REMARK  5 active torsions:
REMARK  status: ('A' for Active; 'I' for Inactive)
REMARK    1  A    between atoms: C_8  and  O_9
REMARK    2  A    between atoms: O_9  and  C_10
REMARK    3  A    between atoms: C_10  and  C_12
REMARK    4  A    between atoms: C_12  and  C_14
REMARK    5  A    between atoms: C_12  and  C_20
REMARK                            x       y       z     vdW  Elec       q    Type
REMARK                         _______ _______ _______ _____ _____    ______ ____
ROOT
ATOM      1  C   UNL     1       3.168   6.227  -7.007  0.00  0.00    +0.252 C 
ATOM      2  O   UNL     1       2.716   7.558  -7.004  0.00  0.00    -0.205 OA
ENDROOT
BRANCH   1   3
ATOM      3  C   UNL     1       4.059   6.113  -5.808  0.00  0.00    +0.019 A 
ATOM      4  C   UNL     1       4.405   7.289  -5.159  0.00  0.00    -0.001 A 
ATOM      5  C   UNL     1       4.556   7.357  -3.779  0.00  0.00    -0.000 A 
ATOM      6  C   UNL     1       4.136   6.284  -3.002  0.00  0.00    -0.000 A 
ATOM      7  C   UNL     1       4.193   5.046  -3.633  0.00  0.00    -0.000 A 
ATOM      8  C   UNL     1       4.056   4.976  -5.013  0.00  0.00    -0.001 A 
ENDBRANCH   1   3
BRANCH   1   9
ATOM      9  C   UNL     1       3.988   6.060  -8.224  0.00  0.00    +0.019 A 
ATOM     10  C   UNL     1       5.269   5.527  -8.144  0.00  0.00    -0.001 A 
ATOM     11  C   UNL     1       6.080   5.425  -9.259  0.00  0.00    -0.000 A 
ATOM     12  C   UNL     1       5.526   5.777 -10.477  0.00  0.00    -0.000 A 
ATOM     13  C   UNL     1       4.579   6.792 -10.466  0.00  0.00    -0.000 A 
ATOM     14  C   UNL     1       3.761   6.831  -9.360  0.00  0.00    -0.001 A 
ENDBRANCH   1   9
BRANCH   1  15
ATOM     15  C   UNL     1       2.002   5.342  -6.939  0.00  0.00    +0.353 C 
ATOM     16  O   UNL     1       2.118   4.135  -7.311  0.00  0.00    -0.247 OA
BRANCH  15  17
ATOM     17  O   UNL     1       0.733   5.692  -6.484  0.00  0.00    -0.444 OA
BRANCH  17  21
ATOM     18  C   UNL     1      -2.977   5.450  -3.840  0.00  0.00    +0.171 C 
ATOM     19  N   UNL     1      -1.679   5.808  -4.017  0.00  0.00    +0.304 N 
ATOM     20  C   UNL     1      -1.220   5.302  -5.280  0.00  0.00    +0.153 C 
ATOM     21  C   UNL     1       0.428   5.059  -5.081  0.00  0.00    +0.224 C 
ATOM     22  C   UNL     1       0.664   6.531  -4.313  0.00  0.00    +0.058 C 
ATOM     23  C   UNL     1       0.354   6.214  -2.858  0.00  0.00    +0.065 C 
ATOM     24  C   UNL     1      -0.311   7.465  -4.941  0.00  0.00    +0.065 C 
ATOM     25  C   UNL     1      -0.902   5.350  -2.897  0.00  0.00    +0.109 C 
ATOM     26  C   UNL     1      -1.601   7.266  -4.146  0.00  0.00    +0.109 C 
ENDBRANCH  17  21
ENDBRANCH  15  17
ENDBRANCH   1  15
TORSDOF 5
ENDMDL
MODEL 3
REMARK VINA RESULT:      -8.3      2.402      4.694
REMARK  Name = 
REMARK  5 active torsions:
REMARK  status: ('A' for Active; 'I' for Inactive)
REMARK    1  A    between atoms: C_8  and  O_9
REMARK    2  A    between atoms: O_9  and  C_10
REMARK    3  A    between atoms: C_10  and  C_12
REMARK    4  A    between atoms: C_12  and  C_14
REMARK    5  A    between atoms: C_12  and  C_20
REMARK                            x       y       z     vdW  Elec       q    Type
REMARK                         _______ _______ _______ _____ _____    ______ ____
ROOT
ATOM      1  C   UNL     1       2.031   6.348  -6.723  0.00  0.00    +0.252 C 
ATOM      2  O   UNL     1       1.922   7.735  -6.929  0.00  0.00    -0.205 OA
ENDROOT
BRANCH   1   3
ATOM      3  C   UNL     1       0.734   5.943  -6.092  0.00  0.00    +0.019 A 
ATOM      4  C   UNL     1       0.166   6.825  -5.184  0.00  0.00    -0.001 A 
ATOM      5  C   UNL     1      -1.209   6.995  -5.079  0.00  0.00    -0.000 A 
ATOM      6  C   UNL     1      -2.033   6.440  -6.051  0.00  0.00    -0.000 A 
ATOM      7  C   UNL     1      -1.534   5.292  -6.656  0.00  0.00    -0.000 A 
ATOM      8  C   UNL     1      -0.160   5.113  -6.752  0.00  0.00    -0.001 A 
ENDBRANCH   1   3
BRANCH   1   9
ATOM      9  C   UNL     1       3.117   6.149  -5.743  0.00  0.00    +0.019 A 
ATOM     10  C   UNL     1       3.105   5.053  -4.889  0.00  0.00    -0.001 A 
ATOM     11  C   UNL     1       4.074   4.882  -3.917  0.00  0.00    -0.000 A 
ATOM     12  C   UNL     1       5.117   5.792  -3.898  0.00  0.00    -0.000 A 
ATOM     13  C   UNL     1       4.821   7.092  -4.287  0.00  0.00    -0.000 A 
ATOM     14  C   UNL     1       3.886   7.216  -5.288  0.00  0.00    -0.001 A 
ENDBRANCH   1   9
BRANCH   1  15
ATOM     15  C   UNL     1       2.263   5.704  -8.018  0.00  0.00    +0.353 C 
ATOM     16  O   UNL     1       2.650   4.497  -8.049  0.00  0.00    -0.247 OA
BRANCH  15  17
ATOM     17  O   UNL     1       2.088   6.292  -9.269  0.00  0.00    -0.444 OA
BRANCH  17  21
ATOM     18  C   UNL     1       1.730   6.444 -13.814  0.00  0.00    +0.171 C 
ATOM     19  N   UNL     1       1.212   6.114 -12.604  0.00  0.00    +0.304 N 
ATOM     20  C   UNL     1       2.210   6.321 -11.593  0.00  0.00    +0.153 C 
ATOM     21  C   UNL     1       1.846   5.216 -10.384  0.00  0.00    +0.224 C 
ATOM     22  C   UNL     1       0.203   5.552 -10.420  0.00  0.00    +0.058 C 
ATOM     23  C   UNL     1      -0.312   4.644 -11.526  0.00  0.00    +0.065 C 
ATOM     24  C   UNL     1       0.105   7.002 -10.744  0.00  0.00    +0.065 C 
ATOM     25  C   UNL     1       0.711   4.767 -12.650  0.00  0.00    +0.109 C 
ATOM     26  C   UNL     1       0.141   7.058 -12.271  0.00  0.00    +0.109 C 
ENDBRANCH  17  21
ENDBRANCH  15  17
ENDBRANCH   1  15
TORSDOF 5
ENDMDL
MODEL 4
REMARK VINA RESULT:      -8.2      3.022      5.930
REMARK  Name = 
REMARK  5 active torsions:
REMARK  status: ('A' for Active; 'I' for Inactive)
REMARK    1  A    between atoms: C_8  and  O_9
REMARK    2  A    between atoms: O_9  and  C_10
REMARK    3  A    between atoms: C_10  and  C_12
REMARK    4  A    between atoms: C_12  and  C_14
REMARK    5  A    between atoms: C_12  and  C_20
REMARK                            x       y       z     vdW  Elec       q    Type
REMARK                         _______ _______ _______ _____ _____    ______ ____
ROOT
ATOM      1  C   UNL     1       2.856   5.789  -8.671  0.00  0.00    +0.252 C 
ATOM      2  O   UNL     1       3.094   7.153  -8.427  0.00  0.00    -0.205 OA
ENDROOT
BRANCH   1   3
ATOM      3  C   UNL     1       4.132   5.268  -9.258  0.00  0.00    +0.019 A 
ATOM      4  C   UNL     1       4.289   5.373 -10.632  0.00  0.00    -0.001 A 
ATOM      5  C   UNL     1       5.522   5.633 -11.219  0.00  0.00    -0.000 A 
ATOM      6  C   UNL     1       6.584   6.019 -10.411  0.00  0.00    -0.000 A 
ATOM      7  C   UNL     1       6.539   5.528  -9.110  0.00  0.00    -0.000 A 
ATOM      8  C   UNL     1       5.310   5.255  -8.525  0.00  0.00    -0.001 A 
ENDBRANCH   1   3
BRANCH   1   9
ATOM      9  C   UNL     1       1.799   5.720  -9.699  0.00  0.00    +0.019 A 
ATOM     10  C   UNL     1       1.065   6.852 -10.035  0.00  0.00    -0.001 A 
ATOM     11  C   UNL     1       0.025   6.796 -10.944  0.00  0.00    -0.000 A 
ATOM     12  C   UNL     1      -0.188   5.589 -11.587  0.00  0.00    -0.000 A 
ATOM     13  C   UNL     1       0.095   4.436 -10.866  0.00  0.00    -0.000 A 
ATOM     14  C   UNL     1       1.165   4.519 -10.006  0.00  0.00    -0.001 A 
ENDBRANCH   1   9
BRANCH   1  15
ATOM     15  C   UNL     1       2.506   5.146  -7.402  0.00  0.00    +0.353 C 
ATOM     16  O   UNL     1       2.459   3.880  -7.341  0.00  0.00    -0.247 OA
BRANCH  15  17
ATOM     17  O   UNL     1       2.217   5.798  -6.205  0.00  0.00    -0.444 OA
BRANCH  17  21
ATOM     18  C   UNL     1       2.564   6.680  -1.742  0.00  0.00    +0.171 C 
ATOM     19  N   UNL     1       3.139   6.326  -2.920  0.00  0.00    +0.304 N 
ATOM     20  C   UNL     1       2.112   6.124  -3.903  0.00  0.00    +0.153 C 
ATOM     21  C   UNL     1       2.741   4.989  -4.967  0.00  0.00    +0.224 C 
ATOM     22  C   UNL     1       4.239   5.738  -5.052  0.00  0.00    +0.058 C 
ATOM     23  C   UNL     1       4.983   5.159  -3.858  0.00  0.00    +0.065 C 
ATOM     24  C   UNL     1       3.960   7.195  -4.931  0.00  0.00    +0.065 C 
ATOM     25  C   UNL     1       3.974   5.174  -2.715  0.00  0.00    +0.109 C 
ATOM     26  C   UNL     1       3.924   7.456  -3.425  0.00  0.00    +0.109 C 
ENDBRANCH  17  21
ENDBRANCH  15  17
ENDBRANCH   1  15
TORSDOF 5
ENDMDL
MODEL 5
REMARK VINA RESULT:      -8.2      2.379      4.950
REMARK  Name = 
REMARK  5 active torsions:
REMARK  status: ('A' for Active; 'I' for Inactive)
REMARK    1  A    between atoms: C_8  and  O_9
REMARK    2  A    between atoms: O_9  and  C_10
REMARK    3  A    between atoms: C_10  and  C_12
REMARK    4  A    between atoms: C_12  and  C_14
REMARK    5  A    between atoms: C_12  and  C_20
REMARK                            x       y       z     vdW  Elec       q    Type
REMARK                         _______ _______ _______ _____ _____    ______ ____
ROOT
ATOM      1  C   UNL     1       1.664   5.216  -6.262  0.00  0.00    +0.252 C 
ATOM      2  O   UNL     1       1.619   3.847  -5.945  0.00  0.00    -0.205 OA
ENDROOT
BRANCH   1   3
ATOM      3  C   UNL     1       2.487   5.843  -5.178  0.00  0.00    +0.019 A 
ATOM      4  C   UNL     1       3.059   4.993  -4.242  0.00  0.00    -0.001 A 
ATOM      5  C   UNL     1       4.310   5.236  -3.689  0.00  0.00    -0.000 A 
ATOM      6  C   UNL     1       5.110   6.229  -4.242  0.00  0.00    -0.000 A 
ATOM      7  C   UNL     1       4.416   7.275  -4.840  0.00  0.00    -0.000 A 
ATOM      8  C   UNL     1       3.159   7.039  -5.383  0.00  0.00    -0.001 A 
ENDBRANCH   1   3
BRANCH   1   9
ATOM      9  C   UNL     1       0.281   5.721  -6.160  0.00  0.00    +0.019 A 
ATOM     10  C   UNL     1      -0.066   6.634  -5.171  0.00  0.00    -0.001 A 
ATOM     11  C   UNL     1      -1.369   7.069  -5.012  0.00  0.00    -0.000 A 
ATOM     12  C   UNL     1      -2.296   6.639  -5.946  0.00  0.00    -0.000 A 
ATOM     13  C   UNL     1      -2.104   5.373  -6.484  0.00  0.00    -0.000 A 
ATOM     14  C   UNL     1      -0.793   4.997  -6.668  0.00  0.00    -0.001 A 
ENDBRANCH   1   9
BRANCH   1  15
ATOM     15  C   UNL     1       2.264   5.364  -7.591  0.00  0.00    +0.353 C 
ATOM     16  O   UNL     1       3.433   4.918  -7.796  0.00  0.00    -0.247 OA
BRANCH  15  17
ATOM     17  O   UNL     1       1.662   5.954  -8.700  0.00  0.00    -0.444 OA
BRANCH  17  21
ATOM     18  C   UNL     1       2.176   6.351 -13.216  0.00  0.00    +0.171 C 
ATOM     19  N   UNL     1       1.420   6.003 -12.144  0.00  0.00    +0.304 N 
ATOM     20  C   UNL     1       2.221   6.085 -10.956  0.00  0.00    +0.153 C 
ATOM     21  C   UNL     1       1.566   4.953  -9.905  0.00  0.00    +0.224 C 
ATOM     22  C   UNL     1      -0.016   5.414 -10.222  0.00  0.00    +0.058 C 
ATOM     23  C   UNL     1      -0.371   4.601 -11.457  0.00  0.00    +0.065 C 
ATOM     24  C   UNL     1       0.042   6.881 -10.470  0.00  0.00    +0.065 C 
ATOM     25  C   UNL     1       0.850   4.701 -12.365  0.00  0.00    +0.109 C 
ATOM     26  C   UNL     1       0.369   7.008 -11.958  0.00  0.00    +0.109 C 
ENDBRANCH  17  21
ENDBRANCH  15  17
ENDBRANCH   1  15
TORSDOF 5
ENDMDL
MODEL 6
REMARK VINA RESULT:      -8.0      2.055      4.235
REMARK  Name = 
REMARK  5 active torsions:
REMARK  status: ('A' for Active; 'I' for Inactive)
REMARK    1  A    between atoms: C_8  and  O_9
REMARK    2  A    between atoms: O_9  and  C_10
REMARK    3  A    between atoms: C_10  and  C_12
REMARK    4  A    between atoms: C_12  and  C_14
REMARK    5  A    between atoms: C_12  and  C_20
REMARK                            x       y       z     vdW  Elec       q    Type
REMARK                         _______ _______ _______ _____ _____    ______ ____
ROOT
ATOM      1  C   UNL     1       1.690   6.072  -6.708  0.00  0.00    +0.252 C 
ATOM      2  O   UNL     1       1.782   4.730  -7.117  0.00  0.00    -0.205 OA
ENDROOT
BRANCH   1   3
ATOM      3  C   UNL     1       2.552   6.169  -5.486  0.00  0.00    +0.019 A 
ATOM      4  C   UNL     1       2.734   5.010  -4.744  0.00  0.00    -0.001 A 
ATOM      5  C   UNL     1       3.937   4.719  -4.111  0.00  0.00    -0.000 A 
ATOM      6  C   UNL     1       5.057   5.488  -4.404  0.00  0.00    -0.000 A 
ATOM      7  C   UNL     1       4.785   6.800  -4.778  0.00  0.00    -0.000 A 
ATOM      8  C   UNL     1       3.579   7.097  -5.399  0.00  0.00    -0.001 A 
ENDBRANCH   1   3
BRANCH   1   9
ATOM      9  C   UNL     1       0.285   6.302  -6.317  0.00  0.00    +0.019 A 
ATOM     10  C   UNL     1      -0.019   7.025  -5.170  0.00  0.00    -0.001 A 
ATOM     11  C   UNL     1      -1.324   7.195  -4.746  0.00  0.00    -0.000 A 
ATOM     12  C   UNL     1      -2.323   6.704  -5.568  0.00  0.00    -0.000 A 
ATOM     13  C   UNL     1      -2.030   5.559  -6.297  0.00  0.00    -0.000 A 
ATOM     14  C   UNL     1      -0.732   5.451  -6.739  0.00  0.00    -0.001 A 
ENDBRANCH   1   9
BRANCH   1  15
ATOM     15  C   UNL     1       2.157   6.923  -7.805  0.00  0.00    +0.353 C 
ATOM     16  O   UNL     1       1.916   8.168  -7.769  0.00  0.00    -0.247 OA
BRANCH  15  17
ATOM     17  O   UNL     1       2.874   6.501  -8.922  0.00  0.00    -0.444 OA
BRANCH  17  21
ATOM     18  C   UNL     1       6.295   7.478 -11.779  0.00  0.00    +0.171 C 
ATOM     19  N   UNL     1       5.745   6.675 -10.832  0.00  0.00    +0.304 N 
ATOM     20  C   UNL     1       4.556   7.296 -10.321  0.00  0.00    +0.153 C 
ATOM     21  C   UNL     1       4.415   6.740  -8.744  0.00  0.00    +0.224 C 
ATOM     22  C   UNL     1       4.757   5.151  -9.157  0.00  0.00    +0.058 C 
ATOM     23  C   UNL     1       6.277   5.107  -9.129  0.00  0.00    +0.065 C 
ATOM     24  C   UNL     1       4.181   4.964 -10.517  0.00  0.00    +0.065 C 
ATOM     25  C   UNL     1       6.726   6.390  -9.821  0.00  0.00    +0.109 C 
ATOM     26  C   UNL     1       5.278   5.440 -11.469  0.00  0.00    +0.109 C 
ENDBRANCH  17  21
ENDBRANCH  15  17
ENDBRANCH   1  15
TORSDOF 5
ENDMDL
MODEL 7
REMARK VINA RESULT:      -7.9      3.373      7.034
REMARK  Name = 
REMARK  5 active torsions:
REMARK  status: ('A' for Active; 'I' for Inactive)
REMARK    1  A    between atoms: C_8  and  O_9
REMARK    2  A    between atoms: O_9  and  C_10
REMARK    3  A    between atoms: C_10  and  C_12
REMARK    4  A    between atoms: C_12  and  C_14
REMARK    5  A    between atoms: C_12  and  C_20
REMARK                            x       y       z     vdW  Elec       q    Type
REMARK                         _______ _______ _______ _____ _____    ______ ____
ROOT
ATOM      1  C   UNL     1       2.632   5.196  -6.655  0.00  0.00    +0.252 C 
ATOM      2  O   UNL     1       2.195   3.939  -6.204  0.00  0.00    -0.205 OA
ENDROOT
BRANCH   1   3
ATOM      3  C   UNL     1       3.376   4.920  -7.926  0.00  0.00    +0.019 A 
ATOM      4  C   UNL     1       2.625   4.781  -9.085  0.00  0.00    -0.001 A 
ATOM      5  C   UNL     1       3.078   5.231 -10.319  0.00  0.00    -0.000 A 
ATOM      6  C   UNL     1       4.209   6.038 -10.368  0.00  0.00    -0.000 A 
ATOM      7  C   UNL     1       5.124   5.827  -9.343  0.00  0.00    -0.000 A 
ATOM      8  C   UNL     1       4.676   5.365  -8.112  0.00  0.00    -0.001 A 
ENDBRANCH   1   3
BRANCH   1   9
ATOM      9  C   UNL     1       3.586   5.701  -5.648  0.00  0.00    +0.019 A 
ATOM     10  C   UNL     1       4.000   4.888  -4.599  0.00  0.00    -0.001 A 
ATOM     11  C   UNL     1       4.838   5.360  -3.606  0.00  0.00    -0.000 A 
ATOM     12  C   UNL     1       5.334   6.643  -3.755  0.00  0.00    -0.000 A 
ATOM     13  C   UNL     1       4.510   7.564  -4.389  0.00  0.00    -0.000 A 
ATOM     14  C   UNL     1       3.726   7.063  -5.402  0.00  0.00    -0.001 A 
ENDBRANCH   1   9
BRANCH   1  15
ATOM     15  C   UNL     1       1.458   6.051  -6.855  0.00  0.00    +0.353 C 
ATOM     16  O   UNL     1       1.559   7.081  -7.587  0.00  0.00    -0.247 OA
BRANCH  15  17
ATOM     17  O   UNL     1       0.191   5.841  -6.316  0.00  0.00    -0.444 OA
BRANCH  17  21
ATOM     18  C   UNL     1      -1.635   5.429  -2.155  0.00  0.00    +0.171 C 
ATOM     19  N   UNL     1      -1.634   5.995  -3.390  0.00  0.00    +0.304 N 
ATOM     20  C   UNL     1      -0.451   5.587  -4.094  0.00  0.00    +0.153 C 
ATOM     21  C   UNL     1      -0.114   6.846  -5.150  0.00  0.00    +0.224 C 
ATOM     22  C   UNL     1      -1.710   7.005  -5.643  0.00  0.00    +0.058 C 
ATOM     23  C   UNL     1      -2.304   7.931  -4.592  0.00  0.00    +0.065 C 
ATOM     24  C   UNL     1      -2.273   5.627  -5.610  0.00  0.00    +0.065 C 
ATOM     25  C   UNL     1      -1.764   7.421  -3.260  0.00  0.00    +0.109 C 
ATOM     26  C   UNL     1      -2.744   5.438  -4.168  0.00  0.00    +0.109 C 
ENDBRANCH  17  21
ENDBRANCH  15  17
ENDBRANCH   1  15
TORSDOF 5
ENDMDL
MODEL 8
REMARK VINA RESULT:      -7.7      1.302      4.005
REMARK  Name = 
REMARK  5 active torsions:
REMARK  status: ('A' for Active; 'I' for Inactive)
REMARK    1  A    between atoms: C_8  and  O_9
REMARK    2  A    between atoms: O_9  and  C_10
REMARK    3  A    between atoms: C_10  and  C_12
REMARK    4  A    between atoms: C_12  and  C_14
REMARK    5  A    between atoms: C_12  and  C_20
REMARK                            x       y       z     vdW  Elec       q    Type
REMARK                         _______ _______ _______ _____ _____    ______ ____
ROOT
ATOM      1  C   UNL     1       2.452   5.125  -8.054  0.00  0.00    +0.252 C 
ATOM      2  O   UNL     1       2.383   3.738  -7.834  0.00  0.00    -0.205 OA
ENDROOT
BRANCH   1   3
ATOM      3  C   UNL     1       1.720   5.741  -6.901  0.00  0.00    +0.019 A 
ATOM      4  C   UNL     1       0.816   4.938  -6.220  0.00  0.00    -0.001 A 
ATOM      5  C   UNL     1       0.628   5.035  -4.847  0.00  0.00    -0.000 A 
ATOM      6  C   UNL     1       1.518   5.794  -4.096  0.00  0.00    -0.000 A 
ATOM      7  C   UNL     1       2.104   6.854  -4.780  0.00  0.00    -0.000 A 
ATOM      8  C   UNL     1       2.283   6.766  -6.154  0.00  0.00    -0.001 A 
ENDBRANCH   1   3
BRANCH   1   9
ATOM      9  C   UNL     1       1.697   5.396  -9.294  0.00  0.00    +0.019 A 
ATOM     10  C   UNL     1       1.161   6.656  -9.532  0.00  0.00    -0.001 A 
ATOM     11  C   UNL     1       0.393   6.915 -10.652  0.00  0.00    -0.000 A 
ATOM     12  C   UNL     1       0.267   5.896 -11.581  0.00  0.00    -0.000 A 
ATOM     13  C   UNL     1       0.268   4.597 -11.090  0.00  0.00    -0.000 A 
ATOM     14  C   UNL     1       1.080   4.371 -10.004  0.00  0.00    -0.001 A 
ENDBRANCH   1   9
BRANCH   1  15
ATOM     15  C   UNL     1       3.863   5.516  -8.109  0.00  0.00    +0.353 C 
ATOM     16  O   UNL     1       4.642   5.159  -7.174  0.00  0.00    -0.247 OA
BRANCH  15  17
ATOM     17  O   UNL     1       4.469   6.256  -9.121  0.00  0.00    -0.444 OA
BRANCH  17  21
ATOM     18  C   UNL     1       8.336   5.772 -11.494  0.00  0.00    +0.171 C 
ATOM     19  N   UNL     1       7.004   6.029 -11.455  0.00  0.00    +0.304 N 
ATOM     20  C   UNL     1       6.517   5.792 -10.125  0.00  0.00    +0.153 C 
ATOM     21  C   UNL     1       4.913   5.343 -10.318  0.00  0.00    +0.224 C 
ATOM     22  C   UNL     1       4.591   6.560 -11.427  0.00  0.00    +0.058 C 
ATOM     23  C   UNL     1       5.014   5.942 -12.750  0.00  0.00    +0.065 C 
ATOM     24  C   UNL     1       5.440   7.710 -11.008  0.00  0.00    +0.065 C 
ATOM     25  C   UNL     1       6.338   5.244 -12.459  0.00  0.00    +0.109 C 
ATOM     26  C   UNL     1       6.788   7.461 -11.684  0.00  0.00    +0.109 C 
ENDBRANCH  17  21
ENDBRANCH  15  17
ENDBRANCH   1  15
TORSDOF 5
ENDMDL
MODEL 9
REMARK VINA RESULT:      -7.7      3.507      5.524
REMARK  Name = 
REMARK  5 active torsions:
REMARK  status: ('A' for Active; 'I' for Inactive)
REMARK    1  A    between atoms: C_8  and  O_9
REMARK    2  A    between atoms: O_9  and  C_10
REMARK    3  A    between atoms: C_10  and  C_12
REMARK    4  A    between atoms: C_12  and  C_14
REMARK    5  A    between atoms: C_12  and  C_20
REMARK                            x       y       z     vdW  Elec       q    Type
REMARK                         _______ _______ _______ _____ _____    ______ ____
ROOT
ATOM      1  C   UNL     1       1.125   5.942  -6.862  0.00  0.00    +0.252 C 
ATOM      2  O   UNL     1       1.835   7.154  -6.926  0.00  0.00    -0.205 OA
ENDROOT
BRANCH   1   3
ATOM      3  C   UNL     1       1.017   5.475  -8.282  0.00  0.00    +0.019 A 
ATOM      4  C   UNL     1       0.026   6.050  -9.066  0.00  0.00    -0.001 A 
ATOM      5  C   UNL     1       0.210   6.308 -10.419  0.00  0.00    -0.000 A 
ATOM      6  C   UNL     1       1.485   6.198 -10.959  0.00  0.00    -0.000 A 
ATOM      7  C   UNL     1       2.313   5.279 -10.323  0.00  0.00    -0.000 A 
ATOM      8  C   UNL     1       2.125   5.009  -8.974  0.00  0.00    -0.001 A 
ENDBRANCH   1   3
BRANCH   1   9
ATOM      9  C   UNL     1      -0.227   6.267  -6.366  0.00  0.00    +0.019 A 
ATOM     10  C   UNL     1      -0.396   7.154  -5.310  0.00  0.00    -0.001 A 
ATOM     11  C   UNL     1      -1.647   7.422  -4.783  0.00  0.00    -0.000 A 
ATOM     12  C   UNL     1      -2.735   6.851  -5.420  0.00  0.00    -0.000 A 
ATOM     13  C   UNL     1      -2.539   5.607  -6.004  0.00  0.00    -0.000 A 
ATOM     14  C   UNL     1      -1.296   5.397  -6.556  0.00  0.00    -0.001 A 
ENDBRANCH   1   9
BRANCH   1  15
ATOM     15  C   UNL     1       1.872   5.012  -6.011  0.00  0.00    +0.353 C 
ATOM     16  O   UNL     1       1.505   3.799  -5.947  0.00  0.00    -0.247 OA
BRANCH  15  17
ATOM     17  O   UNL     1       2.990   5.323  -5.241  0.00  0.00    -0.444 OA
BRANCH  17  21
ATOM     18  C   UNL     1       3.618   8.517  -2.045  0.00  0.00    +0.171 C 
ATOM     19  N   UNL     1       3.786   7.244  -2.485  0.00  0.00    +0.304 N 
ATOM     20  C   UNL     1       3.034   7.061  -3.694  0.00  0.00    +0.153 C 
ATOM     21  C   UNL     1       2.631   5.433  -3.718  0.00  0.00    +0.224 C 
ATOM     22  C   UNL     1       4.169   4.934  -3.271  0.00  0.00    +0.058 C 
ATOM     23  C   UNL     1       4.129   5.010  -1.753  0.00  0.00    +0.065 C 
ATOM     24  C   UNL     1       5.099   5.916  -3.894  0.00  0.00    +0.065 C 
ATOM     25  C   UNL     1       3.425   6.326  -1.439  0.00  0.00    +0.109 C 
ATOM     26  C   UNL     1       5.185   7.059  -2.883  0.00  0.00    +0.109 C 
ENDBRANCH  17  21
ENDBRANCH  15  17
ENDBRANCH   1  15
TORSDOF 5
ENDMDL
