MODEL 1
REMARK VINA RESULT:      -3.9      0.000      0.000
REMARK  Name = 
REMARK  2 active torsions:
REMARK  status: ('A' for Active; 'I' for Inactive)
REMARK    1  A    between atoms: P_2  and  O_5
REMARK    2  A    between atoms: O_5  and  P_6
REMARK                            x       y       z     vdW  Elec       q    Type
REMARK                         _______ _______ _______ _____ _____    ______ ____
ROOT
ATOM      1  O   UNL     1       6.866   5.420 -10.760  0.00  0.00    -0.180 OA
ENDROOT
BRANCH   1   3
ATOM      2  O   UNL     1       4.524   4.979  -9.789  0.00  0.00    -0.222 OA
ATOM      3  P   UNL     1       5.198   5.719 -10.922  0.00  0.00    +0.540 P 
ATOM      4  O   UNL     1       4.996   7.393 -10.706  0.00  0.00    -0.114 OA
ATOM      5  O   UNL     1       4.651   5.210 -12.431  0.00  0.00    -0.114 OA
ENDBRANCH   1   3
BRANCH   1   6
ATOM      6  P   UNL     1       7.582   5.765 -12.249  0.00  0.00    +0.540 P 
ATOM      7  O   UNL     1       9.243   6.008 -12.092  0.00  0.00    -0.114 OA
ATOM      8  O   UNL     1       6.915   7.159 -12.961  0.00  0.00    -0.114 OA
ATOM      9  O   UNL     1       7.360   4.616 -13.198  0.00  0.00    -0.222 OA
ENDBRANCH   1   6
TORSDOF 2
ENDMDL
MODEL 2
REMARK VINA RESULT:      -3.9      0.914      2.044
REMARK  Name = 
REMARK  2 active torsions:
REMARK  status: ('A' for Active; 'I' for Inactive)
REMARK    1  A    between atoms: P_2  and  O_5
REMARK    2  A    between atoms: O_5  and  P_6
REMARK                            x       y       z     vdW  Elec       q    Type
REMARK                         _______ _______ _______ _____ _____    ______ ____
ROOT
ATOM      1  O   UNL     1       5.164   5.107 -12.345  0.00  0.00    -0.180 OA
ENDROOT
BRANCH   1   3
ATOM      2  O   UNL     1       2.832   5.947 -11.650  0.00  0.00    -0.222 OA
ATOM      3  P   UNL     1       4.243   5.843 -11.117  0.00  0.00    +0.540 P 
ATOM      4  O   UNL     1       4.275   4.772  -9.799  0.00  0.00    -0.114 OA
ATOM      5  O   UNL     1       4.887   7.348 -10.719  0.00  0.00    -0.114 OA
ENDBRANCH   1   3
BRANCH   1   6
ATOM      6  P   UNL     1       6.770   5.567 -12.110  0.00  0.00    +0.540 P 
ATOM      7  O   UNL     1       7.188   5.534 -10.478  0.00  0.00    -0.114 OA
ATOM      8  O   UNL     1       7.067   7.138 -12.693  0.00  0.00    -0.114 OA
ATOM      9  O   UNL     1       7.682   4.625 -12.851  0.00  0.00    -0.222 OA
ENDBRANCH   1   6
TORSDOF 2
ENDMDL
MODEL 3
REMARK VINA RESULT:      -3.9      0.904      3.805
REMARK  Name = 
REMARK  2 active torsions:
REMARK  status: ('A' for Active; 'I' for Inactive)
REMARK    1  A    between atoms: P_2  and  O_5
REMARK    2  A    between atoms: O_5  and  P_6
REMARK                            x       y       z     vdW  Elec       q    Type
REMARK                         _______ _______ _______ _____ _____    ______ ____
ROOT
ATOM      1  O   UNL     1       5.238   5.104 -12.312  0.00  0.00    -0.180 OA
ENDROOT
BRANCH   1   3
ATOM      2  O   UNL     1       7.716   4.614 -12.806  0.00  0.00    -0.222 OA
ATOM      3  P   UNL     1       6.848   5.581 -12.033  0.00  0.00    +0.540 P 
ATOM      4  O   UNL     1       7.000   7.137 -12.698  0.00  0.00    -0.114 OA
ATOM      5  O   UNL     1       7.191   5.566 -10.384  0.00  0.00    -0.114 OA
ENDBRANCH   1   3
BRANCH   1   6
ATOM      6  P   UNL     1       4.300   5.763 -11.074  0.00  0.00    +0.540 P 
ATOM      7  O   UNL     1       4.836   7.303 -10.647  0.00  0.00    -0.114 OA
ATOM      8  O   UNL     1       4.331   4.793  -9.676  0.00  0.00    -0.114 OA
ATOM      9  O   UNL     1       2.867   5.870 -11.525  0.00  0.00    -0.222 OA
ENDBRANCH   1   6
TORSDOF 2
ENDMDL
MODEL 4
REMARK VINA RESULT:      -3.9      1.558      3.114
REMARK  Name = 
REMARK  2 active torsions:
REMARK  status: ('A' for Active; 'I' for Inactive)
REMARK    1  A    between atoms: P_2  and  O_5
REMARK    2  A    between atoms: O_5  and  P_6
REMARK                            x       y       z     vdW  Elec       q    Type
REMARK                         _______ _______ _______ _____ _____    ______ ____
ROOT
ATOM      1  O   UNL     1       6.025   5.625 -11.378  0.00  0.00    -0.180 OA
ENDROOT
BRANCH   1   3
ATOM      2  O   UNL     1       7.419   4.682 -13.325  0.00  0.00    -0.222 OA
ATOM      3  P   UNL     1       6.182   5.512 -13.069  0.00  0.00    +0.540 P 
ATOM      4  O   UNL     1       4.811   4.671 -13.615  0.00  0.00    -0.114 OA
ATOM      5  O   UNL     1       6.291   7.047 -13.755  0.00  0.00    -0.114 OA
ENDBRANCH   1   3
BRANCH   1   6
ATOM      6  P   UNL     1       7.317   6.553 -10.817  0.00  0.00    +0.540 P 
ATOM      7  O   UNL     1       8.717   6.266 -11.711  0.00  0.00    -0.114 OA
ATOM      8  O   UNL     1       7.666   6.223  -9.184  0.00  0.00    -0.114 OA
ATOM      9  O   UNL     1       6.978   8.017 -10.925  0.00  0.00    -0.222 OA
ENDBRANCH   1   6
TORSDOF 2
ENDMDL
MODEL 5
REMARK VINA RESULT:      -3.8      0.230      3.697
REMARK  Name = 
REMARK  2 active torsions:
REMARK  status: ('A' for Active; 'I' for Inactive)
REMARK    1  A    between atoms: P_2  and  O_5
REMARK    2  A    between atoms: O_5  and  P_6
REMARK                            x       y       z     vdW  Elec       q    Type
REMARK                         _______ _______ _______ _____ _____    ______ ____
ROOT
ATOM      1  O   UNL     1       7.072   5.557 -10.654  0.00  0.00    -0.180 OA
ENDROOT
BRANCH   1   3
ATOM      2  O   UNL     1       9.193   6.123 -11.998  0.00  0.00    -0.222 OA
ATOM      3  P   UNL     1       7.705   5.940 -12.187  0.00  0.00    +0.540 P 
ATOM      4  O   UNL     1       7.420   4.581 -13.167  0.00  0.00    -0.114 OA
ATOM      5  O   UNL     1       6.966   7.323 -12.801  0.00  0.00    -0.114 OA
ENDBRANCH   1   3
BRANCH   1   6
ATOM      6  P   UNL     1       5.403   5.787 -10.730  0.00  0.00    +0.540 P 
ATOM      7  O   UNL     1       4.762   5.186 -12.170  0.00  0.00    -0.114 OA
ATOM      8  O   UNL     1       4.988   7.433 -10.622  0.00  0.00    -0.114 OA
ATOM      9  O   UNL     1       4.738   5.071  -9.583  0.00  0.00    -0.222 OA
ENDBRANCH   1   6
TORSDOF 2
ENDMDL
MODEL 6
REMARK VINA RESULT:      -3.8      5.503      6.755
REMARK  Name = 
REMARK  2 active torsions:
REMARK  status: ('A' for Active; 'I' for Inactive)
REMARK    1  A    between atoms: P_2  and  O_5
REMARK    2  A    between atoms: O_5  and  P_6
REMARK                            x       y       z     vdW  Elec       q    Type
REMARK                         _______ _______ _______ _____ _____    ______ ____
ROOT
ATOM      1  O   UNL     1       3.522   5.634  -7.330  0.00  0.00    -0.180 OA
ENDROOT
BRANCH   1   3
ATOM      2  O   UNL     1       2.969   3.596  -8.801  0.00  0.00    -0.222 OA
ATOM      3  P   UNL     1       2.331   4.502  -7.773  0.00  0.00    +0.540 P 
ATOM      4  O   UNL     1       1.982   3.611  -6.369  0.00  0.00    -0.114 OA
ATOM      5  O   UNL     1       0.966   5.286  -8.374  0.00  0.00    -0.114 OA
ENDBRANCH   1   3
BRANCH   1   6
ATOM      6  P   UNL     1       2.734   6.918  -6.571  0.00  0.00    +0.540 P 
ATOM      7  O   UNL     1       1.363   6.397  -5.740  0.00  0.00    -0.114 OA
ATOM      8  O   UNL     1       2.246   8.106  -7.688  0.00  0.00    -0.114 OA
ATOM      9  O   UNL     1       3.664   7.574  -5.584  0.00  0.00    -0.222 OA
ENDBRANCH   1   6
TORSDOF 2
ENDMDL
MODEL 7
REMARK VINA RESULT:      -3.8      8.926     11.524
REMARK  Name = 
REMARK  2 active torsions:
REMARK  status: ('A' for Active; 'I' for Inactive)
REMARK    1  A    between atoms: P_2  and  O_5
REMARK    2  A    between atoms: O_5  and  P_6
REMARK                            x       y       z     vdW  Elec       q    Type
REMARK                         _______ _______ _______ _____ _____    ______ ____
ROOT
ATOM      1  O   UNL     1      -0.350   5.297  -3.640  0.00  0.00    -0.180 OA
ENDROOT
BRANCH   1   3
ATOM      2  O   UNL     1      -0.375   7.357  -5.183  0.00  0.00    -0.222 OA
ATOM      3  P   UNL     1      -0.838   5.918  -5.147  0.00  0.00    +0.540 P 
ATOM      4  O   UNL     1       0.003   5.023  -6.321  0.00  0.00    -0.114 OA
ATOM      5  O   UNL     1      -2.507   5.782  -5.329  0.00  0.00    -0.114 OA
ENDBRANCH   1   3
BRANCH   1   6
ATOM      6  P   UNL     1      -1.585   5.626  -2.540  0.00  0.00    +0.540 P 
ATOM      7  O   UNL     1      -2.932   4.650  -2.813  0.00  0.00    -0.114 OA
ATOM      8  O   UNL     1      -2.091   7.248  -2.627  0.00  0.00    -0.114 OA
ATOM      9  O   UNL     1      -1.097   5.375  -1.137  0.00  0.00    -0.222 OA
ENDBRANCH   1   6
TORSDOF 2
ENDMDL
MODEL 8
REMARK VINA RESULT:      -3.8      9.842     11.685
REMARK  Name = 
REMARK  2 active torsions:
REMARK  status: ('A' for Active; 'I' for Inactive)
REMARK    1  A    between atoms: P_2  and  O_5
REMARK    2  A    between atoms: O_5  and  P_6
REMARK                            x       y       z     vdW  Elec       q    Type
REMARK                         _______ _______ _______ _____ _____    ______ ____
ROOT
ATOM      1  O   UNL     1      -2.516   5.234  -4.219  0.00  0.00    -0.180 OA
ENDROOT
BRANCH   1   3
ATOM      2  O   UNL     1      -1.975   5.610  -6.707  0.00  0.00    -0.222 OA
ATOM      3  P   UNL     1      -1.830   6.289  -5.365  0.00  0.00    +0.540 P 
ATOM      4  O   UNL     1      -2.778   7.698  -5.336  0.00  0.00    -0.114 OA
ATOM      5  O   UNL     1      -0.220   6.607  -4.983  0.00  0.00    -0.114 OA
ENDBRANCH   1   3
BRANCH   1   6
ATOM      6  P   UNL     1      -1.847   5.620  -2.720  0.00  0.00    +0.540 P 
ATOM      7  O   UNL     1      -1.755   7.288  -2.495  0.00  0.00    -0.114 OA
ATOM      8  O   UNL     1      -0.278   4.984  -2.548  0.00  0.00    -0.114 OA
ATOM      9  O   UNL     1      -2.698   5.041  -1.619  0.00  0.00    -0.222 OA
ENDBRANCH   1   6
TORSDOF 2
ENDMDL
MODEL 9
REMARK VINA RESULT:      -3.8      9.544     11.602
REMARK  Name = 
REMARK  2 active torsions:
REMARK  status: ('A' for Active; 'I' for Inactive)
REMARK    1  A    between atoms: P_2  and  O_5
REMARK    2  A    between atoms: O_5  and  P_6
REMARK                            x       y       z     vdW  Elec       q    Type
REMARK                         _______ _______ _______ _____ _____    ______ ____
ROOT
ATOM      1  O   UNL     1      -2.683   5.769  -4.415  0.00  0.00    -0.180 OA
ENDROOT
BRANCH   1   3
ATOM      2  O   UNL     1      -4.358   6.538  -2.619  0.00  0.00    -0.222 OA
ATOM      3  P   UNL     1      -2.886   6.244  -2.794  0.00  0.00    +0.540 P 
ATOM      4  O   UNL     1      -2.459   4.897  -1.850  0.00  0.00    -0.114 OA
ATOM      5  O   UNL     1      -1.925   7.584  -2.447  0.00  0.00    -0.114 OA
ENDBRANCH   1   3
BRANCH   1   6
ATOM      6  P   UNL     1      -1.049   5.960  -4.792  0.00  0.00    +0.540 P 
ATOM      7  O   UNL     1      -0.059   5.365  -3.564  0.00  0.00    -0.114 OA
ATOM      8  O   UNL     1      -0.648   7.595  -5.039  0.00  0.00    -0.114 OA
ATOM      9  O   UNL     1      -0.729   5.213  -6.061  0.00  0.00    -0.222 OA
ENDBRANCH   1   6
TORSDOF 2
ENDMDL
