MODEL 1
REMARK VINA RESULT:      -8.1      0.000      0.000
REMARK  Name = 
REMARK  2 active torsions:
REMARK  status: ('A' for Active; 'I' for Inactive)
REMARK    1  A    between atoms: C_2  and  CA_4
REMARK    2  A    between atoms: C_6  and  C_7
REMARK                            x       y       z     vdW  Elec       q    Type
REMARK                         _______ _______ _______ _____ _____    ______ ____
ROOT
ATOM      1  CA  UNL     1       2.766   6.960  -7.258  0.00  0.00    +0.284 C 
ATOM      2  C   UNL     1       1.846   5.589  -7.319  0.00  0.00    +0.279 C 
ATOM      3  O   UNL     1       1.182   5.528  -6.260  0.00  0.00    -0.270 OA
ATOM      4  N   UNL     1       1.105   5.313  -8.513  0.00  0.00    -0.177 NA
ATOM      5  C   UNL     1       1.508   5.622  -9.837  0.00  0.00    +0.075 A 
ATOM      6  C   UNL     1       2.805   5.922 -10.240  0.00  0.00    +0.033 A 
ATOM      7  C   UNL     1       3.121   5.835 -11.586  0.00  0.00    +0.014 A 
ATOM      8  C   UNL     1       2.088   5.662 -12.501  0.00  0.00    +0.058 A 
ATOM      9  C   UNL     1       0.809   5.931 -12.069  0.00  0.00    +0.013 A 
ATOM     10 CL   UNL     1       2.440   4.996 -14.091  0.00  0.00    -0.082 Cl
ATOM     11  C   UNL     1       3.907   6.332  -9.399  0.00  0.00    +0.078 C 
ATOM     12  C   UNL     1       0.472   5.654 -10.760  0.00  0.00    +0.018 A 
ATOM     13  N   UNL     1       3.944   6.255  -8.101  0.00  0.00    -0.252 NA
ENDROOT
BRANCH  11  14
ATOM     14  C   UNL     1       5.185   6.484 -10.102  0.00  0.00    +0.017 A 
ATOM     15  C   UNL     1       5.337   7.633 -10.846  0.00  0.00    +0.001 A 
ATOM     16  C   UNL     1       6.476   7.738 -11.622  0.00  0.00    +0.000 A 
ATOM     17  C   UNL     1       7.533   6.877 -11.398  0.00  0.00    +0.000 A 
ATOM     18  C   UNL     1       7.416   5.832 -10.490  0.00  0.00    +0.000 A 
ATOM     19  C   UNL     1       6.219   5.598  -9.846  0.00  0.00    +0.001 A 
ENDBRANCH  11  14
BRANCH   1  21
ATOM     20  O   UNL     1       3.319   7.314  -5.114  0.00  0.00    -0.243 OA
ATOM     21  C   UNL     1       3.445   6.533  -5.818  0.00  0.00    +0.396 C 
ATOM     22  OXT UNL     1       4.250   5.436  -5.846  0.00  0.00    -0.243 OA
ENDBRANCH   1  21
TORSDOF 2
ENDMDL
MODEL 2
REMARK VINA RESULT:      -8.1      4.087      7.454
REMARK  Name = 
REMARK  2 active torsions:
REMARK  status: ('A' for Active; 'I' for Inactive)
REMARK    1  A    between atoms: C_2  and  CA_4
REMARK    2  A    between atoms: C_6  and  C_7
REMARK                            x       y       z     vdW  Elec       q    Type
REMARK                         _______ _______ _______ _____ _____    ______ ____
ROOT
ATOM      1  CA  UNL     1       3.288   6.774  -7.521  0.00  0.00    +0.284 C 
ATOM      2  C   UNL     1       4.125   5.407  -7.121  0.00  0.00    +0.279 C 
ATOM      3  O   UNL     1       5.137   5.351  -7.855  0.00  0.00    -0.270 OA
ATOM      4  N   UNL     1       4.369   5.133  -5.735  0.00  0.00    -0.177 NA
ATOM      5  C   UNL     1       3.499   5.439  -4.658  0.00  0.00    +0.075 A 
ATOM      6  C   UNL     1       2.144   5.732  -4.768  0.00  0.00    +0.033 A 
ATOM      7  C   UNL     1       1.350   5.642  -3.637  0.00  0.00    +0.014 A 
ATOM      8  C   UNL     1       1.967   5.472  -2.403  0.00  0.00    +0.058 A 
ATOM      9  C   UNL     1       3.314   5.748  -2.326  0.00  0.00    +0.013 A 
ATOM     10 CL   UNL     1       1.051   4.803  -1.058  0.00  0.00    -0.082 Cl
ATOM     11  C   UNL     1       1.434   6.138  -5.959  0.00  0.00    +0.078 C 
ATOM     12  C   UNL     1       4.117   5.475  -3.415  0.00  0.00    +0.018 A 
ATOM     13  N   UNL     1       1.884   6.061  -7.177  0.00  0.00    -0.252 NA
ENDROOT
BRANCH  11  14
ATOM     14  C   UNL     1      -0.016   6.282  -5.784  0.00  0.00    +0.017 A 
ATOM     15  C   UNL     1      -0.438   7.424  -5.140  0.00  0.00    +0.001 A 
ATOM     16  C   UNL     1      -1.786   7.521  -4.846  0.00  0.00    +0.000 A 
ATOM     17  C   UNL     1      -2.679   6.662  -5.457  0.00  0.00    +0.000 A 
ATOM     18  C   UNL     1      -2.227   5.626  -6.264  0.00  0.00    +0.000 A 
ATOM     19  C   UNL     1      -0.875   5.399  -6.416  0.00  0.00    +0.001 A 
ENDBRANCH  11  14
BRANCH   1  21
ATOM     20  O   UNL     1       3.657   7.086  -9.711  0.00  0.00    -0.243 OA
ATOM     21  C   UNL     1       3.196   6.345  -9.110  0.00  0.00    +0.396 C 
ATOM     22  OXT UNL     1       2.354   5.316  -9.398  0.00  0.00    -0.243 OA
ENDBRANCH   1  21
TORSDOF 2
ENDMDL
MODEL 3
REMARK VINA RESULT:      -8.1      3.415      4.799
REMARK  Name = 
REMARK  2 active torsions:
REMARK  status: ('A' for Active; 'I' for Inactive)
REMARK    1  A    between atoms: C_2  and  CA_4
REMARK    2  A    between atoms: C_6  and  C_7
REMARK                            x       y       z     vdW  Elec       q    Type
REMARK                         _______ _______ _______ _____ _____    ______ ____
ROOT
ATOM      1  CA  UNL     1       1.532   5.196 -11.440  0.00  0.00    +0.284 C 
ATOM      2  C   UNL     1       0.452   6.268 -10.797  0.00  0.00    +0.279 C 
ATOM      3  O   UNL     1      -0.646   6.095 -11.373  0.00  0.00    -0.270 OA
ATOM      4  N   UNL     1       0.372   6.391  -9.372  0.00  0.00    -0.177 NA
ATOM      5  C   UNL     1       1.452   6.268  -8.462  0.00  0.00    +0.075 A 
ATOM      6  C   UNL     1       2.802   6.351  -8.789  0.00  0.00    +0.033 A 
ATOM      7  C   UNL     1       3.719   6.585  -7.778  0.00  0.00    +0.014 A 
ATOM      8  C   UNL     1       3.285   6.518  -6.458  0.00  0.00    +0.058 A 
ATOM      9  C   UNL     1       2.082   5.891  -6.220  0.00  0.00    +0.013 A 
ATOM     10 CL   UNL     1       4.206   7.330  -5.199  0.00  0.00    -0.082 Cl
ATOM     11  C   UNL     1       3.391   6.213 -10.101  0.00  0.00    +0.078 C 
ATOM     12  C   UNL     1       1.072   6.002  -7.153  0.00  0.00    +0.018 A 
ATOM     13  N   UNL     1       2.746   6.234 -11.231  0.00  0.00    -0.252 NA
ENDROOT
BRANCH  11  14
ATOM     14  C   UNL     1       4.838   6.448 -10.147  0.00  0.00    +0.017 A 
ATOM     15  C   UNL     1       5.629   5.477  -9.572  0.00  0.00    +0.001 A 
ATOM     16  C   UNL     1       6.984   5.737  -9.484  0.00  0.00    +0.000 A 
ATOM     17  C   UNL     1       7.528   6.768 -10.225  0.00  0.00    +0.000 A 
ATOM     18  C   UNL     1       6.713   7.622 -10.956  0.00  0.00    +0.000 A 
ATOM     19  C   UNL     1       5.341   7.493 -10.903  0.00  0.00    +0.001 A 
ENDBRANCH  11  14
BRANCH   1  21
ATOM     20  O   UNL     1       1.053   4.894 -13.610  0.00  0.00    -0.243 OA
ATOM     21  C   UNL     1       1.255   5.720 -12.978  0.00  0.00    +0.396 C 
ATOM     22  OXT UNL     1       1.584   7.016 -13.230  0.00  0.00    -0.243 OA
ENDBRANCH   1  21
TORSDOF 2
ENDMDL
MODEL 4
REMARK VINA RESULT:      -8.1      3.621      5.016
REMARK  Name = 
REMARK  2 active torsions:
REMARK  status: ('A' for Active; 'I' for Inactive)
REMARK    1  A    between atoms: C_2  and  CA_4
REMARK    2  A    between atoms: C_6  and  C_7
REMARK                            x       y       z     vdW  Elec       q    Type
REMARK                         _______ _______ _______ _____ _____    ______ ____
ROOT
ATOM      1  CA  UNL     1      -0.857   6.761  -4.937  0.00  0.00    +0.284 C 
ATOM      2  C   UNL     1      -1.493   5.480  -5.764  0.00  0.00    +0.279 C 
ATOM      3  O   UNL     1      -2.731   5.485  -5.582  0.00  0.00    -0.270 OA
ATOM      4  N   UNL     1      -1.083   5.267  -7.120  0.00  0.00    -0.177 NA
ATOM      5  C   UNL     1       0.204   5.531  -7.655  0.00  0.00    +0.075 A 
ATOM      6  C   UNL     1       1.368   5.709  -6.915  0.00  0.00    +0.033 A 
ATOM      7  C   UNL     1       2.590   5.587  -7.557  0.00  0.00    +0.014 A 
ATOM      8  C   UNL     1       2.606   5.504  -8.945  0.00  0.00    +0.058 A 
ATOM      9  C   UNL     1       1.466   5.891  -9.615  0.00  0.00    +0.013 A 
ATOM     10 CL   UNL     1       3.999   4.801  -9.757  0.00  0.00    -0.082 Cl
ATOM     11  C   UNL     1       1.468   6.021  -5.508  0.00  0.00    +0.078 C 
ATOM     12  C   UNL     1       0.236   5.653  -9.038  0.00  0.00    +0.018 A 
ATOM     13  N   UNL     1       0.502   5.947  -4.641  0.00  0.00    -0.252 NA
ENDROOT
BRANCH  11  14
ATOM     14  C   UNL     1       2.840   6.051  -4.987  0.00  0.00    +0.017 A 
ATOM     15  C   UNL     1       3.410   7.298  -4.853  0.00  0.00    +0.001 A 
ATOM     16  C   UNL     1       4.744   7.346  -4.491  0.00  0.00    +0.000 A 
ATOM     17  C   UNL     1       5.353   6.213  -3.986  0.00  0.00    +0.000 A 
ATOM     18  C   UNL     1       4.679   4.999  -3.957  0.00  0.00    +0.000 A 
ATOM     19  C   UNL     1       3.411   4.892  -4.490  0.00  0.00    +0.001 A 
ENDBRANCH  11  14
BRANCH   1  21
ATOM     20  O   UNL     1      -2.109   7.073  -3.103  0.00  0.00    -0.243 OA
ATOM     21  C   UNL     1      -1.538   6.281  -3.515  0.00  0.00    +0.396 C 
ATOM     22  OXT UNL     1      -1.062   5.117  -2.994  0.00  0.00    -0.243 OA
ENDBRANCH   1  21
TORSDOF 2
ENDMDL
MODEL 5
REMARK VINA RESULT:      -8.0      3.440      5.594
REMARK  Name = 
REMARK  2 active torsions:
REMARK  status: ('A' for Active; 'I' for Inactive)
REMARK    1  A    between atoms: C_2  and  CA_4
REMARK    2  A    between atoms: C_6  and  C_7
REMARK                            x       y       z     vdW  Elec       q    Type
REMARK                         _______ _______ _______ _____ _____    ______ ____
ROOT
ATOM      1  CA  UNL     1       3.115   5.109  -9.490  0.00  0.00    +0.284 C 
ATOM      2  C   UNL     1       1.916   6.129  -9.993  0.00  0.00    +0.279 C 
ATOM      3  O   UNL     1       1.859   6.065 -11.241  0.00  0.00    -0.270 OA
ATOM      4  N   UNL     1       0.648   6.078  -9.328  0.00  0.00    -0.177 NA
ATOM      5  C   UNL     1       0.437   5.808  -7.952  0.00  0.00    +0.075 A 
ATOM      6  C   UNL     1       1.402   5.885  -6.953  0.00  0.00    +0.033 A 
ATOM      7  C   UNL     1       0.989   5.963  -5.633  0.00  0.00    +0.014 A 
ATOM      8  C   UNL     1      -0.353   5.747  -5.343  0.00  0.00    +0.058 A 
ATOM      9  C   UNL     1      -1.119   5.137  -6.311  0.00  0.00    +0.013 A 
ATOM     10 CL   UNL     1      -1.028   6.367  -3.841  0.00  0.00    -0.082 Cl
ATOM     11  C   UNL     1       2.837   5.891  -7.125  0.00  0.00    +0.078 C 
ATOM     12  C   UNL     1      -0.851   5.395  -7.639  0.00  0.00    +0.018 A 
ATOM     13  N   UNL     1       3.468   6.073  -8.248  0.00  0.00    -0.252 NA
ENDROOT
BRANCH  11  14
ATOM     14  C   UNL     1       3.598   6.082  -5.886  0.00  0.00    +0.017 A 
ATOM     15  C   UNL     1       4.074   4.938  -5.284  0.00  0.00    +0.001 A 
ATOM     16  C   UNL     1       4.679   5.079  -4.048  0.00  0.00    +0.000 A 
ATOM     17  C   UNL     1       5.059   6.335  -3.617  0.00  0.00    +0.000 A 
ATOM     18  C   UNL     1       4.728   7.467  -4.351  0.00  0.00    +0.000 A 
ATOM     19  C   UNL     1       3.959   7.359  -5.491  0.00  0.00    +0.001 A 
ENDBRANCH  11  14
BRANCH   1  21
ATOM     20  O   UNL     1       4.724   5.097 -11.052  0.00  0.00    -0.243 OA
ATOM     21  C   UNL     1       4.238   5.828 -10.458  0.00  0.00    +0.396 C 
ATOM     22  OXT UNL     1       4.538   7.121 -10.159  0.00  0.00    -0.243 OA
ENDBRANCH   1  21
TORSDOF 2
ENDMDL
MODEL 6
REMARK VINA RESULT:      -7.9      3.002      6.066
REMARK  Name = 
REMARK  2 active torsions:
REMARK  status: ('A' for Active; 'I' for Inactive)
REMARK    1  A    between atoms: C_2  and  CA_4
REMARK    2  A    between atoms: C_6  and  C_7
REMARK                            x       y       z     vdW  Elec       q    Type
REMARK                         _______ _______ _______ _____ _____    ______ ____
ROOT
ATOM      1  CA  UNL     1       3.073   5.073  -4.128  0.00  0.00    +0.284 C 
ATOM      2  C   UNL     1       4.200   6.084  -4.790  0.00  0.00    +0.279 C 
ATOM      3  O   UNL     1       5.274   5.915  -4.171  0.00  0.00    -0.270 OA
ATOM      4  N   UNL     1       4.326   6.132  -6.216  0.00  0.00    -0.177 NA
ATOM      5  C   UNL     1       3.271   5.988  -7.153  0.00  0.00    +0.075 A 
ATOM      6  C   UNL     1       1.915   6.119  -6.874  0.00  0.00    +0.033 A 
ATOM      7  C   UNL     1       1.036   6.322  -7.925  0.00  0.00    +0.014 A 
ATOM      8  C   UNL     1       1.508   6.177  -9.224  0.00  0.00    +0.058 A 
ATOM      9  C   UNL     1       2.702   5.511  -9.392  0.00  0.00    +0.013 A 
ATOM     10 CL   UNL     1       0.647   6.945 -10.552  0.00  0.00    -0.082 Cl
ATOM     11  C   UNL     1       1.283   6.063  -5.576  0.00  0.00    +0.078 C 
ATOM     12  C   UNL     1       3.685   5.646  -8.434  0.00  0.00    +0.018 A 
ATOM     13  N   UNL     1       1.893   6.127  -4.429  0.00  0.00    -0.252 NA
ENDROOT
BRANCH  11  14
ATOM     14  C   UNL     1      -0.159   6.334  -5.589  0.00  0.00    +0.017 A 
ATOM     15  C   UNL     1      -0.959   5.336  -6.101  0.00  0.00    +0.001 A 
ATOM     16  C   UNL     1      -2.305   5.619  -6.246  0.00  0.00    +0.000 A 
ATOM     17  C   UNL     1      -2.841   6.721  -5.609  0.00  0.00    +0.000 A 
ATOM     18  C   UNL     1      -2.023   7.615  -4.931  0.00  0.00    +0.000 A 
ATOM     19  C   UNL     1      -0.654   7.451  -4.936  0.00  0.00    +0.001 A 
ENDBRANCH  11  14
BRANCH   1  21
ATOM     20  O   UNL     1       3.564   4.879  -1.949  0.00  0.00    -0.243 OA
ATOM     21  C   UNL     1       3.316   5.668  -2.611  0.00  0.00    +0.396 C 
ATOM     22  OXT UNL     1       2.912   6.952  -2.408  0.00  0.00    -0.243 OA
ENDBRANCH   1  21
TORSDOF 2
ENDMDL
MODEL 7
REMARK VINA RESULT:      -7.9      3.954      7.170
REMARK  Name = 
REMARK  2 active torsions:
REMARK  status: ('A' for Active; 'I' for Inactive)
REMARK    1  A    between atoms: C_2  and  CA_4
REMARK    2  A    between atoms: C_6  and  C_7
REMARK                            x       y       z     vdW  Elec       q    Type
REMARK                         _______ _______ _______ _____ _____    ______ ____
ROOT
ATOM      1  CA  UNL     1       2.167   6.403  -9.093  0.00  0.00    +0.284 C 
ATOM      2  C   UNL     1       3.113   5.063  -8.902  0.00  0.00    +0.279 C 
ATOM      3  O   UNL     1       3.758   4.897  -9.962  0.00  0.00    -0.270 OA
ATOM      4  N   UNL     1       3.883   4.932  -7.701  0.00  0.00    -0.177 NA
ATOM      5  C   UNL     1       3.500   5.378  -6.411  0.00  0.00    +0.075 A 
ATOM      6  C   UNL     1       2.205   5.699  -6.015  0.00  0.00    +0.033 A 
ATOM      7  C   UNL     1       1.918   5.756  -4.661  0.00  0.00    +0.014 A 
ATOM      8  C   UNL     1       2.971   5.701  -3.755  0.00  0.00    +0.058 A 
ATOM      9  C   UNL     1       4.237   5.942  -4.241  0.00  0.00    +0.013 A 
ATOM     10 CL   UNL     1       2.663   5.209  -2.094  0.00  0.00    -0.082 Cl
ATOM     11  C   UNL     1       1.080   5.997  -6.872  0.00  0.00    +0.078 C 
ATOM     12  C   UNL     1       4.553   5.528  -5.519  0.00  0.00    +0.018 A 
ATOM     13  N   UNL     1       1.019   5.776  -8.152  0.00  0.00    -0.252 NA
ENDROOT
BRANCH  11  14
ATOM     14  C   UNL     1      -0.187   6.204  -6.162  0.00  0.00    +0.017 A 
ATOM     15  C   UNL     1      -0.286   7.361  -5.422  0.00  0.00    +0.001 A 
ATOM     16  C   UNL     1      -1.416   7.515  -4.640  0.00  0.00    +0.000 A 
ATOM     17  C   UNL     1      -2.509   6.699  -4.855  0.00  0.00    +0.000 A 
ATOM     18  C   UNL     1      -2.440   5.646  -5.759  0.00  0.00    +0.000 A 
ATOM     19  C   UNL     1      -1.258   5.361  -6.409  0.00  0.00    +0.001 A 
ENDBRANCH  11  14
BRANCH   1  21
ATOM     20  O   UNL     1       1.544   6.520 -11.244  0.00  0.00    -0.243 OA
ATOM     21  C   UNL     1       1.468   5.810 -10.462  0.00  0.00    +0.396 C 
ATOM     22  OXT UNL     1       0.708   4.692 -10.302  0.00  0.00    -0.243 OA
ENDBRANCH   1  21
TORSDOF 2
ENDMDL
MODEL 8
REMARK VINA RESULT:      -7.8      4.386      6.291
REMARK  Name = 
REMARK  2 active torsions:
REMARK  status: ('A' for Active; 'I' for Inactive)
REMARK    1  A    between atoms: C_2  and  CA_4
REMARK    2  A    between atoms: C_6  and  C_7
REMARK                            x       y       z     vdW  Elec       q    Type
REMARK                         _______ _______ _______ _____ _____    ______ ____
ROOT
ATOM      1  CA  UNL     1       2.461   6.134  -2.050  0.00  0.00    +0.284 C 
ATOM      2  C   UNL     1       1.456   4.938  -1.514  0.00  0.00    +0.279 C 
ATOM      3  O   UNL     1       1.693   4.757  -0.298  0.00  0.00    -0.270 OA
ATOM      4  N   UNL     1       0.066   5.005  -1.854  0.00  0.00    -0.177 NA
ATOM      5  C   UNL     1      -0.474   5.514  -3.063  0.00  0.00    +0.075 A 
ATOM      6  C   UNL     1       0.231   5.712  -4.245  0.00  0.00    +0.033 A 
ATOM      7  C   UNL     1      -0.479   5.852  -5.427  0.00  0.00    +0.014 A 
ATOM      8  C   UNL     1      -1.859   6.003  -5.360  0.00  0.00    +0.058 A 
ATOM      9  C   UNL     1      -2.399   6.349  -4.141  0.00  0.00    +0.013 A 
ATOM     10 CL   UNL     1      -2.843   5.625  -6.768  0.00  0.00    -0.082 Cl
ATOM     11  C   UNL     1       1.664   5.796  -4.403  0.00  0.00    +0.078 C 
ATOM     12  C   UNL     1      -1.815   5.866  -2.989  0.00  0.00    +0.018 A 
ATOM     13  N   UNL     1       2.549   5.459  -3.511  0.00  0.00    -0.252 NA
ENDROOT
BRANCH  11  14
ATOM     14  C   UNL     1       2.119   5.912  -5.793  0.00  0.00    +0.017 A 
ATOM     15  C   UNL     1       2.329   7.191  -6.258  0.00  0.00    +0.001 A 
ATOM     16  C   UNL     1       2.629   7.334  -7.601  0.00  0.00    +0.000 A 
ATOM     17  C   UNL     1       3.007   6.226  -8.334  0.00  0.00    +0.000 A 
ATOM     18  C   UNL     1       2.968   4.957  -7.772  0.00  0.00    +0.000 A 
ATOM     19  C   UNL     1       2.489   4.775  -6.491  0.00  0.00    +0.001 A 
ENDBRANCH  11  14
BRANCH   1  21
ATOM     20  O   UNL     1       4.041   4.548  -2.186  0.00  0.00    -0.243 OA
ATOM     21  C   UNL     1       3.809   5.343  -1.526  0.00  0.00    +0.396 C 
ATOM     22  OXT UNL     1       4.216   5.643  -0.262  0.00  0.00    -0.243 OA
ENDBRANCH   1  21
TORSDOF 2
ENDMDL
MODEL 9
REMARK VINA RESULT:      -7.6      1.983      2.789
REMARK  Name = 
REMARK  2 active torsions:
REMARK  status: ('A' for Active; 'I' for Inactive)
REMARK    1  A    between atoms: C_2  and  CA_4
REMARK    2  A    between atoms: C_6  and  C_7
REMARK                            x       y       z     vdW  Elec       q    Type
REMARK                         _______ _______ _______ _____ _____    ______ ____
ROOT
ATOM      1  CA  UNL     1       3.116   6.729  -4.970  0.00  0.00    +0.284 C 
ATOM      2  C   UNL     1       2.256   5.362  -4.621  0.00  0.00    +0.279 C 
ATOM      3  O   UNL     1       2.027   5.359  -3.391  0.00  0.00    -0.270 OA
ATOM      4  N   UNL     1       1.132   5.030  -5.445  0.00  0.00    -0.177 NA
ATOM      5  C   UNL     1       1.018   5.269  -6.838  0.00  0.00    +0.075 A 
ATOM      6  C   UNL     1       2.073   5.540  -7.703  0.00  0.00    +0.033 A 
ATOM      7  C   UNL     1       1.874   5.383  -9.065  0.00  0.00    +0.014 A 
ATOM      8  C   UNL     1       0.580   5.169  -9.528  0.00  0.00    +0.058 A 
ATOM      9  C   UNL     1      -0.455   5.468  -8.670  0.00  0.00    +0.013 A 
ATOM     10 CL   UNL     1       0.333   4.422 -11.101  0.00  0.00    -0.082 Cl
ATOM     11  C   UNL     1       3.400   5.986  -7.347  0.00  0.00    +0.078 C 
ATOM     12  C   UNL     1      -0.286   5.260  -7.317  0.00  0.00    +0.018 A 
ATOM     13  N   UNL     1       3.911   5.974  -6.151  0.00  0.00    -0.252 NA
ENDROOT
BRANCH  11  14
ATOM     14  C   UNL     1       4.330   6.093  -8.477  0.00  0.00    +0.017 A 
ATOM     15  C   UNL     1       5.416   5.247  -8.451  0.00  0.00    +0.001 A 
ATOM     16  C   UNL     1       6.375   5.420  -9.433  0.00  0.00    +0.000 A 
ATOM     17  C   UNL     1       6.078   6.183 -10.545  0.00  0.00    +0.000 A 
ATOM     18  C   UNL     1       4.879   6.879 -10.629  0.00  0.00    +0.000 A 
ATOM     19  C   UNL     1       3.992   6.870  -9.573  0.00  0.00    +0.001 A 
ENDBRANCH  11  14
BRANCH   1  21
ATOM     20  O   UNL     1       4.432   7.199  -3.217  0.00  0.00    -0.243 OA
ATOM     21  C   UNL     1       4.281   6.372  -3.861  0.00  0.00    +0.396 C 
ATOM     22  OXT UNL     1       5.011   5.250  -4.109  0.00  0.00    -0.243 OA
ENDBRANCH   1  21
TORSDOF 2
ENDMDL
