MODEL 1
REMARK VINA RESULT:      -8.4      0.000      0.000
REMARK  Name = 
REMARK  5 active torsions:
REMARK  status: ('A' for Active; 'I' for Inactive)
REMARK    1  A    between atoms: N_2  and  C_3
REMARK    2  A    between atoms: N_2  and  C_14
REMARK    3  A    between atoms: C_3  and  C_4
REMARK    4  A    between atoms: C_7  and  C_8
REMARK    5  A    between atoms: C_14  and  C_15
REMARK                            x       y       z     vdW  Elec       q    Type
REMARK                         _______ _______ _______ _____ _____    ______ ____
ROOT
ATOM      1  C   UNL     1       2.850   6.983  -4.110  0.00  0.00    +0.090 C 
ATOM      2  N   UNL     1       2.364   6.185  -5.219  0.00  0.00    -0.264 NA
ENDROOT
BRANCH   2   3
ATOM      3  C   UNL     1       1.637   5.018  -4.770  0.00  0.00    +0.099 C 
BRANCH   3   4
ATOM      4  C   UNL     1       0.234   4.997  -5.292  0.00  0.00    -0.006 A 
ATOM      5  C   UNL     1      -0.738   5.511  -4.451  0.00  0.00    -0.003 A 
ATOM      6  C   UNL     1      -1.981   5.908  -4.920  0.00  0.00    -0.000 A 
ATOM      7  C   UNL     1      -3.097   5.782  -4.113  0.00  0.00    -0.000 A 
ATOM      8  C   UNL     1      -2.933   5.749  -2.736  0.00  0.00    -0.000 A 
ATOM      9  C   UNL     1      -1.664   5.563  -2.245  0.00  0.00    -0.000 A 
ATOM     10  C   UNL     1      -2.191   5.761  -6.281  0.00  0.00    -0.000 A 
ATOM     11  C   UNL     1      -1.120   5.636  -7.146  0.00  0.00    -0.000 A 
ATOM     12  C   UNL     1      -0.568   5.537  -3.084  0.00  0.00    -0.000 A 
ATOM     13  C   UNL     1      -0.017   4.963  -6.644  0.00  0.00    -0.003 A 
ENDBRANCH   3   4
ENDBRANCH   2   3
BRANCH   2  14
ATOM     14  C   UNL     1       3.505   5.844  -6.028  0.00  0.00    +0.099 C 
BRANCH  14  15
ATOM     15  C   UNL     1       3.371   6.319  -7.439  0.00  0.00    -0.006 A 
ATOM     16  C   UNL     1       3.879   5.592  -8.509  0.00  0.00    -0.003 A 
ATOM     17  C   UNL     1       3.132   5.463  -9.674  0.00  0.00    -0.005 A 
ATOM     18  C   UNL     1       1.959   6.186  -9.856  0.00  0.00    -0.023 A 
ATOM     19  C   UNL     1       1.791   7.250  -8.979  0.00  0.00    -0.005 A 
ATOM     20  C   UNL     1       2.500   7.344  -7.790  0.00  0.00    -0.003 A 
BRANCH  18  21
ATOM     21  C   UNL     1       0.925   5.760 -10.822  0.00  0.00    +0.019 C 
ATOM     22  C   UNL     1       1.598   5.636 -12.183  0.00  0.00    +0.004 C 
ATOM     23  C   UNL     1      -0.125   6.854 -10.874  0.00  0.00    +0.004 C 
ATOM     24  C   UNL     1       0.328   4.444 -10.388  0.00  0.00    +0.004 C 
ENDBRANCH  18  21
ENDBRANCH  14  15
ENDBRANCH   2  14
TORSDOF 5
ENDMDL
MODEL 2
REMARK VINA RESULT:      -8.2      1.851      3.669
REMARK  Name = 
REMARK  5 active torsions:
REMARK  status: ('A' for Active; 'I' for Inactive)
REMARK    1  A    between atoms: N_2  and  C_3
REMARK    2  A    between atoms: N_2  and  C_14
REMARK    3  A    between atoms: C_3  and  C_4
REMARK    4  A    between atoms: C_7  and  C_8
REMARK    5  A    between atoms: C_14  and  C_15
REMARK                            x       y       z     vdW  Elec       q    Type
REMARK                         _______ _______ _______ _____ _____    ______ ____
ROOT
ATOM      1  C   UNL     1       1.907   6.687  -0.741  0.00  0.00    +0.090 C 
ATOM      2  N   UNL     1       1.733   6.095  -2.053  0.00  0.00    -0.264 NA
ENDROOT
BRANCH   2   3
ATOM      3  C   UNL     1       0.588   5.212  -2.102  0.00  0.00    +0.099 C 
BRANCH   3   4
ATOM      4  C   UNL     1      -0.618   5.892  -2.670  0.00  0.00    -0.006 A 
ATOM      5  C   UNL     1      -0.938   5.575  -3.980  0.00  0.00    -0.003 A 
ATOM      6  C   UNL     1      -2.199   5.810  -4.505  0.00  0.00    -0.000 A 
ATOM      7  C   UNL     1      -2.342   6.125  -5.845  0.00  0.00    -0.000 A 
ATOM      8  C   UNL     1      -1.358   5.729  -6.738  0.00  0.00    -0.000 A 
ATOM      9  C   UNL     1      -0.162   5.291  -6.225  0.00  0.00    -0.000 A 
ATOM     10  C   UNL     1      -3.120   6.379  -3.642  0.00  0.00    -0.000 A 
ATOM     11  C   UNL     1      -2.929   6.320  -2.274  0.00  0.00    -0.000 A 
ATOM     12  C   UNL     1       0.017   5.127  -4.866  0.00  0.00    -0.000 A 
ATOM     13  C   UNL     1      -1.611   6.373  -1.848  0.00  0.00    -0.003 A 
ENDBRANCH   3   4
ENDBRANCH   2   3
BRANCH   2  14
ATOM     14  C   UNL     1       2.962   5.420  -2.378  0.00  0.00    +0.099 C 
BRANCH  14  15
ATOM     15  C   UNL     1       3.631   5.996  -3.585  0.00  0.00    -0.006 A 
ATOM     16  C   UNL     1       4.689   5.352  -4.215  0.00  0.00    -0.003 A 
ATOM     17  C   UNL     1       4.743   5.304  -5.603  0.00  0.00    -0.005 A 
ATOM     18  C   UNL     1       3.848   6.032  -6.379  0.00  0.00    -0.023 A 
ATOM     19  C   UNL     1       3.163   7.028  -5.695  0.00  0.00    -0.005 A 
ATOM     20  C   UNL     1       3.067   7.039  -4.311  0.00  0.00    -0.003 A 
BRANCH  18  21
ATOM     21  C   UNL     1       3.566   5.672  -7.784  0.00  0.00    +0.019 C 
ATOM     22  C   UNL     1       4.906   5.541  -8.497  0.00  0.00    +0.004 C 
ATOM     23  C   UNL     1       2.777   6.815  -8.395  0.00  0.00    +0.004 C 
ATOM     24  C   UNL     1       2.791   4.378  -7.837  0.00  0.00    +0.004 C 
ENDBRANCH  18  21
ENDBRANCH  14  15
ENDBRANCH   2  14
TORSDOF 5
ENDMDL
MODEL 3
REMARK VINA RESULT:      -8.2      3.472      8.471
REMARK  Name = 
REMARK  5 active torsions:
REMARK  status: ('A' for Active; 'I' for Inactive)
REMARK    1  A    between atoms: N_2  and  C_3
REMARK    2  A    between atoms: N_2  and  C_14
REMARK    3  A    between atoms: C_3  and  C_4
REMARK    4  A    between atoms: C_7  and  C_8
REMARK    5  A    between atoms: C_14  and  C_15
REMARK                            x       y       z     vdW  Elec       q    Type
REMARK                         _______ _______ _______ _____ _____    ______ ____
ROOT
ATOM      1  C   UNL     1       2.663   6.837 -14.934  0.00  0.00    +0.090 C 
ATOM      2  N   UNL     1       2.592   6.039 -13.726  0.00  0.00    -0.264 NA
ENDROOT
BRANCH   2   3
ATOM      3  C   UNL     1       3.734   5.159 -13.589  0.00  0.00    +0.099 C 
BRANCH   3   4
ATOM      4  C   UNL     1       4.504   5.433 -12.336  0.00  0.00    -0.006 A 
ATOM      5  C   UNL     1       5.807   5.868 -12.502  0.00  0.00    -0.003 A 
ATOM      6  C   UNL     1       6.502   6.513 -11.490  0.00  0.00    -0.000 A 
ATOM      7  C   UNL     1       7.872   6.355 -11.382  0.00  0.00    -0.000 A 
ATOM      8  C   UNL     1       8.599   5.999 -12.508  0.00  0.00    -0.000 A 
ATOM      9  C   UNL     1       7.907   5.550 -13.605  0.00  0.00    -0.000 A 
ATOM     10  C   UNL     1       5.812   6.697 -10.304  0.00  0.00    -0.000 A 
ATOM     11  C   UNL     1       4.432   6.631 -10.277  0.00  0.00    -0.000 A 
ATOM     12  C   UNL     1       6.526   5.570 -13.639  0.00  0.00    -0.000 A 
ATOM     13  C   UNL     1       3.856   5.730 -11.158  0.00  0.00    -0.003 A 
ENDBRANCH   3   4
ENDBRANCH   2   3
BRANCH   2  14
ATOM     14  C   UNL     1       1.346   5.320 -13.766  0.00  0.00    +0.099 C 
BRANCH  14  15
ATOM     15  C   UNL     1       0.523   5.530 -12.536  0.00  0.00    -0.006 A 
ATOM     16  C   UNL     1       0.077   4.465 -11.761  0.00  0.00    -0.003 A 
ATOM     17  C   UNL     1       0.125   4.551 -10.375  0.00  0.00    -0.005 A 
ATOM     18  C   UNL     1       0.455   5.745  -9.743  0.00  0.00    -0.023 A 
ATOM     19  C   UNL     1       0.389   6.869 -10.555  0.00  0.00    -0.005 A 
ATOM     20  C   UNL     1       0.397   6.779 -11.940  0.00  0.00    -0.003 A 
BRANCH  18  21
ATOM     21  C   UNL     1       0.958   5.776  -8.354  0.00  0.00    +0.019 C 
ATOM     22  C   UNL     1       1.961   4.638  -8.208  0.00  0.00    +0.004 C 
ATOM     23  C   UNL     1      -0.225   5.529  -7.437  0.00  0.00    +0.004 C 
ATOM     24  C   UNL     1       1.604   7.111  -8.072  0.00  0.00    +0.004 C 
ENDBRANCH  18  21
ENDBRANCH  14  15
ENDBRANCH   2  14
TORSDOF 5
ENDMDL
MODEL 4
REMARK VINA RESULT:      -8.1      0.715      2.166
REMARK  Name = 
REMARK  5 active torsions:
REMARK  status: ('A' for Active; 'I' for Inactive)
REMARK    1  A    between atoms: N_2  and  C_3
REMARK    2  A    between atoms: N_2  and  C_14
REMARK    3  A    between atoms: C_3  and  C_4
REMARK    4  A    between atoms: C_7  and  C_8
REMARK    5  A    between atoms: C_14  and  C_15
REMARK                            x       y       z     vdW  Elec       q    Type
REMARK                         _______ _______ _______ _____ _____    ______ ____
ROOT
ATOM      1  C   UNL     1       4.154   6.788  -4.546  0.00  0.00    +0.090 C 
ATOM      2  N   UNL     1       3.209   6.161  -5.449  0.00  0.00    -0.264 NA
ENDROOT
BRANCH   2   3
ATOM      3  C   UNL     1       2.420   5.145  -4.787  0.00  0.00    +0.099 C 
BRANCH   3   4
ATOM      4  C   UNL     1       1.146   5.700  -4.231  0.00  0.00    -0.006 A 
ATOM      5  C   UNL     1      -0.006   5.417  -4.945  0.00  0.00    -0.003 A 
ATOM      6  C   UNL     1      -1.267   5.522  -4.377  0.00  0.00    -0.000 A 
ATOM      7  C   UNL     1      -2.348   5.889  -5.157  0.00  0.00    -0.000 A 
ATOM      8  C   UNL     1      -2.298   5.667  -6.525  0.00  0.00    -0.000 A 
ATOM      9  C   UNL     1      -1.082   5.353  -7.081  0.00  0.00    -0.000 A 
ATOM     10  C   UNL     1      -1.304   5.926  -3.053  0.00  0.00    -0.000 A 
ATOM     11  C   UNL     1      -0.180   5.817  -2.255  0.00  0.00    -0.000 A 
ATOM     12  C   UNL     1       0.032   5.139  -6.294  0.00  0.00    -0.000 A 
ATOM     13  C   UNL     1       1.034   6.010  -2.895  0.00  0.00    -0.003 A 
ENDBRANCH   3   4
ENDBRANCH   2   3
BRANCH   2  14
ATOM     14  C   UNL     1       3.965   5.636  -6.556  0.00  0.00    +0.099 C 
BRANCH  14  15
ATOM     15  C   UNL     1       3.567   6.244  -7.862  0.00  0.00    -0.006 A 
ATOM     16  C   UNL     1       4.009   5.730  -9.076  0.00  0.00    -0.003 A 
ATOM     17  C   UNL     1       3.127   5.625 -10.145  0.00  0.00    -0.005 A 
ATOM     18  C   UNL     1       1.853   6.179 -10.078  0.00  0.00    -0.023 A 
ATOM     19  C   UNL     1       1.672   7.098  -9.052  0.00  0.00    -0.005 A 
ATOM     20  C   UNL     1       2.526   7.160  -7.960  0.00  0.00    -0.003 A 
BRANCH  18  21
ATOM     21  C   UNL     1       0.757   5.716 -10.955  0.00  0.00    +0.019 C 
ATOM     22  C   UNL     1       1.337   5.542 -12.353  0.00  0.00    +0.004 C 
ATOM     23  C   UNL     1      -0.297   6.807 -10.976  0.00  0.00    +0.004 C 
ATOM     24  C   UNL     1       0.195   4.417 -10.432  0.00  0.00    +0.004 C 
ENDBRANCH  18  21
ENDBRANCH  14  15
ENDBRANCH   2  14
TORSDOF 5
ENDMDL
MODEL 5
REMARK VINA RESULT:      -7.9      2.220      3.396
REMARK  Name = 
REMARK  5 active torsions:
REMARK  status: ('A' for Active; 'I' for Inactive)
REMARK    1  A    between atoms: N_2  and  C_3
REMARK    2  A    between atoms: N_2  and  C_14
REMARK    3  A    between atoms: C_3  and  C_4
REMARK    4  A    between atoms: C_7  and  C_8
REMARK    5  A    between atoms: C_14  and  C_15
REMARK                            x       y       z     vdW  Elec       q    Type
REMARK                         _______ _______ _______ _____ _____    ______ ____
ROOT
ATOM      1  C   UNL     1       2.143   6.958  -0.627  0.00  0.00    +0.090 C 
ATOM      2  N   UNL     1       2.242   6.195  -1.856  0.00  0.00    -0.264 NA
ENDROOT
BRANCH   2   3
ATOM      3  C   UNL     1       1.234   5.160  -1.934  0.00  0.00    +0.099 C 
BRANCH   3   4
ATOM      4  C   UNL     1       0.325   5.352  -3.107  0.00  0.00    -0.006 A 
ATOM      5  C   UNL     1      -0.866   6.012  -2.856  0.00  0.00    -0.003 A 
ATOM      6  C   UNL     1      -1.613   6.592  -3.869  0.00  0.00    -0.000 A 
ATOM      7  C   UNL     1      -2.992   6.642  -3.770  0.00  0.00    -0.000 A 
ATOM      8  C   UNL     1      -3.578   6.591  -2.514  0.00  0.00    -0.000 A 
ATOM      9  C   UNL     1      -2.793   6.215  -1.452  0.00  0.00    -0.000 A 
ATOM     10  C   UNL     1      -1.096   6.471  -5.148  0.00  0.00    -0.000 A 
ATOM     11  C   UNL     1       0.241   6.180  -5.340  0.00  0.00    -0.000 A 
ATOM     12  C   UNL     1      -1.435   6.018  -1.601  0.00  0.00    -0.000 A 
ATOM     13  C   UNL     1       0.818   5.349  -4.392  0.00  0.00    -0.003 A 
ENDBRANCH   3   4
ENDBRANCH   2   3
BRANCH   2  14
ATOM     14  C   UNL     1       3.579   5.667  -1.921  0.00  0.00    +0.099 C 
BRANCH  14  15
ATOM     15  C   UNL     1       4.263   5.991  -3.209  0.00  0.00    -0.006 A 
ATOM     16  C   UNL     1       4.947   5.027  -3.940  0.00  0.00    -0.003 A 
ATOM     17  C   UNL     1       4.819   4.987  -5.324  0.00  0.00    -0.005 A 
ATOM     18  C   UNL     1       4.154   5.997  -6.010  0.00  0.00    -0.023 A 
ATOM     19  C   UNL     1       3.948   7.159  -5.276  0.00  0.00    -0.005 A 
ATOM     20  C   UNL     1       4.023   7.178  -3.891  0.00  0.00    -0.003 A 
BRANCH  18  21
ATOM     21  C   UNL     1       3.603   5.785  -7.364  0.00  0.00    +0.019 C 
ATOM     22  C   UNL     1       4.781   5.568  -8.306  0.00  0.00    +0.004 C 
ATOM     23  C   UNL     1       2.867   7.052  -7.758  0.00  0.00    +0.004 C 
ATOM     24  C   UNL     1       2.681   4.590  -7.361  0.00  0.00    +0.004 C 
ENDBRANCH  18  21
ENDBRANCH  14  15
ENDBRANCH   2  14
TORSDOF 5
ENDMDL
MODEL 6
REMARK VINA RESULT:      -7.8      2.539      5.619
REMARK  Name = 
REMARK  5 active torsions:
REMARK  status: ('A' for Active; 'I' for Inactive)
REMARK    1  A    between atoms: N_2  and  C_3
REMARK    2  A    between atoms: N_2  and  C_14
REMARK    3  A    between atoms: C_3  and  C_4
REMARK    4  A    between atoms: C_7  and  C_8
REMARK    5  A    between atoms: C_14  and  C_15
REMARK                            x       y       z     vdW  Elec       q    Type
REMARK                         _______ _______ _______ _____ _____    ______ ____
ROOT
ATOM      1  C   UNL     1       2.111   3.859  -6.581  0.00  0.00    +0.090 C 
ATOM      2  N   UNL     1       2.290   5.071  -5.807  0.00  0.00    -0.264 NA
ENDROOT
BRANCH   2   3
ATOM      3  C   UNL     1       1.288   6.067  -6.119  0.00  0.00    +0.099 C 
BRANCH   3   4
ATOM      4  C   UNL     1      -0.098   5.571  -5.848  0.00  0.00    -0.006 A 
ATOM      5  C   UNL     1      -0.590   5.796  -4.574  0.00  0.00    -0.003 A 
ATOM      6  C   UNL     1      -1.946   5.749  -4.291  0.00  0.00    -0.000 A 
ATOM      7  C   UNL     1      -2.378   5.322  -3.049  0.00  0.00    -0.000 A 
ATOM      8  C   UNL     1      -1.518   5.424  -1.965  0.00  0.00    -0.000 A 
ATOM      9  C   UNL     1      -0.193   5.680  -2.217  0.00  0.00    -0.000 A 
ATOM     10  C   UNL     1      -2.779   5.464  -5.359  0.00  0.00    -0.000 A 
ATOM     11  C   UNL     1      -2.338   5.636  -6.658  0.00  0.00    -0.000 A 
ATOM     12  C   UNL     1       0.252   5.956  -3.495  0.00  0.00    -0.000 A 
ATOM     13  C   UNL     1      -0.993   5.380  -6.876  0.00  0.00    -0.003 A 
ENDBRANCH   3   4
ENDBRANCH   2   3
BRANCH   2  14
ATOM     14  C   UNL     1       3.628   5.540  -6.057  0.00  0.00    +0.099 C 
BRANCH  14  15
ATOM     15  C   UNL     1       4.400   5.772  -4.799  0.00  0.00    -0.006 A 
ATOM     16  C   UNL     1       5.003   6.993  -4.522  0.00  0.00    -0.003 A 
ATOM     17  C   UNL     1       4.934   7.525  -3.240  0.00  0.00    -0.005 A 
ATOM     18  C   UNL     1       4.416   6.782  -2.184  0.00  0.00    -0.023 A 
ATOM     19  C   UNL     1       4.308   5.419  -2.431  0.00  0.00    -0.005 A 
ATOM     20  C   UNL     1       4.324   4.900  -3.718  0.00  0.00    -0.003 A 
BRANCH  18  21
ATOM     21  C   UNL     1       3.905   7.426  -0.957  0.00  0.00    +0.019 C 
ATOM     22  C   UNL     1       4.934   7.192   0.142  0.00  0.00    +0.004 C 
ATOM     23  C   UNL     1       2.606   6.734  -0.589  0.00  0.00    +0.004 C 
ATOM     24  C   UNL     1       3.695   8.901  -1.201  0.00  0.00    +0.004 C 
ENDBRANCH  18  21
ENDBRANCH  14  15
ENDBRANCH   2  14
TORSDOF 5
ENDMDL
MODEL 7
REMARK VINA RESULT:      -7.7      2.537      7.699
REMARK  Name = 
REMARK  5 active torsions:
REMARK  status: ('A' for Active; 'I' for Inactive)
REMARK    1  A    between atoms: N_2  and  C_3
REMARK    2  A    between atoms: N_2  and  C_14
REMARK    3  A    between atoms: C_3  and  C_4
REMARK    4  A    between atoms: C_7  and  C_8
REMARK    5  A    between atoms: C_14  and  C_15
REMARK                            x       y       z     vdW  Elec       q    Type
REMARK                         _______ _______ _______ _____ _____    ______ ____
ROOT
ATOM      1  C   UNL     1       0.899   6.757 -10.500  0.00  0.00    +0.090 C 
ATOM      2  N   UNL     1       1.780   6.012  -9.622  0.00  0.00    -0.264 NA
ENDROOT
BRANCH   2   3
ATOM      3  C   UNL     1       2.513   4.986 -10.332  0.00  0.00    +0.099 C 
BRANCH   3   4
ATOM      4  C   UNL     1       3.954   4.946  -9.928  0.00  0.00    -0.006 A 
ATOM      5  C   UNL     1       4.826   5.693 -10.701  0.00  0.00    -0.003 A 
ATOM      6  C   UNL     1       6.083   6.060 -10.244  0.00  0.00    -0.000 A 
ATOM      7  C   UNL     1       7.133   6.186 -11.136  0.00  0.00    -0.000 A 
ATOM      8  C   UNL     1       6.856   6.442 -12.470  0.00  0.00    -0.000 A 
ATOM      9  C   UNL     1       5.562   6.283 -12.900  0.00  0.00    -0.000 A 
ATOM     10  C   UNL     1       6.412   5.635  -8.968  0.00  0.00    -0.000 A 
ATOM     11  C   UNL     1       5.424   5.255  -8.079  0.00  0.00    -0.000 A 
ATOM     12  C   UNL     1       4.541   6.004 -12.013  0.00  0.00    -0.000 A 
ATOM     13  C   UNL     1       4.317   4.636  -8.638  0.00  0.00    -0.003 A 
ENDBRANCH   3   4
ENDBRANCH   2   3
BRANCH   2  14
ATOM     14  C   UNL     1       0.967   5.474  -8.564  0.00  0.00    +0.099 C 
BRANCH  14  15
ATOM     15  C   UNL     1       1.264   6.097  -7.238  0.00  0.00    -0.006 A 
ATOM     16  C   UNL     1       0.950   5.463  -6.042  0.00  0.00    -0.003 A 
ATOM     17  C   UNL     1       1.854   5.490  -4.986  0.00  0.00    -0.005 A 
ATOM     18  C   UNL     1       2.996   6.280  -5.043  0.00  0.00    -0.023 A 
ATOM     19  C   UNL     1       2.980   7.254  -6.033  0.00  0.00    -0.005 A 
ATOM     20  C   UNL     1       2.112   7.192  -7.114  0.00  0.00    -0.003 A 
BRANCH  18  21
ATOM     21  C   UNL     1       4.176   6.004  -4.196  0.00  0.00    +0.019 C 
ATOM     22  C   UNL     1       3.724   6.096  -2.744  0.00  0.00    +0.004 C 
ATOM     23  C   UNL     1       5.199   7.089  -4.477  0.00  0.00    +0.004 C 
ATOM     24  C   UNL     1       4.724   4.634  -4.511  0.00  0.00    +0.004 C 
ENDBRANCH  18  21
ENDBRANCH  14  15
ENDBRANCH   2  14
TORSDOF 5
ENDMDL
MODEL 8
REMARK VINA RESULT:      -7.7      2.270      3.300
REMARK  Name = 
REMARK  5 active torsions:
REMARK  status: ('A' for Active; 'I' for Inactive)
REMARK    1  A    between atoms: N_2  and  C_3
REMARK    2  A    between atoms: N_2  and  C_14
REMARK    3  A    between atoms: C_3  and  C_4
REMARK    4  A    between atoms: C_7  and  C_8
REMARK    5  A    between atoms: C_14  and  C_15
REMARK                            x       y       z     vdW  Elec       q    Type
REMARK                         _______ _______ _______ _____ _____    ______ ____
ROOT
ATOM      1  C   UNL     1       2.256   7.261  -6.624  0.00  0.00    +0.090 C 
ATOM      2  N   UNL     1       2.704   5.898  -6.832  0.00  0.00    -0.264 NA
ENDROOT
BRANCH   2   3
ATOM      3  C   UNL     1       2.149   4.989  -5.853  0.00  0.00    +0.099 C 
BRANCH   3   4
ATOM      4  C   UNL     1       0.656   4.921  -5.934  0.00  0.00    -0.006 A 
ATOM      5  C   UNL     1      -0.038   5.386  -4.830  0.00  0.00    -0.003 A 
ATOM      6  C   UNL     1      -1.376   5.741  -4.898  0.00  0.00    -0.000 A 
ATOM      7  C   UNL     1      -2.196   5.561  -3.799  0.00  0.00    -0.000 A 
ATOM      8  C   UNL     1      -1.627   5.516  -2.535  0.00  0.00    -0.000 A 
ATOM      9  C   UNL     1      -0.265   5.372  -2.448  0.00  0.00    -0.000 A 
ATOM     10  C   UNL     1      -1.977   5.604  -6.138  0.00  0.00    -0.000 A 
ATOM     11  C   UNL     1      -1.209   5.532  -7.286  0.00  0.00    -0.000 A 
ATOM     12  C   UNL     1       0.532   5.400  -3.575  0.00  0.00    -0.000 A 
ATOM     13  C   UNL     1       0.015   4.896  -7.151  0.00  0.00    -0.003 A 
ENDBRANCH   3   4
ENDBRANCH   2   3
BRANCH   2  14
ATOM     14  C   UNL     1       4.143   5.916  -6.812  0.00  0.00    +0.099 C 
BRANCH  14  15
ATOM     15  C   UNL     1       4.742   5.374  -8.069  0.00  0.00    -0.006 A 
ATOM     16  C   UNL     1       4.020   5.301  -9.254  0.00  0.00    -0.003 A 
ATOM     17  C   UNL     1       4.624   5.651 -10.456  0.00  0.00    -0.005 A 
ATOM     18  C   UNL     1       5.987   5.914 -10.521  0.00  0.00    -0.023 A 
ATOM     19  C   UNL     1       6.716   5.478  -9.421  0.00  0.00    -0.005 A 
ATOM     20  C   UNL     1       6.112   5.182  -8.208  0.00  0.00    -0.003 A 
BRANCH  18  21
ATOM     21  C   UNL     1       6.575   6.710 -11.618  0.00  0.00    +0.019 C 
ATOM     22  C   UNL     1       5.832   6.341 -12.896  0.00  0.00    +0.004 C 
ATOM     23  C   UNL     1       8.031   6.304 -11.744  0.00  0.00    +0.004 C 
ATOM     24  C   UNL     1       6.437   8.182 -11.314  0.00  0.00    +0.004 C 
ENDBRANCH  18  21
ENDBRANCH  14  15
ENDBRANCH   2  14
TORSDOF 5
ENDMDL
MODEL 9
REMARK VINA RESULT:      -7.6      2.434      7.282
REMARK  Name = 
REMARK  5 active torsions:
REMARK  status: ('A' for Active; 'I' for Inactive)
REMARK    1  A    between atoms: N_2  and  C_3
REMARK    2  A    between atoms: N_2  and  C_14
REMARK    3  A    between atoms: C_3  and  C_4
REMARK    4  A    between atoms: C_7  and  C_8
REMARK    5  A    between atoms: C_14  and  C_15
REMARK                            x       y       z     vdW  Elec       q    Type
REMARK                         _______ _______ _______ _____ _____    ______ ____
ROOT
ATOM      1  C   UNL     1      -0.166   6.246 -10.504  0.00  0.00    +0.090 C 
ATOM      2  N   UNL     1       0.985   6.022  -9.652  0.00  0.00    -0.264 NA
ENDROOT
BRANCH   2   3
ATOM      3  C   UNL     1       1.876   5.020 -10.197  0.00  0.00    +0.099 C 
BRANCH   3   4
ATOM      4  C   UNL     1       3.046   5.634 -10.900  0.00  0.00    -0.006 A 
ATOM      5  C   UNL     1       4.294   5.351 -10.373  0.00  0.00    -0.003 A 
ATOM      6  C   UNL     1       5.458   5.516 -11.108  0.00  0.00    -0.000 A 
ATOM      7  C   UNL     1       6.632   5.875 -10.472  0.00  0.00    -0.000 A 
ATOM      8  C   UNL     1       6.783   5.588  -9.124  0.00  0.00    -0.000 A 
ATOM      9  C   UNL     1       5.666   5.217  -8.417  0.00  0.00    -0.000 A 
ATOM     10  C   UNL     1       5.296   5.981 -12.402  0.00  0.00    -0.000 A 
ATOM     11  C   UNL     1       4.072   5.879 -13.037  0.00  0.00    -0.000 A 
ATOM     12  C   UNL     1       4.455   5.009  -9.048  0.00  0.00    -0.000 A 
ATOM     13  C   UNL     1       2.959   6.009 -12.222  0.00  0.00    -0.003 A 
ENDBRANCH   3   4
ENDBRANCH   2   3
BRANCH   2  14
ATOM     14  C   UNL     1       0.486   5.664  -8.351  0.00  0.00    +0.099 C 
BRANCH  14  15
ATOM     15  C   UNL     1       1.073   6.501  -7.261  0.00  0.00    -0.006 A 
ATOM     16  C   UNL     1       0.662   6.378  -5.938  0.00  0.00    -0.003 A 
ATOM     17  C   UNL     1       1.604   6.398  -4.917  0.00  0.00    -0.005 A 
ATOM     18  C   UNL     1       2.934   6.708  -5.176  0.00  0.00    -0.023 A 
ATOM     19  C   UNL     1       3.162   7.306  -6.409  0.00  0.00    -0.005 A 
ATOM     20  C   UNL     1       2.239   7.235  -7.444  0.00  0.00    -0.003 A 
BRANCH  18  21
ATOM     21  C   UNL     1       4.020   6.305  -4.258  0.00  0.00    +0.019 C 
ATOM     22  C   UNL     1       5.104   7.373  -4.340  0.00  0.00    +0.004 C 
ATOM     23  C   UNL     1       4.572   4.985  -4.761  0.00  0.00    +0.004 C 
ATOM     24  C   UNL     1       3.484   6.179  -2.853  0.00  0.00    +0.004 C 
ENDBRANCH  18  21
ENDBRANCH  14  15
ENDBRANCH   2  14
TORSDOF 5
ENDMDL
