MODEL 1
REMARK VINA RESULT:      -6.8      0.000      0.000
REMARK  Name = 
REMARK  1 active torsions:
REMARK  status: ('A' for Active; 'I' for Inactive)
REMARK    1  A    between atoms: C_10  and  N_11
REMARK                            x       y       z     vdW  Elec       q    Type
REMARK                         _______ _______ _______ _____ _____    ______ ____
ROOT
ATOM      1 CL   UNL     1       0.108   5.709  -7.584  0.00  0.00    -0.079 Cl
ATOM      2  C   UNL     1      -0.768   5.607  -6.077  0.00  0.00    +0.093 A 
ATOM      3  C   UNL     1      -0.103   5.600  -4.854  0.00  0.00    +0.189 A 
ATOM      4  C   UNL     1      -0.873   5.566  -3.693  0.00  0.00    +0.144 A 
ATOM      5  C   UNL     1      -2.254   5.493  -3.758  0.00  0.00    +0.112 A 
ATOM      6  N   UNL     1      -2.766   5.025  -2.591  0.00  0.00    -0.190 NA
ATOM      7  S   UNL     1      -1.737   5.764  -1.465  0.00  0.00    +0.117 S 
ATOM      8  C   UNL     1      -2.879   5.369  -4.996  0.00  0.00    +0.022 A 
ATOM      9  N   UNL     1      -0.478   6.147  -2.531  0.00  0.00    -0.187 NA
ATOM     10  C   UNL     1      -2.151   5.549  -6.162  0.00  0.00    +0.016 A 
ENDROOT
BRANCH   3  11
ATOM     11  N   UNL     1       1.144   4.950  -4.840  0.00  0.00    -0.068 NA
ATOM     12  C   UNL     1       2.296   5.478  -4.759  0.00  0.00    +0.439 C 
ATOM     13  N   UNL     1       2.754   6.810  -4.747  0.00  0.00    -0.060 NA
ATOM     14  C   UNL     1       4.184   6.892  -4.595  0.00  0.00    +0.251 C 
ATOM     15  C   UNL     1       4.624   5.460  -4.679  0.00  0.00    +0.251 C 
ATOM     16  N   UNL     1       3.460   4.651  -4.891  0.00  0.00    -0.060 NA
ENDBRANCH   3  11
TORSDOF 1
ENDMDL
MODEL 2
REMARK VINA RESULT:      -6.6      6.897      9.350
REMARK  Name = 
REMARK  1 active torsions:
REMARK  status: ('A' for Active; 'I' for Inactive)
REMARK    1  A    between atoms: C_10  and  N_11
REMARK                            x       y       z     vdW  Elec       q    Type
REMARK                         _______ _______ _______ _____ _____    ______ ____
ROOT
ATOM      1 CL   UNL     1       5.126   5.742  -7.571  0.00  0.00    -0.079 Cl
ATOM      2  C   UNL     1       5.811   5.621  -9.173  0.00  0.00    +0.093 A 
ATOM      3  C   UNL     1       4.999   5.537 -10.301  0.00  0.00    +0.189 A 
ATOM      4  C   UNL     1       5.619   5.492 -11.549  0.00  0.00    +0.144 A 
ATOM      5  C   UNL     1       6.999   5.482 -11.657  0.00  0.00    +0.112 A 
ATOM      6  N   UNL     1       7.383   4.993 -12.863  0.00  0.00    -0.190 NA
ATOM      7  S   UNL     1       6.187   5.642 -13.873  0.00  0.00    +0.117 S 
ATOM      8  C   UNL     1       7.780   5.435 -10.505  0.00  0.00    +0.022 A 
ATOM      9  N   UNL     1       5.053   6.009 -12.670  0.00  0.00    -0.187 NA
ATOM     10  C   UNL     1       7.195   5.627  -9.262  0.00  0.00    +0.016 A 
ENDROOT
BRANCH   3  11
ATOM     11  N   UNL     1       3.793   4.831 -10.136  0.00  0.00    -0.068 NA
ATOM     12  C   UNL     1       2.613   5.299 -10.136  0.00  0.00    +0.439 C 
ATOM     13  N   UNL     1       2.086   6.603 -10.202  0.00  0.00    -0.060 NA
ATOM     14  C   UNL     1       0.645   6.607 -10.209  0.00  0.00    +0.251 C 
ATOM     15  C   UNL     1       0.293   5.169  -9.971  0.00  0.00    +0.251 C 
ATOM     16  N   UNL     1       1.514   4.433  -9.821  0.00  0.00    -0.060 NA
ENDBRANCH   3  11
TORSDOF 1
ENDMDL
MODEL 3
REMARK VINA RESULT:      -6.3      2.405      2.669
REMARK  Name = 
REMARK  1 active torsions:
REMARK  status: ('A' for Active; 'I' for Inactive)
REMARK    1  A    between atoms: C_10  and  N_11
REMARK                            x       y       z     vdW  Elec       q    Type
REMARK                         _______ _______ _______ _____ _____    ______ ____
ROOT
ATOM      1 CL   UNL     1      -2.716   6.096  -6.463  0.00  0.00    -0.079 Cl
ATOM      2  C   UNL     1      -1.911   5.827  -4.937  0.00  0.00    +0.093 A 
ATOM      3  C   UNL     1      -0.522   5.828  -4.844  0.00  0.00    +0.189 A 
ATOM      4  C   UNL     1       0.047   5.654  -3.583  0.00  0.00    +0.144 A 
ATOM      5  C   UNL     1      -0.746   5.442  -2.469  0.00  0.00    +0.112 A 
ATOM      6  N   UNL     1      -0.028   4.865  -1.471  0.00  0.00    -0.190 NA
ATOM      7  S   UNL     1       1.464   5.648  -1.649  0.00  0.00    +0.117 S 
ATOM      8  C   UNL     1      -2.125   5.317  -2.618  0.00  0.00    +0.022 A 
ATOM      9  N   UNL     1       1.233   6.213  -3.228  0.00  0.00    -0.187 NA
ATOM     10  C   UNL     1      -2.722   5.631  -3.829  0.00  0.00    +0.016 A 
ENDROOT
BRANCH   3  11
ATOM     11  N   UNL     1       0.166   5.310  -5.956  0.00  0.00    -0.068 NA
ATOM     12  C   UNL     1       0.969   5.921  -6.727  0.00  0.00    +0.439 C 
ATOM     13  N   UNL     1       1.385   7.262  -6.829  0.00  0.00    -0.060 NA
ATOM     14  C   UNL     1       2.365   7.450  -7.868  0.00  0.00    +0.251 C 
ATOM     15  C   UNL     1       2.416   6.111  -8.543  0.00  0.00    +0.251 C 
ATOM     16  N   UNL     1       1.473   5.251  -7.891  0.00  0.00    -0.060 NA
ENDBRANCH   3  11
TORSDOF 1
ENDMDL
MODEL 4
REMARK VINA RESULT:      -6.2      2.537      4.933
REMARK  Name = 
REMARK  1 active torsions:
REMARK  status: ('A' for Active; 'I' for Inactive)
REMARK    1  A    between atoms: C_10  and  N_11
REMARK                            x       y       z     vdW  Elec       q    Type
REMARK                         _______ _______ _______ _____ _____    ______ ____
ROOT
ATOM      1 CL   UNL     1      -2.421   5.266  -6.342  0.00  0.00    -0.079 Cl
ATOM      2  C   UNL     1      -0.751   5.768  -6.431  0.00  0.00    +0.093 A 
ATOM      3  C   UNL     1      -0.085   6.258  -5.312  0.00  0.00    +0.189 A 
ATOM      4  C   UNL     1       1.262   6.594  -5.449  0.00  0.00    +0.144 A 
ATOM      5  C   UNL     1       1.899   6.486  -6.672  0.00  0.00    +0.112 A 
ATOM      6  N   UNL     1       3.016   7.257  -6.702  0.00  0.00    -0.190 NA
ATOM      7  S   UNL     1       3.591   7.058  -5.120  0.00  0.00    +0.117 S 
ATOM      8  C   UNL     1       1.170   6.116  -7.799  0.00  0.00    +0.022 A 
ATOM      9  N   UNL     1       2.154   6.484  -4.431  0.00  0.00    -0.187 NA
ATOM     10  C   UNL     1      -0.125   5.639  -7.662  0.00  0.00    +0.016 A 
ENDROOT
BRANCH   3  11
ATOM     11  N   UNL     1      -0.865   7.012  -4.416  0.00  0.00    -0.068 NA
ATOM     12  C   UNL     1      -1.266   6.674  -3.259  0.00  0.00    +0.439 C 
ATOM     13  N   UNL     1      -1.179   5.484  -2.512  0.00  0.00    -0.060 NA
ATOM     14  C   UNL     1      -1.769   5.618  -1.205  0.00  0.00    +0.251 C 
ATOM     15  C   UNL     1      -2.399   6.978  -1.247  0.00  0.00    +0.251 C 
ATOM     16  N   UNL     1      -2.166   7.534  -2.547  0.00  0.00    -0.060 NA
ENDBRANCH   3  11
TORSDOF 1
ENDMDL
MODEL 5
REMARK VINA RESULT:      -6.1      2.568      4.954
REMARK  Name = 
REMARK  1 active torsions:
REMARK  status: ('A' for Active; 'I' for Inactive)
REMARK    1  A    between atoms: C_10  and  N_11
REMARK                            x       y       z     vdW  Elec       q    Type
REMARK                         _______ _______ _______ _____ _____    ______ ____
ROOT
ATOM      1 CL   UNL     1      -0.434   5.370  -8.504  0.00  0.00    -0.079 Cl
ATOM      2  C   UNL     1       0.942   5.913  -7.576  0.00  0.00    +0.093 A 
ATOM      3  C   UNL     1       1.164   5.459  -6.280  0.00  0.00    +0.189 A 
ATOM      4  C   UNL     1       2.310   5.900  -5.620  0.00  0.00    +0.144 A 
ATOM      5  C   UNL     1       3.174   6.799  -6.222  0.00  0.00    +0.112 A 
ATOM      6  N   UNL     1       3.938   7.427  -5.292  0.00  0.00    -0.190 NA
ATOM      7  S   UNL     1       4.221   6.164  -4.197  0.00  0.00    +0.117 S 
ATOM      8  C   UNL     1       2.854   7.333  -7.467  0.00  0.00    +0.022 A 
ATOM      9  N   UNL     1       2.966   5.146  -4.701  0.00  0.00    -0.187 NA
ATOM     10  C   UNL     1       1.804   6.802  -8.201  0.00  0.00    +0.016 A 
ENDROOT
BRANCH   3  11
ATOM     11  N   UNL     1       0.010   5.218  -5.510  0.00  0.00    -0.068 NA
ATOM     12  C   UNL     1      -0.782   6.074  -5.009  0.00  0.00    +0.439 C 
ATOM     13  N   UNL     1      -0.777   7.480  -4.945  0.00  0.00    -0.060 NA
ATOM     14  C   UNL     1      -1.948   7.999  -4.285  0.00  0.00    +0.251 C 
ATOM     15  C   UNL     1      -2.635   6.766  -3.778  0.00  0.00    +0.251 C 
ATOM     16  N   UNL     1      -1.836   5.633  -4.141  0.00  0.00    -0.060 NA
ENDBRANCH   3  11
TORSDOF 1
ENDMDL
MODEL 6
REMARK VINA RESULT:      -5.9      3.420      3.937
REMARK  Name = 
REMARK  1 active torsions:
REMARK  status: ('A' for Active; 'I' for Inactive)
REMARK    1  A    between atoms: C_10  and  N_11
REMARK                            x       y       z     vdW  Elec       q    Type
REMARK                         _______ _______ _______ _____ _____    ______ ____
ROOT
ATOM      1 CL   UNL     1      -0.045   5.314  -9.654  0.00  0.00    -0.079 Cl
ATOM      2  C   UNL     1       0.215   5.522  -7.940  0.00  0.00    +0.093 A 
ATOM      3  C   UNL     1       1.489   5.748  -7.426  0.00  0.00    +0.189 A 
ATOM      4  C   UNL     1       1.611   5.953  -6.052  0.00  0.00    +0.144 A 
ATOM      5  C   UNL     1       0.505   5.885  -5.223  0.00  0.00    +0.112 A 
ATOM      6  N   UNL     1       0.881   5.663  -3.938  0.00  0.00    -0.190 NA
ATOM      7  S   UNL     1       2.292   6.597  -3.846  0.00  0.00    +0.117 S 
ATOM      8  C   UNL     1      -0.732   5.528  -5.752  0.00  0.00    +0.022 A 
ATOM      9  N   UNL     1       2.570   6.747  -5.509  0.00  0.00    -0.187 NA
ATOM     10  C   UNL     1      -0.907   5.465  -7.127  0.00  0.00    +0.016 A 
ENDROOT
BRANCH   3  11
ATOM     11  N   UNL     1       2.543   5.098  -8.093  0.00  0.00    -0.068 NA
ATOM     12  C   UNL     1       3.367   5.599  -8.919  0.00  0.00    +0.439 C 
ATOM     13  N   UNL     1       3.492   6.868  -9.516  0.00  0.00    -0.060 NA
ATOM     14  C   UNL     1       4.646   6.954 -10.374  0.00  0.00    +0.251 C 
ATOM     15  C   UNL     1       5.164   5.547 -10.399  0.00  0.00    +0.251 C 
ATOM     16  N   UNL     1       4.295   4.740  -9.595  0.00  0.00    -0.060 NA
ENDBRANCH   3  11
TORSDOF 1
ENDMDL
MODEL 7
REMARK VINA RESULT:      -5.9      7.088      8.624
REMARK  Name = 
REMARK  1 active torsions:
REMARK  status: ('A' for Active; 'I' for Inactive)
REMARK    1  A    between atoms: C_10  and  N_11
REMARK                            x       y       z     vdW  Elec       q    Type
REMARK                         _______ _______ _______ _____ _____    ______ ____
ROOT
ATOM      1 CL   UNL     1       6.773   5.866  -9.876  0.00  0.00    -0.079 Cl
ATOM      2  C   UNL     1       5.678   5.710 -11.228  0.00  0.00    +0.093 A 
ATOM      3  C   UNL     1       4.299   5.788 -11.053  0.00  0.00    +0.189 A 
ATOM      4  C   UNL     1       3.492   5.702 -12.186  0.00  0.00    +0.144 A 
ATOM      5  C   UNL     1       4.045   5.499 -13.438  0.00  0.00    +0.112 A 
ATOM      6  N   UNL     1       3.118   5.007 -14.299  0.00  0.00    -0.190 NA
ATOM      7  S   UNL     1       1.736   5.860 -13.811  0.00  0.00    +0.117 S 
ATOM      8  C   UNL     1       5.417   5.296 -13.561  0.00  0.00    +0.022 A 
ATOM      9  N   UNL     1       2.296   6.339 -12.286  0.00  0.00    -0.187 NA
ATOM     10  C   UNL     1       6.251   5.521 -12.477  0.00  0.00    +0.016 A 
ENDROOT
BRANCH   3  11
ATOM     11  N   UNL     1       3.805   5.257  -9.847  0.00  0.00    -0.068 NA
ATOM     12  C   UNL     1       3.216   5.877  -8.908  0.00  0.00    +0.439 C 
ATOM     13  N   UNL     1       2.930   7.235  -8.672  0.00  0.00    -0.060 NA
ATOM     14  C   UNL     1       2.188   7.431  -7.453  0.00  0.00    +0.251 C 
ATOM     15  C   UNL     1       2.170   6.064  -6.836  0.00  0.00    +0.251 C 
ATOM     16  N   UNL     1       2.900   5.180  -7.695  0.00  0.00    -0.060 NA
ENDBRANCH   3  11
TORSDOF 1
ENDMDL
MODEL 8
REMARK VINA RESULT:      -5.9      8.579     10.297
REMARK  Name = 
REMARK  1 active torsions:
REMARK  status: ('A' for Active; 'I' for Inactive)
REMARK    1  A    between atoms: C_10  and  N_11
REMARK                            x       y       z     vdW  Elec       q    Type
REMARK                         _______ _______ _______ _____ _____    ______ ____
ROOT
ATOM      1 CL   UNL     1       8.968   5.962 -12.177  0.00  0.00    -0.079 Cl
ATOM      2  C   UNL     1       7.496   5.859 -11.244  0.00  0.00    +0.093 A 
ATOM      3  C   UNL     1       6.254   6.090 -11.827  0.00  0.00    +0.189 A 
ATOM      4  C   UNL     1       5.120   5.941 -11.029  0.00  0.00    +0.144 A 
ATOM      5  C   UNL     1       5.233   5.620  -9.688  0.00  0.00    +0.112 A 
ATOM      6  N   UNL     1       4.104   5.959  -9.016  0.00  0.00    -0.190 NA
ATOM      7  S   UNL     1       2.916   5.575 -10.162  0.00  0.00    +0.117 S 
ATOM      8  C   UNL     1       6.495   5.523  -9.107  0.00  0.00    +0.022 A 
ATOM      9  N   UNL     1       3.923   5.531 -11.522  0.00  0.00    -0.187 NA
ATOM     10  C   UNL     1       7.628   5.521  -9.905  0.00  0.00    +0.016 A 
ENDROOT
BRANCH   3  11
ATOM     11  N   UNL     1       6.226   7.067 -12.839  0.00  0.00    -0.068 NA
ATOM     12  C   UNL     1       6.426   6.904 -14.083  0.00  0.00    +0.439 C 
ATOM     13  N   UNL     1       6.815   5.801 -14.866  0.00  0.00    -0.060 NA
ATOM     14  C   UNL     1       6.867   6.123 -16.270  0.00  0.00    +0.251 C 
ATOM     15  C   UNL     1       6.633   7.604 -16.295  0.00  0.00    +0.251 C 
ATOM     16  N   UNL     1       6.483   8.052 -14.942  0.00  0.00    -0.060 NA
ENDBRANCH   3  11
TORSDOF 1
ENDMDL
MODEL 9
REMARK VINA RESULT:      -5.8      2.579      3.155
REMARK  Name = 
REMARK  1 active torsions:
REMARK  status: ('A' for Active; 'I' for Inactive)
REMARK    1  A    between atoms: C_10  and  N_11
REMARK                            x       y       z     vdW  Elec       q    Type
REMARK                         _______ _______ _______ _____ _____    ______ ____
ROOT
ATOM      1 CL   UNL     1       0.967   5.523  -0.855  0.00  0.00    -0.079 Cl
ATOM      2  C   UNL     1      -0.072   5.535  -2.258  0.00  0.00    +0.093 A 
ATOM      3  C   UNL     1       0.449   5.683  -3.540  0.00  0.00    +0.189 A 
ATOM      4  C   UNL     1      -0.438   5.635  -4.615  0.00  0.00    +0.144 A 
ATOM      5  C   UNL     1      -1.798   5.491  -4.406  0.00  0.00    +0.112 A 
ATOM      6  N   UNL     1      -2.498   5.910  -5.492  0.00  0.00    -0.190 NA
ATOM      7  S   UNL     1      -1.496   5.375  -6.750  0.00  0.00    +0.117 S 
ATOM      8  C   UNL     1      -2.299   5.476  -3.107  0.00  0.00    +0.022 A 
ATOM      9  N   UNL     1      -0.086   5.159  -5.838  0.00  0.00    -0.187 NA
ATOM     10  C   UNL     1      -1.430   5.375  -2.031  0.00  0.00    +0.016 A 
ENDROOT
BRANCH   3  11
ATOM     11  N   UNL     1       1.575   6.520  -3.651  0.00  0.00    -0.068 NA
ATOM     12  C   UNL     1       2.781   6.178  -3.851  0.00  0.00    +0.439 C 
ATOM     13  N   UNL     1       3.435   4.934  -3.943  0.00  0.00    -0.060 NA
ATOM     14  C   UNL     1       4.840   5.078  -4.227  0.00  0.00    +0.251 C 
ATOM     15  C   UNL     1       5.061   6.559  -4.143  0.00  0.00    +0.251 C 
ATOM     16  N   UNL     1       3.812   7.174  -3.803  0.00  0.00    -0.060 NA
ENDBRANCH   3  11
TORSDOF 1
ENDMDL
