MODEL 1
REMARK VINA RESULT:      -8.0      0.000      0.000
REMARK  Name = 
REMARK  4 active torsions:
REMARK  status: ('A' for Active; 'I' for Inactive)
REMARK    1  A    between atoms: CA_6  and  N_7
REMARK    2  A    between atoms: C_8  and  C_10
REMARK    3  A    between atoms: C_10  and  C_11
REMARK    4  A    between atoms: CA_20  and  C_21
REMARK                            x       y       z     vdW  Elec       q    Type
REMARK                         _______ _______ _______ _____ _____    ______ ____
ROOT
ATOM      1  C   UNL     1       3.188   5.708  -3.453  0.00  0.00    +0.013 C 
ATOM      2  C   UNL     1       2.862   6.093  -4.604  0.00  0.00    +0.068 C 
ATOM      3  CA  UNL     1       1.327   6.767  -4.486  0.00  0.00    +0.189 C 
ATOM      4  N   UNL     1       1.177   6.941  -6.072  0.00  0.00    -0.259 N 
ATOM      5  C   UNL     1       0.937   5.506  -6.504  0.00  0.00    +0.153 C 
ATOM      6  CA  UNL     1       1.095   6.203  -8.045  0.00  0.00    +0.200 C 
ATOM      7  C   UNL     1       1.944   7.332  -7.233  0.00  0.00    +0.249 C 
ATOM      8  O   UNL     1       2.118   8.442  -7.753  0.00  0.00    -0.273 OA
ATOM      9  S   UNL     1       2.746   5.095  -6.032  0.00  0.00    -0.118 S 
ATOM     10  C   UNL     1       3.640   7.361  -4.946  0.00  0.00    +0.013 C 
ENDROOT
BRANCH   3  11
ATOM     11  C   UNL     1       0.550   5.314  -4.382  0.00  0.00    +0.383 C 
ATOM     12  OXT UNL     1       0.626   4.690  -3.170  0.00  0.00    -0.244 OA
ATOM     13  O   UNL     1      -0.637   5.542  -4.789  0.00  0.00    -0.244 OA
ENDBRANCH   3  11
BRANCH   6  14
ATOM     14  N   UNL     1       2.395   5.359  -8.474  0.00  0.00    -0.195 NA
ATOM     15  C   UNL     1       2.791   5.604  -9.826  0.00  0.00    +0.246 C 
ATOM     16  O   UNL     1       2.221   6.514 -10.492  0.00  0.00    -0.273 OA
BRANCH  15  17
ATOM     17  C   UNL     1       4.043   4.975 -10.308  0.00  0.00    +0.113 C 
BRANCH  17  18
ATOM     18  C   UNL     1       5.149   5.968 -10.105  0.00  0.00    -0.013 A 
ATOM     19  C   UNL     1       6.184   5.527  -9.297  0.00  0.00    -0.004 A 
ATOM     20  C   UNL     1       7.496   5.926  -9.469  0.00  0.00    -0.000 A 
ATOM     21  C   UNL     1       7.714   6.968 -10.354  0.00  0.00    -0.000 A 
ATOM     22  C   UNL     1       6.748   7.294 -11.275  0.00  0.00    -0.000 A 
ATOM     23  C   UNL     1       5.542   6.633 -11.262  0.00  0.00    -0.004 A 
ENDBRANCH  17  18
ENDBRANCH  15  17
ENDBRANCH   6  14
TORSDOF 4
ENDMDL
MODEL 2
REMARK VINA RESULT:      -7.6      2.080      2.559
REMARK  Name = 
REMARK  4 active torsions:
REMARK  status: ('A' for Active; 'I' for Inactive)
REMARK    1  A    between atoms: CA_6  and  N_7
REMARK    2  A    between atoms: C_8  and  C_10
REMARK    3  A    between atoms: C_10  and  C_11
REMARK    4  A    between atoms: CA_20  and  C_21
REMARK                            x       y       z     vdW  Elec       q    Type
REMARK                         _______ _______ _______ _____ _____    ______ ____
ROOT
ATOM      1  C   UNL     1       3.393   7.045  -5.855  0.00  0.00    +0.013 C 
ATOM      2  C   UNL     1       2.860   6.750  -6.955  0.00  0.00    +0.068 C 
ATOM      3  CA  UNL     1       1.544   5.760  -6.620  0.00  0.00    +0.189 C 
ATOM      4  N   UNL     1       1.265   5.445  -8.166  0.00  0.00    -0.259 N 
ATOM      5  C   UNL     1       2.399   4.487  -8.480  0.00  0.00    +0.153 C 
ATOM      6  CA  UNL     1       1.807   4.694 -10.059  0.00  0.00    +0.200 C 
ATOM      7  C   UNL     1       1.243   6.098  -9.455  0.00  0.00    +0.249 C 
ATOM      8  O   UNL     1       0.330   6.685 -10.052  0.00  0.00    -0.273 OA
ATOM      9  S   UNL     1       3.634   5.938  -8.293  0.00  0.00    -0.118 S 
ATOM     10  C   UNL     1       2.100   7.965  -7.483  0.00  0.00    +0.013 C 
ENDROOT
BRANCH   3  11
ATOM     11  C   UNL     1       2.458   4.419  -6.317  0.00  0.00    +0.383 C 
ATOM     12  OXT UNL     1       3.293   4.506  -5.240  0.00  0.00    -0.244 OA
ATOM     13  O   UNL     1       1.627   3.454  -6.268  0.00  0.00    -0.244 OA
ENDBRANCH   3  11
BRANCH   6  14
ATOM     14  N   UNL     1       3.150   5.347 -10.654  0.00  0.00    -0.195 NA
ATOM     15  C   UNL     1       3.083   5.557 -12.067  0.00  0.00    +0.246 C 
ATOM     16  O   UNL     1       1.995   5.365 -12.679  0.00  0.00    -0.273 OA
BRANCH  15  17
ATOM     17  C   UNL     1       4.213   6.260 -12.718  0.00  0.00    +0.113 C 
BRANCH  17  18
ATOM     18  C   UNL     1       5.409   6.105 -11.826  0.00  0.00    -0.013 A 
ATOM     19  C   UNL     1       6.386   5.249 -12.308  0.00  0.00    -0.004 A 
ATOM     20  C   UNL     1       7.733   5.423 -12.052  0.00  0.00    -0.000 A 
ATOM     21  C   UNL     1       8.064   6.374 -11.102  0.00  0.00    -0.000 A 
ATOM     22  C   UNL     1       7.147   7.334 -10.750  0.00  0.00    -0.000 A 
ATOM     23  C   UNL     1       5.881   7.298 -11.287  0.00  0.00    -0.004 A 
ENDBRANCH  17  18
ENDBRANCH  15  17
ENDBRANCH   6  14
TORSDOF 4
ENDMDL
MODEL 3
REMARK VINA RESULT:      -7.3      2.392      7.109
REMARK  Name = 
REMARK  4 active torsions:
REMARK  status: ('A' for Active; 'I' for Inactive)
REMARK    1  A    between atoms: CA_6  and  N_7
REMARK    2  A    between atoms: C_8  and  C_10
REMARK    3  A    between atoms: C_10  and  C_11
REMARK    4  A    between atoms: CA_20  and  C_21
REMARK                            x       y       z     vdW  Elec       q    Type
REMARK                         _______ _______ _______ _____ _____    ______ ____
ROOT
ATOM      1  C   UNL     1       1.515   5.289 -12.053  0.00  0.00    +0.013 C 
ATOM      2  C   UNL     1       1.814   5.779 -10.935  0.00  0.00    +0.068 C 
ATOM      3  CA  UNL     1       3.183   6.729 -11.158  0.00  0.00    +0.189 C 
ATOM      4  N   UNL     1       3.371   6.997  -9.590  0.00  0.00    -0.259 N 
ATOM      5  C   UNL     1       3.905   5.655  -9.124  0.00  0.00    +0.153 C 
ATOM      6  CA  UNL     1       3.687   6.375  -7.601  0.00  0.00    +0.200 C 
ATOM      7  C   UNL     1       2.599   7.283  -8.402  0.00  0.00    +0.249 C 
ATOM      8  O   UNL     1       2.238   8.361  -7.911  0.00  0.00    -0.273 OA
ATOM      9  S   UNL     1       2.189   4.884  -9.482  0.00  0.00    -0.118 S 
ATOM     10  C   UNL     1       0.823   6.888 -10.593  0.00  0.00    +0.013 C 
ENDROOT
BRANCH   3  11
ATOM     11  C   UNL     1       4.221   5.449 -11.256  0.00  0.00    +0.383 C 
ATOM     12  OXT UNL     1       4.238   4.794 -12.455  0.00  0.00    -0.244 OA
ATOM     13  O   UNL     1       5.351   5.908 -10.886  0.00  0.00    -0.244 OA
ENDBRANCH   3  11
BRANCH   6  14
ATOM     14  N   UNL     1       2.597   5.316  -7.073  0.00  0.00    -0.195 NA
ATOM     15  C   UNL     1       2.210   5.552  -5.717  0.00  0.00    +0.246 C 
ATOM     16  O   UNL     1       2.613   6.591  -5.121  0.00  0.00    -0.273 OA
BRANCH  15  17
ATOM     17  C   UNL     1       1.126   4.716  -5.150  0.00  0.00    +0.113 C 
BRANCH  17  18
ATOM     18  C   UNL     1      -0.130   5.534  -5.179  0.00  0.00    -0.013 A 
ATOM     19  C   UNL     1      -0.891   5.390  -6.328  0.00  0.00    -0.004 A 
ATOM     20  C   UNL     1      -2.269   5.487  -6.335  0.00  0.00    -0.000 A 
ATOM     21  C   UNL     1      -2.862   5.957  -5.176  0.00  0.00    -0.000 A 
ATOM     22  C   UNL     1      -2.161   5.938  -3.996  0.00  0.00    -0.000 A 
ATOM     23  C   UNL     1      -0.849   5.524  -3.987  0.00  0.00    -0.004 A 
ENDBRANCH  17  18
ENDBRANCH  15  17
ENDBRANCH   6  14
TORSDOF 4
ENDMDL
MODEL 4
REMARK VINA RESULT:      -7.3      1.996      2.865
REMARK  Name = 
REMARK  4 active torsions:
REMARK  status: ('A' for Active; 'I' for Inactive)
REMARK    1  A    between atoms: CA_6  and  N_7
REMARK    2  A    between atoms: C_8  and  C_10
REMARK    3  A    between atoms: C_10  and  C_11
REMARK    4  A    between atoms: CA_20  and  C_21
REMARK                            x       y       z     vdW  Elec       q    Type
REMARK                         _______ _______ _______ _____ _____    ______ ____
ROOT
ATOM      1  C   UNL     1      -0.025   6.898  -5.569  0.00  0.00    +0.013 C 
ATOM      2  C   UNL     1       0.817   6.276  -6.264  0.00  0.00    +0.068 C 
ATOM      3  CA  UNL     1       1.333   4.958  -5.357  0.00  0.00    +0.189 C 
ATOM      4  N   UNL     1       2.470   4.555  -6.411  0.00  0.00    -0.259 N 
ATOM      5  C   UNL     1       3.507   5.632  -6.152  0.00  0.00    +0.153 C 
ATOM      6  CA  UNL     1       4.219   4.930  -7.526  0.00  0.00    +0.200 C 
ATOM      7  C   UNL     1       2.692   4.458  -7.836  0.00  0.00    +0.249 C 
ATOM      8  O   UNL     1       2.501   3.522  -8.624  0.00  0.00    -0.273 OA
ATOM      9  S   UNL     1       2.308   6.922  -6.903  0.00  0.00    -0.118 S 
ATOM     10  C   UNL     1       0.089   5.517  -7.371  0.00  0.00    +0.013 C 
ENDROOT
BRANCH   3  11
ATOM     11  C   UNL     1       2.305   5.850  -4.365  0.00  0.00    +0.383 C 
ATOM     12  OXT UNL     1       1.657   6.695  -3.509  0.00  0.00    -0.244 OA
ATOM     13  O   UNL     1       3.069   5.002  -3.797  0.00  0.00    -0.244 OA
ENDBRANCH   3  11
BRANCH   6  14
ATOM     14  N   UNL     1       4.129   6.246  -8.447  0.00  0.00    -0.195 NA
ATOM     15  C   UNL     1       4.796   6.087  -9.702  0.00  0.00    +0.246 C 
ATOM     16  O   UNL     1       5.247   4.955 -10.034  0.00  0.00    -0.273 OA
BRANCH  15  17
ATOM     17  C   UNL     1       4.687   7.187 -10.689  0.00  0.00    +0.113 C 
BRANCH  17  18
ATOM     18  C   UNL     1       5.971   7.220 -11.464  0.00  0.00    -0.013 A 
ATOM     19  C   UNL     1       7.114   7.036 -10.703  0.00  0.00    -0.004 A 
ATOM     20  C   UNL     1       8.249   6.415 -11.187  0.00  0.00    -0.000 A 
ATOM     21  C   UNL     1       8.286   6.170 -12.549  0.00  0.00    -0.000 A 
ATOM     22  C   UNL     1       7.122   6.181 -13.276  0.00  0.00    -0.000 A 
ATOM     23  C   UNL     1       5.936   6.512 -12.662  0.00  0.00    -0.004 A 
ENDBRANCH  17  18
ENDBRANCH  15  17
ENDBRANCH   6  14
TORSDOF 4
ENDMDL
MODEL 5
REMARK VINA RESULT:      -7.1      2.692      4.260
REMARK  Name = 
REMARK  4 active torsions:
REMARK  status: ('A' for Active; 'I' for Inactive)
REMARK    1  A    between atoms: CA_6  and  N_7
REMARK    2  A    between atoms: C_8  and  C_10
REMARK    3  A    between atoms: C_10  and  C_11
REMARK    4  A    between atoms: CA_20  and  C_21
REMARK                            x       y       z     vdW  Elec       q    Type
REMARK                         _______ _______ _______ _____ _____    ______ ____
ROOT
ATOM      1  C   UNL     1      -2.782   7.024  -4.764  0.00  0.00    +0.013 C 
ATOM      2  C   UNL     1      -1.686   6.469  -5.029  0.00  0.00    +0.068 C 
ATOM      3  CA  UNL     1      -1.300   5.485  -3.722  0.00  0.00    +0.189 C 
ATOM      4  N   UNL     1       0.155   5.132  -4.295  0.00  0.00    -0.259 N 
ATOM      5  C   UNL     1       0.896   6.429  -4.033  0.00  0.00    +0.153 C 
ATOM      6  CA  UNL     1       2.093   5.642  -4.946  0.00  0.00    +0.200 C 
ATOM      7  C   UNL     1       0.822   4.813  -5.536  0.00  0.00    +0.249 C 
ATOM      8  O   UNL     1       1.021   3.725  -6.093  0.00  0.00    -0.273 OA
ATOM      9  S   UNL     1      -0.176   7.276  -5.374  0.00  0.00    -0.118 S 
ATOM     10  C   UNL     1      -1.917   5.379  -6.072  0.00  0.00    +0.013 C 
ENDROOT
BRANCH   3  11
ATOM     11  C   UNL     1      -0.822   6.731  -2.751  0.00  0.00    +0.383 C 
ATOM     12  OXT UNL     1      -1.809   7.597  -2.375  0.00  0.00    -0.244 OA
ATOM     13  O   UNL     1      -0.202   6.180  -1.783  0.00  0.00    -0.244 OA
ENDBRANCH   3  11
BRANCH   6  14
ATOM     14  N   UNL     1       2.112   6.710  -6.148  0.00  0.00    -0.195 NA
ATOM     15  C   UNL     1       3.017   6.347  -7.194  0.00  0.00    +0.246 C 
ATOM     16  O   UNL     1       3.586   5.219  -7.169  0.00  0.00    -0.273 OA
BRANCH  15  17
ATOM     17  C   UNL     1       3.042   7.189  -8.413  0.00  0.00    +0.113 C 
BRANCH  17  18
ATOM     18  C   UNL     1       2.352   6.421  -9.501  0.00  0.00    -0.013 A 
ATOM     19  C   UNL     1       0.993   6.669  -9.615  0.00  0.00    -0.004 A 
ATOM     20  C   UNL     1       0.318   6.622 -10.819  0.00  0.00    -0.000 A 
ATOM     21  C   UNL     1       1.011   6.099 -11.897  0.00  0.00    -0.000 A 
ATOM     22  C   UNL     1       2.381   6.014 -11.850  0.00  0.00    -0.000 A 
ATOM     23  C   UNL     1       3.049   6.378 -10.704  0.00  0.00    -0.004 A 
ENDBRANCH  17  18
ENDBRANCH  15  17
ENDBRANCH   6  14
TORSDOF 4
ENDMDL
MODEL 6
REMARK VINA RESULT:      -6.8      2.269      6.672
REMARK  Name = 
REMARK  4 active torsions:
REMARK  status: ('A' for Active; 'I' for Inactive)
REMARK    1  A    between atoms: CA_6  and  N_7
REMARK    2  A    between atoms: C_8  and  C_10
REMARK    3  A    between atoms: C_10  and  C_11
REMARK    4  A    between atoms: CA_20  and  C_21
REMARK                            x       y       z     vdW  Elec       q    Type
REMARK                         _______ _______ _______ _____ _____    ______ ____
ROOT
ATOM      1  C   UNL     1       3.802   5.741 -10.682  0.00  0.00    +0.013 C 
ATOM      2  C   UNL     1       3.315   5.509  -9.547  0.00  0.00    +0.068 C 
ATOM      3  CA  UNL     1       1.764   4.907  -9.785  0.00  0.00    +0.189 C 
ATOM      4  N   UNL     1       1.413   4.924  -8.222  0.00  0.00    -0.259 N 
ATOM      5  C   UNL     1       1.218   6.409  -7.980  0.00  0.00    +0.153 C 
ATOM      6  CA  UNL     1       1.144   5.886  -6.366  0.00  0.00    +0.200 C 
ATOM      7  C   UNL     1       2.008   4.629  -6.937  0.00  0.00    +0.249 C 
ATOM      8  O   UNL     1       2.045   3.578  -6.283  0.00  0.00    -0.273 OA
ATOM      9  S   UNL     1       3.094   6.669  -8.260  0.00  0.00    -0.118 S 
ATOM     10  C   UNL     1       3.961   4.249  -8.975  0.00  0.00    +0.013 C 
ENDROOT
BRANCH   3  11
ATOM     11  C   UNL     1       1.103   6.376 -10.142  0.00  0.00    +0.383 C 
ATOM     12  OXT UNL     1       1.466   6.909 -11.346  0.00  0.00    -0.244 OA
ATOM     13  O   UNL     1      -0.153   6.223  -9.986  0.00  0.00    -0.244 OA
ENDBRANCH   3  11
BRANCH   6  14
ATOM     14  N   UNL     1       2.436   6.705  -5.868  0.00  0.00    -0.195 NA
ATOM     15  C   UNL     1       2.559   6.730  -4.444  0.00  0.00    +0.246 C 
ATOM     16  O   UNL     1       1.782   6.031  -3.734  0.00  0.00    -0.273 OA
BRANCH  15  17
ATOM     17  C   UNL     1       3.771   7.355  -3.863  0.00  0.00    +0.113 C 
BRANCH  17  18
ATOM     18  C   UNL     1       3.581   7.400  -2.376  0.00  0.00    -0.013 A 
ATOM     19  C   UNL     1       4.280   6.432  -1.672  0.00  0.00    -0.004 A 
ATOM     20  C   UNL     1       4.771   6.637  -0.397  0.00  0.00    -0.000 A 
ATOM     21  C   UNL     1       4.348   7.785   0.252  0.00  0.00    -0.000 A 
ATOM     22  C   UNL     1       3.812   8.820  -0.474  0.00  0.00    -0.000 A 
ATOM     23  C   UNL     1       3.626   8.679  -1.830  0.00  0.00    -0.004 A 
ENDBRANCH  17  18
ENDBRANCH  15  17
ENDBRANCH   6  14
TORSDOF 4
ENDMDL
MODEL 7
REMARK VINA RESULT:      -6.7      2.575      7.412
REMARK  Name = 
REMARK  4 active torsions:
REMARK  status: ('A' for Active; 'I' for Inactive)
REMARK    1  A    between atoms: CA_6  and  N_7
REMARK    2  A    between atoms: C_8  and  C_10
REMARK    3  A    between atoms: C_10  and  C_11
REMARK    4  A    between atoms: CA_20  and  C_21
REMARK                            x       y       z     vdW  Elec       q    Type
REMARK                         _______ _______ _______ _____ _____    ______ ____
ROOT
ATOM      1  C   UNL     1       4.064   7.047  -9.661  0.00  0.00    +0.013 C 
ATOM      2  C   UNL     1       3.339   6.351  -8.905  0.00  0.00    +0.068 C 
ATOM      3  CA  UNL     1       2.850   5.005  -9.785  0.00  0.00    +0.189 C 
ATOM      4  N   UNL     1       1.848   4.501  -8.641  0.00  0.00    -0.259 N 
ATOM      5  C   UNL     1       0.710   5.494  -8.789  0.00  0.00    +0.153 C 
ATOM      6  CA  UNL     1       0.182   4.724  -7.370  0.00  0.00    +0.200 C 
ATOM      7  C   UNL     1       1.764   4.373  -7.204  0.00  0.00    +0.249 C 
ATOM      8  O   UNL     1       2.098   3.448  -6.452  0.00  0.00    -0.273 OA
ATOM      9  S   UNL     1       1.865   6.869  -8.126  0.00  0.00    -0.118 S 
ATOM     10  C   UNL     1       4.221   5.643  -7.880  0.00  0.00    +0.013 C 
ENDROOT
BRANCH   3  11
ATOM     11  C   UNL     1       1.726   5.826 -10.672  0.00  0.00    +0.383 C 
ATOM     12  OXT UNL     1       2.226   6.701 -11.594  0.00  0.00    -0.244 OA
ATOM     13  O   UNL     1       0.962   4.926 -11.155  0.00  0.00    -0.244 OA
ENDBRANCH   3  11
BRANCH   6  14
ATOM     14  N   UNL     1       0.249   6.033  -6.438  0.00  0.00    -0.195 NA
ATOM     15  C   UNL     1      -0.964   6.259  -5.715  0.00  0.00    +0.246 C 
ATOM     16  O   UNL     1      -1.883   5.392  -5.744  0.00  0.00    -0.273 OA
BRANCH  15  17
ATOM     17  C   UNL     1      -0.990   7.368  -4.733  0.00  0.00    +0.113 C 
BRANCH  17  18
ATOM     18  C   UNL     1      -1.330   6.775  -3.398  0.00  0.00    -0.013 A 
ATOM     19  C   UNL     1      -0.270   6.163  -2.747  0.00  0.00    -0.004 A 
ATOM     20  C   UNL     1      -0.148   6.134  -1.372  0.00  0.00    -0.000 A 
ATOM     21  C   UNL     1      -1.248   6.555  -0.644  0.00  0.00    -0.000 A 
ATOM     22  C   UNL     1      -2.218   7.313  -1.252  0.00  0.00    -0.000 A 
ATOM     23  C   UNL     1      -2.130   7.585  -2.597  0.00  0.00    -0.004 A 
ENDBRANCH  17  18
ENDBRANCH  15  17
ENDBRANCH   6  14
TORSDOF 4
ENDMDL
MODEL 8
REMARK VINA RESULT:      -6.6      3.418      7.953
REMARK  Name = 
REMARK  4 active torsions:
REMARK  status: ('A' for Active; 'I' for Inactive)
REMARK    1  A    between atoms: CA_6  and  N_7
REMARK    2  A    between atoms: C_8  and  C_10
REMARK    3  A    between atoms: C_10  and  C_11
REMARK    4  A    between atoms: CA_20  and  C_21
REMARK                            x       y       z     vdW  Elec       q    Type
REMARK                         _______ _______ _______ _____ _____    ______ ____
ROOT
ATOM      1  C   UNL     1       3.576   4.972  -6.085  0.00  0.00    +0.013 C 
ATOM      2  C   UNL     1       2.325   5.086  -6.029  0.00  0.00    +0.068 C 
ATOM      3  CA  UNL     1       1.849   5.996  -7.360  0.00  0.00    +0.189 C 
ATOM      4  N   UNL     1       0.328   6.098  -6.868  0.00  0.00    -0.259 N 
ATOM      5  C   UNL     1       0.452   7.103  -5.738  0.00  0.00    +0.153 C 
ATOM      6  CA  UNL     1      -1.170   6.659  -5.495  0.00  0.00    +0.200 C 
ATOM      7  C   UNL     1      -0.707   5.296  -6.257  0.00  0.00    +0.249 C 
ATOM      8  O   UNL     1      -1.572   4.566  -6.762  0.00  0.00    -0.273 OA
ATOM      9  S   UNL     1       1.410   5.794  -4.721  0.00  0.00    -0.118 S 
ATOM     10  C   UNL     1       1.684   3.758  -6.423  0.00  0.00    +0.013 C 
ENDROOT
BRANCH   3  11
ATOM     11  C   UNL     1       2.350   7.435  -6.725  0.00  0.00    +0.383 C 
ATOM     12  OXT UNL     1       3.619   7.447  -6.220  0.00  0.00    -0.244 OA
ATOM     13  O   UNL     1       2.135   8.295  -7.641  0.00  0.00    -0.244 OA
ENDBRANCH   3  11
BRANCH   6  14
ATOM     14  N   UNL     1      -0.956   6.054  -4.021  0.00  0.00    -0.195 NA
ATOM     15  C   UNL     1      -2.088   6.255  -3.171  0.00  0.00    +0.246 C 
ATOM     16  O   UNL     1      -3.157   6.729  -3.652  0.00  0.00    -0.273 OA
BRANCH  15  17
ATOM     17  C   UNL     1      -2.062   5.642  -1.823  0.00  0.00    +0.113 C 
BRANCH  17  18
ATOM     18  C   UNL     1      -1.356   6.600  -0.910  0.00  0.00    -0.013 A 
ATOM     19  C   UNL     1      -2.072   6.959   0.221  0.00  0.00    -0.004 A 
ATOM     20  C   UNL     1      -1.471   7.257   1.429  0.00  0.00    -0.000 A 
ATOM     21  C   UNL     1      -0.094   7.398   1.416  0.00  0.00    -0.000 A 
ATOM     22  C   UNL     1       0.635   6.885   0.371  0.00  0.00    -0.000 A 
ATOM     23  C   UNL     1      -0.014   6.303  -0.693  0.00  0.00    -0.004 A 
ENDBRANCH  17  18
ENDBRANCH  15  17
ENDBRANCH   6  14
TORSDOF 4
ENDMDL
MODEL 9
REMARK VINA RESULT:      -6.6      1.435      2.088
REMARK  Name = 
REMARK  4 active torsions:
REMARK  status: ('A' for Active; 'I' for Inactive)
REMARK    1  A    between atoms: CA_6  and  N_7
REMARK    2  A    between atoms: C_8  and  C_10
REMARK    3  A    between atoms: C_10  and  C_11
REMARK    4  A    between atoms: CA_20  and  C_21
REMARK                            x       y       z     vdW  Elec       q    Type
REMARK                         _______ _______ _______ _____ _____    ______ ____
ROOT
ATOM      1  C   UNL     1       4.403   5.032  -3.333  0.00  0.00    +0.013 C 
ATOM      2  C   UNL     1       3.743   5.539  -4.275  0.00  0.00    +0.068 C 
ATOM      3  CA  UNL     1       2.759   6.728  -3.609  0.00  0.00    +0.189 C 
ATOM      4  N   UNL     1       1.975   6.984  -4.982  0.00  0.00    -0.259 N 
ATOM      5  C   UNL     1       1.095   5.751  -5.054  0.00  0.00    +0.153 C 
ATOM      6  CA  UNL     1       0.763   6.379  -6.597  0.00  0.00    +0.200 C 
ATOM      7  C   UNL     1       2.213   7.095  -6.404  0.00  0.00    +0.249 C 
ATOM      8  O   UNL     1       2.498   8.076  -7.104  0.00  0.00    -0.273 OA
ATOM      9  S   UNL     1       2.661   4.690  -5.352  0.00  0.00    -0.118 S 
ATOM     10  C   UNL     1       4.659   6.439  -5.100  0.00  0.00    +0.013 C 
ENDROOT
BRANCH   3  11
ATOM     11  C   UNL     1       1.673   5.661  -2.969  0.00  0.00    +0.383 C 
ATOM     12  OXT UNL     1       2.116   4.940  -1.897  0.00  0.00    -0.244 OA
ATOM     13  O   UNL     1       0.623   6.348  -2.749  0.00  0.00    -0.244 OA
ENDBRANCH   3  11
BRANCH   6  14
ATOM     14  N   UNL     1       1.354   5.127  -7.415  0.00  0.00    -0.195 NA
ATOM     15  C   UNL     1       1.252   5.294  -8.831  0.00  0.00    +0.246 C 
ATOM     16  O   UNL     1       0.868   6.401  -9.306  0.00  0.00    -0.273 OA
BRANCH  15  17
ATOM     17  C   UNL     1       1.865   4.262  -9.698  0.00  0.00    +0.113 C 
BRANCH  17  18
ATOM     18  C   UNL     1       3.293   4.661  -9.926  0.00  0.00    -0.013 A 
ATOM     19  C   UNL     1       3.463   5.785 -10.718  0.00  0.00    -0.004 A 
ATOM     20  C   UNL     1       4.510   6.670 -10.554  0.00  0.00    -0.000 A 
ATOM     21  C   UNL     1       5.525   6.276  -9.699  0.00  0.00    -0.000 A 
ATOM     22  C   UNL     1       5.299   5.272  -8.790  0.00  0.00    -0.000 A 
ATOM     23  C   UNL     1       4.091   4.612  -8.787  0.00  0.00    -0.004 A 
ENDBRANCH  17  18
ENDBRANCH  15  17
ENDBRANCH   6  14
TORSDOF 4
ENDMDL
