MODEL 1
REMARK VINA RESULT:      -3.9      0.000      0.000
REMARK  Name = 
REMARK  2 active torsions:
REMARK  status: ('A' for Active; 'I' for Inactive)
REMARK    1  A    between atoms: C_2  and  C_3
REMARK    2  A    between atoms: C_3  and  C_4
REMARK                            x       y       z     vdW  Elec       q    Type
REMARK                         _______ _______ _______ _____ _____    ______ ____
ROOT
ATOM      1  C   UNL     1       6.653   6.435 -10.557  0.00  0.00    +0.081 A 
ATOM      2  N   UNL     1       5.325   6.681 -10.488  0.00  0.00    -0.227 NA
ATOM      3  C   UNL     1       4.876   5.848  -9.526  0.00  0.00    +0.199 A 
ATOM      4  N   UNL     1       5.913   5.295  -8.862  0.00  0.00    -0.221 NA
ATOM      5  C   UNL     1       7.056   5.776  -9.403  0.00  0.00    +0.115 A 
ENDROOT
BRANCH   1   6
ATOM      6  C   UNL     1       7.602   6.808 -11.624  0.00  0.00    +0.068 C 
BRANCH   6   8
ATOM      7  N   UNL     1       7.664   4.705 -12.906  0.00  0.00    -0.131 NA
ATOM      8  C   UNL     1       8.418   5.639 -12.104  0.00  0.00    +0.116 C 
ENDBRANCH   6   8
ENDBRANCH   1   6
TORSDOF 2
ENDMDL
MODEL 2
REMARK VINA RESULT:      -3.9      9.818     10.988
REMARK  Name = 
REMARK  2 active torsions:
REMARK  status: ('A' for Active; 'I' for Inactive)
REMARK    1  A    between atoms: C_2  and  C_3
REMARK    2  A    between atoms: C_3  and  C_4
REMARK                            x       y       z     vdW  Elec       q    Type
REMARK                         _______ _______ _______ _____ _____    ______ ____
ROOT
ATOM      1  C   UNL     1      -2.032   6.013  -3.978  0.00  0.00    +0.081 A 
ATOM      2  N   UNL     1      -0.932   6.036  -3.192  0.00  0.00    -0.227 NA
ATOM      3  C   UNL     1      -1.356   5.563  -2.001  0.00  0.00    +0.199 A 
ATOM      4  N   UNL     1      -2.595   5.040  -2.118  0.00  0.00    -0.221 NA
ATOM      5  C   UNL     1      -2.984   5.178  -3.407  0.00  0.00    +0.115 A 
ENDROOT
BRANCH   1   6
ATOM      6  C   UNL     1      -2.255   6.697  -5.266  0.00  0.00    +0.068 C 
BRANCH   6   8
ATOM      7  N   UNL     1      -1.209   5.132  -6.854  0.00  0.00    -0.131 NA
ATOM      8  C   UNL     1      -2.441   5.734  -6.406  0.00  0.00    +0.116 C 
ENDBRANCH   6   8
ENDBRANCH   1   6
TORSDOF 2
ENDMDL
MODEL 3
REMARK VINA RESULT:      -3.9      8.635     10.897
REMARK  Name = 
REMARK  2 active torsions:
REMARK  status: ('A' for Active; 'I' for Inactive)
REMARK    1  A    between atoms: C_2  and  C_3
REMARK    2  A    between atoms: C_3  and  C_4
REMARK                            x       y       z     vdW  Elec       q    Type
REMARK                         _______ _______ _______ _____ _____    ______ ____
ROOT
ATOM      1  C   UNL     1      -1.812   6.185  -5.127  0.00  0.00    +0.081 A 
ATOM      2  N   UNL     1      -0.465   6.183  -5.240  0.00  0.00    -0.227 NA
ATOM      3  C   UNL     1      -0.215   5.384  -6.298  0.00  0.00    +0.199 A 
ATOM      4  N   UNL     1      -1.359   5.107  -6.958  0.00  0.00    -0.221 NA
ATOM      5  C   UNL     1      -2.371   5.735  -6.316  0.00  0.00    +0.115 A 
ENDROOT
BRANCH   1   6
ATOM      6  C   UNL     1      -2.638   6.617  -3.983  0.00  0.00    +0.068 C 
BRANCH   6   8
ATOM      7  N   UNL     1      -2.480   4.932  -2.193  0.00  0.00    -0.131 NA
ATOM      8  C   UNL     1      -3.283   5.462  -3.268  0.00  0.00    +0.116 C 
ENDBRANCH   6   8
ENDBRANCH   1   6
TORSDOF 2
ENDMDL
MODEL 4
REMARK VINA RESULT:      -3.8      1.034      1.459
REMARK  Name = 
REMARK  2 active torsions:
REMARK  status: ('A' for Active; 'I' for Inactive)
REMARK    1  A    between atoms: C_2  and  C_3
REMARK    2  A    between atoms: C_3  and  C_4
REMARK                            x       y       z     vdW  Elec       q    Type
REMARK                         _______ _______ _______ _____ _____    ______ ____
ROOT
ATOM      1  C   UNL     1       6.175   5.861 -10.336  0.00  0.00    +0.081 A 
ATOM      2  N   UNL     1       6.346   5.497  -9.044  0.00  0.00    -0.227 NA
ATOM      3  C   UNL     1       5.098   5.248  -8.595  0.00  0.00    +0.199 A 
ATOM      4  N   UNL     1       4.225   5.218  -9.623  0.00  0.00    -0.221 NA
ATOM      5  C   UNL     1       4.917   5.454 -10.762  0.00  0.00    +0.115 A 
ENDROOT
BRANCH   1   6
ATOM      6  C   UNL     1       7.128   6.542 -11.233  0.00  0.00    +0.068 C 
BRANCH   6   8
ATOM      7  N   UNL     1       7.787   4.765 -12.806  0.00  0.00    -0.131 NA
ATOM      8  C   UNL     1       8.212   5.624 -11.727  0.00  0.00    +0.116 C 
ENDBRANCH   6   8
ENDBRANCH   1   6
TORSDOF 2
ENDMDL
MODEL 5
REMARK VINA RESULT:      -3.7      1.256      3.549
REMARK  Name = 
REMARK  2 active torsions:
REMARK  status: ('A' for Active; 'I' for Inactive)
REMARK    1  A    between atoms: C_2  and  C_3
REMARK    2  A    between atoms: C_3  and  C_4
REMARK                            x       y       z     vdW  Elec       q    Type
REMARK                         _______ _______ _______ _____ _____    ______ ____
ROOT
ATOM      1  C   UNL     1       6.667   6.349 -11.630  0.00  0.00    +0.081 A 
ATOM      2  N   UNL     1       7.987   6.644 -11.610  0.00  0.00    -0.227 NA
ATOM      3  C   UNL     1       8.578   5.590 -12.209  0.00  0.00    +0.199 A 
ATOM      4  N   UNL     1       7.653   4.801 -12.793  0.00  0.00    -0.221 NA
ATOM      5  C   UNL     1       6.437   5.351 -12.567  0.00  0.00    +0.115 A 
ENDROOT
BRANCH   1   6
ATOM      6  C   UNL     1       5.575   6.965 -10.851  0.00  0.00    +0.068 C 
BRANCH   6   8
ATOM      7  N   UNL     1       5.962   5.463  -8.937  0.00  0.00    -0.131 NA
ATOM      8  C   UNL     1       4.984   6.021  -9.841  0.00  0.00    +0.116 C 
ENDBRANCH   6   8
ENDBRANCH   1   6
TORSDOF 2
ENDMDL
MODEL 6
REMARK VINA RESULT:      -3.7      1.391      3.370
REMARK  Name = 
REMARK  2 active torsions:
REMARK  status: ('A' for Active; 'I' for Inactive)
REMARK    1  A    between atoms: C_2  and  C_3
REMARK    2  A    between atoms: C_3  and  C_4
REMARK                            x       y       z     vdW  Elec       q    Type
REMARK                         _______ _______ _______ _____ _____    ______ ____
ROOT
ATOM      1  C   UNL     1       7.115   6.227 -11.860  0.00  0.00    +0.081 A 
ATOM      2  N   UNL     1       6.169   6.541 -12.775  0.00  0.00    -0.227 NA
ATOM      3  C   UNL     1       6.516   5.841 -13.875  0.00  0.00    +0.199 A 
ATOM      4  N   UNL     1       7.482   4.947 -13.578  0.00  0.00    -0.221 NA
ATOM      5  C   UNL     1       7.771   5.070 -12.261  0.00  0.00    +0.115 A 
ENDROOT
BRANCH   1   6
ATOM      6  C   UNL     1       7.436   6.917 -10.597  0.00  0.00    +0.068 C 
BRANCH   6   8
ATOM      7  N   UNL     1       6.029   5.539  -9.117  0.00  0.00    -0.131 NA
ATOM      8  C   UNL     1       7.365   6.002  -9.405  0.00  0.00    +0.116 C 
ENDBRANCH   6   8
ENDBRANCH   1   6
TORSDOF 2
ENDMDL
MODEL 7
REMARK VINA RESULT:      -3.6      2.766      3.788
REMARK  Name = 
REMARK  2 active torsions:
REMARK  status: ('A' for Active; 'I' for Inactive)
REMARK    1  A    between atoms: C_2  and  C_3
REMARK    2  A    between atoms: C_3  and  C_4
REMARK                            x       y       z     vdW  Elec       q    Type
REMARK                         _______ _______ _______ _____ _____    ______ ____
ROOT
ATOM      1  C   UNL     1       7.200   5.939 -13.496  0.00  0.00    +0.081 A 
ATOM      2  N   UNL     1       7.709   4.832 -12.909  0.00  0.00    -0.227 NA
ATOM      3  C   UNL     1       8.040   5.231 -11.663  0.00  0.00    +0.199 A 
ATOM      4  N   UNL     1       7.532   6.456 -11.411  0.00  0.00    -0.221 NA
ATOM      5  C   UNL     1       6.861   6.861 -12.514  0.00  0.00    +0.115 A 
ENDROOT
BRANCH   1   6
ATOM      6  C   UNL     1       6.968   6.195 -14.931  0.00  0.00    +0.068 C 
BRANCH   6   8
ATOM      7  N   UNL     1       6.116   8.308 -15.868  0.00  0.00    -0.131 NA
ATOM      8  C   UNL     1       5.783   7.087 -15.173  0.00  0.00    +0.116 C 
ENDBRANCH   6   8
ENDBRANCH   1   6
TORSDOF 2
ENDMDL
MODEL 8
REMARK VINA RESULT:      -3.6      8.883     10.624
REMARK  Name = 
REMARK  2 active torsions:
REMARK  status: ('A' for Active; 'I' for Inactive)
REMARK    1  A    between atoms: C_2  and  C_3
REMARK    2  A    between atoms: C_3  and  C_4
REMARK                            x       y       z     vdW  Elec       q    Type
REMARK                         _______ _______ _______ _____ _____    ______ ____
ROOT
ATOM      1  C   UNL     1      -1.618   6.347  -4.004  0.00  0.00    +0.081 A 
ATOM      2  N   UNL     1      -2.898   6.724  -3.781  0.00  0.00    -0.227 NA
ATOM      3  C   UNL     1      -3.401   5.759  -2.983  0.00  0.00    +0.199 A 
ATOM      4  N   UNL     1      -2.411   4.959  -2.532  0.00  0.00    -0.221 NA
ATOM      5  C   UNL     1      -1.245   5.410  -3.049  0.00  0.00    +0.115 A 
ENDROOT
BRANCH   1   6
ATOM      6  C   UNL     1      -0.686   6.829  -5.041  0.00  0.00    +0.068 C 
BRANCH   6   8
ATOM      7  N   UNL     1      -1.539   5.248  -6.727  0.00  0.00    -0.131 NA
ATOM      8  C   UNL     1      -0.369   5.776  -6.067  0.00  0.00    +0.116 C 
ENDBRANCH   6   8
ENDBRANCH   1   6
TORSDOF 2
ENDMDL
MODEL 9
REMARK VINA RESULT:      -3.5     10.849     11.553
REMARK  Name = 
REMARK  2 active torsions:
REMARK  status: ('A' for Active; 'I' for Inactive)
REMARK    1  A    between atoms: C_2  and  C_3
REMARK    2  A    between atoms: C_3  and  C_4
REMARK                            x       y       z     vdW  Elec       q    Type
REMARK                         _______ _______ _______ _____ _____    ______ ____
ROOT
ATOM      1  C   UNL     1      -1.203   5.470  -3.004  0.00  0.00    +0.081 A 
ATOM      2  N   UNL     1      -2.336   4.951  -2.478  0.00  0.00    -0.227 NA
ATOM      3  C   UNL     1      -3.313   5.791  -2.880  0.00  0.00    +0.199 A 
ATOM      4  N   UNL     1      -2.843   6.646  -3.812  0.00  0.00    -0.221 NA
ATOM      5  C   UNL     1      -1.537   6.357  -4.019  0.00  0.00    +0.115 A 
ENDROOT
BRANCH   1   6
ATOM      6  C   UNL     1       0.196   5.170  -2.648  0.00  0.00    +0.068 C 
BRANCH   6   8
ATOM      7  N   UNL     1       1.718   4.742  -0.758  0.00  0.00    -0.131 NA
ATOM      8  C   UNL     1       0.461   5.316  -1.174  0.00  0.00    +0.116 C 
ENDBRANCH   6   8
ENDBRANCH   1   6
TORSDOF 2
ENDMDL
