MODEL 1
REMARK VINA RESULT:      -7.8      0.000      0.000
REMARK  Name = 
REMARK  1 active torsions:
REMARK  status: ('A' for Active; 'I' for Inactive)
REMARK    1  A    between atoms: O_2  and  C_3
REMARK                            x       y       z     vdW  Elec       q    Type
REMARK                         _______ _______ _______ _____ _____    ______ ____
ROOT
ATOM      1  C   UNL     1       1.505   5.506  -8.657  0.00  0.00    +0.237 C 
ATOM      2  C   UNL     1       2.023   7.104  -8.385  0.00  0.00    +0.059 C 
ATOM      3  C   UNL     1       3.487   6.806  -9.033  0.00  0.00    +0.005 C 
ATOM      4  C   UNL     1       2.595   7.266  -6.816  0.00  0.00    +0.038 C 
ATOM      5  C   UNL     1       1.447   6.609  -5.909  0.00  0.00    +0.178 C 
ATOM      6  C   UNL     1       2.119   6.697  -4.453  0.00  0.00    +0.033 C 
ATOM      7  C   UNL     1       3.455   5.662  -4.647  0.00  0.00    +0.003 C 
ATOM      8  C   UNL     1       4.369   6.663  -5.519  0.00  0.00    +0.000 C 
ATOM      9  C   UNL     1       4.118   6.186  -3.267  0.00  0.00    +0.000 C 
ATOM     10  C   UNL     1       1.490   5.416  -3.700  0.00  0.00    +0.008 C 
ATOM     11  C   UNL     1       0.187   5.121  -3.653  0.00  0.00    +0.059 C 
ATOM     12  C   UNL     1      -0.525   5.871  -4.744  0.00  0.00    +0.221 C 
ATOM     13  O   UNL     1      -0.160   7.191  -4.693  0.00  0.00    -0.197 OA
ATOM     14  C   UNL     1      -1.991   5.771  -4.400  0.00  0.00    +0.064 C 
ATOM     15  O   UNL     1      -0.331   5.124  -5.768  0.00  0.00    -0.306 OA
ATOM     16  C   UNL     1       1.099   5.111  -6.322  0.00  0.00    +0.268 C 
ATOM     17  O   UNL     1       0.384   7.399  -5.888  0.00  0.00    -0.218 OA
ATOM     18  C   UNL     1       3.741   6.094  -6.797  0.00  0.00    +0.003 C 
ATOM     19  O   UNL     1       0.431   5.628  -7.600  0.00  0.00    -0.304 OA
ENDROOT
BRANCH   1  21
ATOM     20  C   UNL     1       2.626   3.666  -8.506  0.00  0.00    +0.177 C 
ATOM     21  O   UNL     1       2.520   4.720  -7.855  0.00  0.00    -0.328 OA
ENDBRANCH   1  21
TORSDOF 1
ENDMDL
MODEL 2
REMARK VINA RESULT:      -7.2      3.955      6.106
REMARK  Name = 
REMARK  1 active torsions:
REMARK  status: ('A' for Active; 'I' for Inactive)
REMARK    1  A    between atoms: O_2  and  C_3
REMARK                            x       y       z     vdW  Elec       q    Type
REMARK                         _______ _______ _______ _____ _____    ______ ____
ROOT
ATOM      1  C   UNL     1      -1.518   5.991  -4.069  0.00  0.00    +0.237 C 
ATOM      2  C   UNL     1      -2.294   5.086  -2.855  0.00  0.00    +0.059 C 
ATOM      3  C   UNL     1      -3.640   5.996  -2.950  0.00  0.00    +0.005 C 
ATOM      4  C   UNL     1      -1.849   5.654  -1.340  0.00  0.00    +0.038 C 
ATOM      5  C   UNL     1      -0.248   5.738  -1.405  0.00  0.00    +0.178 C 
ATOM      6  C   UNL     1       0.083   6.394   0.023  0.00  0.00    +0.033 C 
ATOM      7  C   UNL     1      -0.649   7.921  -0.142  0.00  0.00    +0.003 C 
ATOM      8  C   UNL     1      -2.177   7.441   0.036  0.00  0.00    +0.000 C 
ATOM      9  C   UNL     1      -0.507   8.209   1.444  0.00  0.00    +0.000 C 
ATOM     10  C   UNL     1       1.430   7.228  -0.279  0.00  0.00    +0.008 C 
ATOM     11  C   UNL     1       2.513   6.735  -0.888  0.00  0.00    +0.059 C 
ATOM     12  C   UNL     1       2.134   5.481  -1.625  0.00  0.00    +0.221 C 
ATOM     13  O   UNL     1       1.437   4.658  -0.780  0.00  0.00    -0.197 OA
ATOM     14  C   UNL     1       3.443   4.813  -1.967  0.00  0.00    +0.064 C 
ATOM     15  O   UNL     1       1.652   5.939  -2.722  0.00  0.00    -0.306 OA
ATOM     16  C   UNL     1       0.286   6.626  -2.614  0.00  0.00    +0.268 C 
ATOM     17  O   UNL     1       0.266   4.518  -1.395  0.00  0.00    -0.218 OA
ATOM     18  C   UNL     1      -2.268   7.232  -1.480  0.00  0.00    +0.003 C 
ATOM     19  O   UNL     1      -0.154   5.537  -3.597  0.00  0.00    -0.304 OA
ENDROOT
BRANCH   1  21
ATOM     20  C   UNL     1      -1.593   8.114  -4.456  0.00  0.00    +0.177 C 
ATOM     21  O   UNL     1      -1.516   7.376  -3.459  0.00  0.00    -0.328 OA
ENDBRANCH   1  21
TORSDOF 1
ENDMDL
MODEL 3
REMARK VINA RESULT:      -7.1      2.352      5.934
REMARK  Name = 
REMARK  1 active torsions:
REMARK  status: ('A' for Active; 'I' for Inactive)
REMARK    1  A    between atoms: O_2  and  C_3
REMARK                            x       y       z     vdW  Elec       q    Type
REMARK                         _______ _______ _______ _____ _____    ______ ____
ROOT
ATOM      1  C   UNL     1       2.975   5.699  -6.542  0.00  0.00    +0.237 C 
ATOM      2  C   UNL     1       2.191   7.142  -6.989  0.00  0.00    +0.059 C 
ATOM      3  C   UNL     1       0.763   6.620  -6.408  0.00  0.00    +0.005 C 
ATOM      4  C   UNL     1       1.722   7.070  -8.598  0.00  0.00    +0.038 C 
ATOM      5  C   UNL     1       3.039   6.577  -9.371  0.00  0.00    +0.178 C 
ATOM      6  C   UNL     1       2.477   6.422 -10.867  0.00  0.00    +0.033 C 
ATOM      7  C   UNL     1       1.345   5.168 -10.662  0.00  0.00    +0.003 C 
ATOM      8  C   UNL     1       0.197   6.039  -9.942  0.00  0.00    +0.000 C 
ATOM      9  C   UNL     1       0.706   5.447 -12.122  0.00  0.00    +0.000 C 
ATOM     10  C   UNL     1       3.389   5.231 -11.461  0.00  0.00    +0.008 C 
ATOM     11  C   UNL     1       4.724   5.189 -11.401  0.00  0.00    +0.059 C 
ATOM     12  C   UNL     1       5.198   6.144 -10.341  0.00  0.00    +0.221 C 
ATOM     13  O   UNL     1       4.598   7.362 -10.534  0.00  0.00    -0.197 OA
ATOM     14  C   UNL     1       6.679   6.301 -10.584  0.00  0.00    +0.064 C 
ATOM     15  O   UNL     1       5.068   5.455  -9.268  0.00  0.00    -0.306 OA
ATOM     16  C   UNL     1       3.627   5.210  -8.803  0.00  0.00    +0.268 C 
ATOM     17  O   UNL     1       3.935   7.552  -9.397  0.00  0.00    -0.218 OA
ATOM     18  C   UNL     1       0.819   5.702  -8.582  0.00  0.00    +0.003 C 
ATOM     19  O   UNL     1       4.086   5.943  -7.539  0.00  0.00    -0.304 OA
ENDROOT
BRANCH   1  21
ATOM     20  C   UNL     1       2.205   3.682  -6.582  0.00  0.00    +0.177 C 
ATOM     21  O   UNL     1       2.190   4.673  -7.331  0.00  0.00    -0.328 OA
ENDBRANCH   1  21
TORSDOF 1
ENDMDL
MODEL 4
REMARK VINA RESULT:      -7.0      1.827      4.591
REMARK  Name = 
REMARK  1 active torsions:
REMARK  status: ('A' for Active; 'I' for Inactive)
REMARK    1  A    between atoms: O_2  and  C_3
REMARK                            x       y       z     vdW  Elec       q    Type
REMARK                         _______ _______ _______ _____ _____    ______ ____
ROOT
ATOM      1  C   UNL     1       4.420   6.130  -4.535  0.00  0.00    +0.237 C 
ATOM      2  C   UNL     1       3.329   7.395  -4.210  0.00  0.00    +0.059 C 
ATOM      3  C   UNL     1       2.866   6.719  -2.804  0.00  0.00    +0.005 C 
ATOM      4  C   UNL     1       1.869   7.111  -4.988  0.00  0.00    +0.038 C 
ATOM      5  C   UNL     1       2.288   6.755  -6.495  0.00  0.00    +0.178 C 
ATOM      6  C   UNL     1       0.861   6.386  -7.131  0.00  0.00    +0.033 C 
ATOM      7  C   UNL     1       0.452   5.000  -6.233  0.00  0.00    +0.003 C 
ATOM      8  C   UNL     1       0.046   5.749  -4.866  0.00  0.00    +0.000 C 
ATOM      9  C   UNL     1      -1.075   5.050  -6.768  0.00  0.00    +0.000 C 
ATOM     10  C   UNL     1       1.251   5.297  -8.256  0.00  0.00    +0.008 C 
ATOM     11  C   UNL     1       2.204   5.460  -9.179  0.00  0.00    +0.059 C 
ATOM     12  C   UNL     1       3.125   6.565  -8.742  0.00  0.00    +0.221 C 
ATOM     13  O   UNL     1       2.378   7.657  -8.386  0.00  0.00    -0.197 OA
ATOM     14  C   UNL     1       3.927   6.919  -9.971  0.00  0.00    +0.064 C 
ATOM     15  O   UNL     1       3.922   5.962  -7.940  0.00  0.00    -0.306 OA
ATOM     16  C   UNL     1       3.322   5.547  -6.591  0.00  0.00    +0.268 C 
ATOM     17  O   UNL     1       2.713   7.846  -7.113  0.00  0.00    -0.218 OA
ATOM     18  C   UNL     1       1.498   5.631  -4.390  0.00  0.00    +0.003 C 
ATOM     19  O   UNL     1       4.417   6.449  -6.014  0.00  0.00    -0.304 OA
ENDROOT
BRANCH   1  21
ATOM     20  C   UNL     1       4.240   4.004  -4.207  0.00  0.00    +0.177 C 
ATOM     21  O   UNL     1       3.495   4.933  -4.563  0.00  0.00    -0.328 OA
ENDBRANCH   1  21
TORSDOF 1
ENDMDL
MODEL 5
REMARK VINA RESULT:      -7.0      1.605      3.879
REMARK  Name = 
REMARK  1 active torsions:
REMARK  status: ('A' for Active; 'I' for Inactive)
REMARK    1  A    between atoms: O_2  and  C_3
REMARK                            x       y       z     vdW  Elec       q    Type
REMARK                         _______ _______ _______ _____ _____    ______ ____
ROOT
ATOM      1  C   UNL     1       3.572   5.910  -2.699  0.00  0.00    +0.237 C 
ATOM      2  C   UNL     1       3.825   4.614  -3.773  0.00  0.00    +0.059 C 
ATOM      3  C   UNL     1       5.343   5.102  -4.102  0.00  0.00    +0.005 C 
ATOM      4  C   UNL     1       3.223   4.998  -5.292  0.00  0.00    +0.038 C 
ATOM      5  C   UNL     1       1.744   5.547  -5.002  0.00  0.00    +0.178 C 
ATOM      6  C   UNL     1       1.290   5.997  -6.475  0.00  0.00    +0.033 C 
ATOM      7  C   UNL     1       2.393   7.254  -6.787  0.00  0.00    +0.003 C 
ATOM      8  C   UNL     1       3.682   6.333  -7.081  0.00  0.00    +0.000 C 
ATOM      9  C   UNL     1       1.994   7.275  -8.355  0.00  0.00    +0.000 C 
ATOM     10  C   UNL     1       0.286   7.223  -6.172  0.00  0.00    +0.008 C 
ATOM     11  C   UNL     1      -0.731   7.181  -5.306  0.00  0.00    +0.059 C 
ATOM     12  C   UNL     1      -0.525   6.028  -4.363  0.00  0.00    +0.221 C 
ATOM     13  O   UNL     1      -0.248   4.899  -5.089  0.00  0.00    -0.197 OA
ATOM     14  C   UNL     1      -1.855   5.837  -3.677  0.00  0.00    +0.064 C 
ATOM     15  O   UNL     1       0.276   6.521  -3.492  0.00  0.00    -0.306 OA
ATOM     16  C   UNL     1       1.714   6.757  -3.967  0.00  0.00    +0.268 C 
ATOM     17  O   UNL     1       0.955   4.545  -4.647  0.00  0.00    -0.218 OA
ATOM     18  C   UNL     1       4.039   6.388  -5.591  0.00  0.00    +0.003 C 
ATOM     19  O   UNL     1       2.070   5.787  -2.836  0.00  0.00    -0.304 OA
ENDROOT
BRANCH   1  21
ATOM     20  C   UNL     1       4.141   7.989  -2.818  0.00  0.00    +0.177 C 
ATOM     21  O   UNL     1       3.782   7.101  -3.609  0.00  0.00    -0.328 OA
ENDBRANCH   1  21
TORSDOF 1
ENDMDL
MODEL 6
REMARK VINA RESULT:      -7.0      1.399      2.391
REMARK  Name = 
REMARK  1 active torsions:
REMARK  status: ('A' for Active; 'I' for Inactive)
REMARK    1  A    between atoms: O_2  and  C_3
REMARK                            x       y       z     vdW  Elec       q    Type
REMARK                         _______ _______ _______ _____ _____    ______ ____
ROOT
ATOM      1  C   UNL     1       2.150   5.640  -6.936  0.00  0.00    +0.237 C 
ATOM      2  C   UNL     1       2.687   6.993  -6.053  0.00  0.00    +0.059 C 
ATOM      3  C   UNL     1       4.105   6.276  -5.698  0.00  0.00    +0.005 C 
ATOM      4  C   UNL     1       2.099   6.926  -4.483  0.00  0.00    +0.038 C 
ATOM      5  C   UNL     1       0.532   6.630  -4.661  0.00  0.00    +0.178 C 
ATOM      6  C   UNL     1       0.075   6.466  -3.130  0.00  0.00    +0.033 C 
ATOM      7  C   UNL     1       0.945   5.075  -2.678  0.00  0.00    +0.003 C 
ATOM      8  C   UNL     1       2.393   5.769  -2.542  0.00  0.00    +0.000 C 
ATOM      9  C   UNL     1       0.625   5.331  -1.112  0.00  0.00    +0.000 C 
ATOM     10  C   UNL     1      -1.149   5.421  -3.241  0.00  0.00    +0.008 C 
ATOM     11  C   UNL     1      -2.182   5.541  -4.081  0.00  0.00    +0.059 C 
ATOM     12  C   UNL     1      -1.814   6.505  -5.175  0.00  0.00    +0.221 C 
ATOM     13  O   UNL     1      -1.302   7.646  -4.615  0.00  0.00    -0.197 OA
ATOM     14  C   UNL     1      -3.119   6.852  -5.850  0.00  0.00    +0.064 C 
ATOM     15  O   UNL     1      -1.160   5.763  -5.991  0.00  0.00    -0.306 OA
ATOM     16  C   UNL     1       0.232   5.325  -5.522  0.00  0.00    +0.268 C 
ATOM     17  O   UNL     1      -0.077   7.708  -5.129  0.00  0.00    -0.218 OA
ATOM     18  C   UNL     1       2.661   5.458  -4.019  0.00  0.00    +0.003 C 
ATOM     19  O   UNL     1       0.704   6.058  -6.782  0.00  0.00    -0.304 OA
ENDROOT
BRANCH   1  21
ATOM     20  C   UNL     1       2.216   3.516  -6.557  0.00  0.00    +0.177 C 
ATOM     21  O   UNL     1       2.183   4.558  -5.880  0.00  0.00    -0.328 OA
ENDBRANCH   1  21
TORSDOF 1
ENDMDL
MODEL 7
REMARK VINA RESULT:      -6.9      1.822      3.742
REMARK  Name = 
REMARK  1 active torsions:
REMARK  status: ('A' for Active; 'I' for Inactive)
REMARK    1  A    between atoms: O_2  and  C_3
REMARK                            x       y       z     vdW  Elec       q    Type
REMARK                         _______ _______ _______ _____ _____    ______ ____
ROOT
ATOM      1  C   UNL     1       3.598   5.675  -8.312  0.00  0.00    +0.237 C 
ATOM      2  C   UNL     1       2.932   4.140  -7.996  0.00  0.00    +0.059 C 
ATOM      3  C   UNL     1       1.911   4.255  -9.259  0.00  0.00    +0.005 C 
ATOM      4  C   UNL     1       1.729   4.263  -6.833  0.00  0.00    +0.038 C 
ATOM      5  C   UNL     1       2.402   5.124  -5.658  0.00  0.00    +0.178 C 
ATOM      6  C   UNL     1       1.162   5.292  -4.652  0.00  0.00    +0.033 C 
ATOM      7  C   UNL     1       0.096   6.221  -5.601  0.00  0.00    +0.003 C 
ATOM      8  C   UNL     1      -0.399   5.038  -6.577  0.00  0.00    +0.000 C 
ATOM      9  C   UNL     1      -1.125   5.948  -4.575  0.00  0.00    +0.000 C 
ATOM     10  C   UNL     1       1.466   6.717  -3.958  0.00  0.00    +0.008 C 
ATOM     11  C   UNL     1       2.633   7.063  -3.406  0.00  0.00    +0.059 C 
ATOM     12  C   UNL     1       3.709   6.143  -3.915  0.00  0.00    +0.221 C 
ATOM     13  O   UNL     1       3.290   4.846  -3.779  0.00  0.00    -0.197 OA
ATOM     14  C   UNL     1       4.883   6.362  -2.993  0.00  0.00    +0.064 C 
ATOM     15  O   UNL     1       4.016   6.672  -5.041  0.00  0.00    -0.306 OA
ATOM     16  C   UNL     1       2.971   6.526  -6.153  0.00  0.00    +0.268 C 
ATOM     17  O   UNL     1       3.309   4.392  -5.029  0.00  0.00    -0.218 OA
ATOM     18  C   UNL     1       0.749   5.373  -7.536  0.00  0.00    +0.003 C 
ATOM     19  O   UNL     1       4.100   5.798  -6.890  0.00  0.00    -0.304 OA
ENDROOT
BRANCH   1  21
ATOM     20  C   UNL     1       2.693   7.551  -8.880  0.00  0.00    +0.177 C 
ATOM     21  O   UNL     1       2.378   6.563  -8.195  0.00  0.00    -0.328 OA
ENDBRANCH   1  21
TORSDOF 1
ENDMDL
MODEL 8
REMARK VINA RESULT:      -6.7      2.172      4.994
REMARK  Name = 
REMARK  1 active torsions:
REMARK  status: ('A' for Active; 'I' for Inactive)
REMARK    1  A    between atoms: O_2  and  C_3
REMARK                            x       y       z     vdW  Elec       q    Type
REMARK                         _______ _______ _______ _____ _____    ______ ____
ROOT
ATOM      1  C   UNL     1       4.563   6.165  -2.528  0.00  0.00    +0.237 C 
ATOM      2  C   UNL     1       3.705   7.621  -2.734  0.00  0.00    +0.059 C 
ATOM      3  C   UNL     1       2.937   7.442  -1.310  0.00  0.00    +0.005 C 
ATOM      4  C   UNL     1       2.336   7.356  -3.666  0.00  0.00    +0.038 C 
ATOM      5  C   UNL     1       2.874   6.533  -4.934  0.00  0.00    +0.178 C 
ATOM      6  C   UNL     1       1.500   6.222  -5.705  0.00  0.00    +0.033 C 
ATOM      7  C   UNL     1       0.713   5.221  -4.576  0.00  0.00    +0.003 C 
ATOM      8  C   UNL     1       0.282   6.375  -3.537  0.00  0.00    +0.000 C 
ATOM      9  C   UNL     1      -0.689   5.351  -5.373  0.00  0.00    +0.000 C 
ATOM     10  C   UNL     1       1.817   4.816  -6.430  0.00  0.00    +0.008 C 
ATOM     11  C   UNL     1       2.898   4.569  -7.176  0.00  0.00    +0.059 C 
ATOM     12  C   UNL     1       3.950   5.599  -6.872  0.00  0.00    +0.221 C 
ATOM     13  O   UNL     1       3.389   6.847  -6.943  0.00  0.00    -0.197 OA
ATOM     14  C   UNL     1       4.962   5.469  -7.985  0.00  0.00    +0.064 C 
ATOM     15  O   UNL     1       4.500   5.130  -5.813  0.00  0.00    -0.306 OA
ATOM     16  C   UNL     1       3.656   5.204  -4.535  0.00  0.00    +0.268 C 
ATOM     17  O   UNL     1       3.581   7.331  -5.719  0.00  0.00    -0.218 OA
ATOM     18  C   UNL     1       1.607   6.176  -2.793  0.00  0.00    +0.003 C 
ATOM     19  O   UNL     1       4.819   6.054  -4.015  0.00  0.00    -0.304 OA
ENDROOT
BRANCH   1  21
ATOM     20  C   UNL     1       3.829   4.403  -1.521  0.00  0.00    +0.177 C 
ATOM     21  O   UNL     1       3.434   5.163  -2.421  0.00  0.00    -0.328 OA
ENDBRANCH   1  21
TORSDOF 1
ENDMDL
MODEL 9
REMARK VINA RESULT:      -6.7      1.124      4.240
REMARK  Name = 
REMARK  1 active torsions:
REMARK  status: ('A' for Active; 'I' for Inactive)
REMARK    1  A    between atoms: O_2  and  C_3
REMARK                            x       y       z     vdW  Elec       q    Type
REMARK                         _______ _______ _______ _____ _____    ______ ____
ROOT
ATOM      1  C   UNL     1      -1.056   5.886  -4.803  0.00  0.00    +0.237 C 
ATOM      2  C   UNL     1      -0.157   4.823  -3.824  0.00  0.00    +0.059 C 
ATOM      3  C   UNL     1      -0.389   5.746  -2.502  0.00  0.00    +0.005 C 
ATOM      4  C   UNL     1       1.480   5.168  -3.950  0.00  0.00    +0.038 C 
ATOM      5  C   UNL     1       1.744   5.251  -5.530  0.00  0.00    +0.178 C 
ATOM      6  C   UNL     1       3.287   5.696  -5.560  0.00  0.00    +0.033 C 
ATOM      7  C   UNL     1       3.196   7.236  -4.842  0.00  0.00    +0.003 C 
ATOM      8  C   UNL     1       3.000   6.746  -3.320  0.00  0.00    +0.000 C 
ATOM      9  C   UNL     1       4.803   7.296  -4.663  0.00  0.00    +0.000 C 
ATOM     10  C   UNL     1       3.376   6.557  -6.922  0.00  0.00    +0.008 C 
ATOM     11  C   UNL     1       2.930   6.148  -8.114  0.00  0.00    +0.059 C 
ATOM     12  C   UNL     1       1.965   5.014  -7.914  0.00  0.00    +0.221 C 
ATOM     13  O   UNL     1       2.532   4.083  -7.084  0.00  0.00    -0.197 OA
ATOM     14  C   UNL     1       1.798   4.393  -9.280  0.00  0.00    +0.064 C 
ATOM     15  O   UNL     1       0.870   5.624  -7.647  0.00  0.00    -0.306 OA
ATOM     16  C   UNL     1       0.801   6.298  -6.272  0.00  0.00    +0.268 C 
ATOM     17  O   UNL     1       1.685   4.039  -6.060  0.00  0.00    -0.218 OA
ATOM     18  C   UNL     1       1.482   6.753  -3.532  0.00  0.00    +0.003 C 
ATOM     19  O   UNL     1      -0.392   5.362  -6.057  0.00  0.00    -0.304 OA
ENDROOT
BRANCH   1  21
ATOM     20  C   UNL     1      -1.150   8.043  -4.755  0.00  0.00    +0.177 C 
ATOM     21  O   UNL     1      -0.270   7.171  -4.655  0.00  0.00    -0.328 OA
ENDBRANCH   1  21
TORSDOF 1
ENDMDL
