MODEL 1
REMARK VINA RESULT:      -8.3      0.000      0.000
REMARK  Name = 
REMARK  8 active torsions:
REMARK  status: ('A' for Active; 'I' for Inactive)
REMARK    1  A    between atoms: C_2  and  C_3
REMARK    2  A    between atoms: C_2  and  N_11
REMARK    3  A    between atoms: C_3  and  C_4
REMARK    4  A    between atoms: C_4  and  C_5
REMARK    5  A    between atoms: N_11  and  C_12
REMARK    6  A    between atoms: C_12  and  C_13
REMARK    7  A    between atoms: C_13  and  C_15
REMARK    8  A    between atoms: C_20  and  C_21
REMARK                            x       y       z     vdW  Elec       q    Type
REMARK                         _______ _______ _______ _____ _____    ______ ____
ROOT
ATOM      1  C   UNL     1       1.464   4.688  -6.219  0.00  0.00    +0.126 C 
ENDROOT
BRANCH   1   2
ATOM      2  C   UNL     1       0.750   6.098  -6.744  0.00  0.00    +0.192 C 
ATOM      3  O   UNL     1      -0.346   5.319  -7.477  0.00  0.00    -0.217 OA
BRANCH   2   4
ATOM      4  C   UNL     1      -0.173   6.278  -5.412  0.00  0.00    +0.009 A 
ATOM      5  C   UNL     1       0.198   5.581  -4.309  0.00  0.00    +0.006 A 
ATOM      6  C   UNL     1      -0.691   5.485  -3.252  0.00  0.00    +0.095 A 
ATOM      7  C   UNL     1      -2.029   5.471  -3.543  0.00  0.00    +0.200 A 
ATOM      8  O   UNL     1      -2.846   4.657  -2.756  0.00  0.00    -0.286 OA
ATOM      9  C   UNL     1      -2.483   6.011  -4.721  0.00  0.00    +0.042 A 
ATOM     10  C   UNL     1      -1.533   6.242  -5.710  0.00  0.00    +0.001 A 
BRANCH   6  11
ATOM     11  C   UNL     1      -0.237   5.453  -1.878  0.00  0.00    +0.287 C 
ATOM     12  O   UNL     1       0.397   4.427  -1.494  0.00  0.00    -0.267 OA
ATOM     13  N   UNL     1      -0.096   6.622  -1.101  0.00  0.00    -0.084 NA
ENDBRANCH   6  11
ENDBRANCH   2   4
ENDBRANCH   1   2
BRANCH   1  14
ATOM     14  N   UNL     1       2.592   4.560  -7.111  0.00  0.00    -0.216 NA
BRANCH  14  16
ATOM     15  C   UNL     1       3.923   5.134  -5.293  0.00  0.00    +0.019 C 
ATOM     16  C   UNL     1       3.394   5.850  -6.679  0.00  0.00    +0.073 C 
BRANCH  16  17
ATOM     17  C   UNL     1       4.729   5.369  -7.516  0.00  0.00    +0.022 C 
BRANCH  17  18
ATOM     18  C   UNL     1       4.209   5.261  -8.932  0.00  0.00    +0.028 C 
BRANCH  18  19
ATOM     19  C   UNL     1       5.262   5.858  -9.814  0.00  0.00    -0.022 A 
ATOM     20  C   UNL     1       4.906   7.046 -10.441  0.00  0.00    -0.004 A 
ATOM     21  C   UNL     1       5.868   7.678 -11.177  0.00  0.00    -0.000 A 
ATOM     22  C   UNL     1       7.172   7.317 -11.056  0.00  0.00    -0.000 A 
ATOM     23  C   UNL     1       7.553   6.397 -10.130  0.00  0.00    -0.000 A 
ATOM     24  C   UNL     1       6.577   5.792  -9.372  0.00  0.00    -0.004 A 
ENDBRANCH  18  19
ENDBRANCH  17  18
ENDBRANCH  16  17
ENDBRANCH  14  16
ENDBRANCH   1  14
TORSDOF 8
ENDMDL
MODEL 2
REMARK VINA RESULT:      -8.2      3.645      9.164
REMARK  Name = 
REMARK  8 active torsions:
REMARK  status: ('A' for Active; 'I' for Inactive)
REMARK    1  A    between atoms: C_2  and  C_3
REMARK    2  A    between atoms: C_2  and  N_11
REMARK    3  A    between atoms: C_3  and  C_4
REMARK    4  A    between atoms: C_4  and  C_5
REMARK    5  A    between atoms: N_11  and  C_12
REMARK    6  A    between atoms: C_12  and  C_13
REMARK    7  A    between atoms: C_13  and  C_15
REMARK    8  A    between atoms: C_20  and  C_21
REMARK                            x       y       z     vdW  Elec       q    Type
REMARK                         _______ _______ _______ _____ _____    ______ ____
ROOT
ATOM      1  C   UNL     1       3.512   4.449  -9.192  0.00  0.00    +0.126 C 
ENDROOT
BRANCH   1   2
ATOM      2  C   UNL     1       4.198   5.854  -8.617  0.00  0.00    +0.192 C 
ATOM      3  O   UNL     1       5.290   5.072  -7.883  0.00  0.00    -0.217 OA
BRANCH   2   4
ATOM      4  C   UNL     1       5.143   6.079  -9.927  0.00  0.00    +0.009 A 
ATOM      5  C   UNL     1       4.796   5.414 -11.057  0.00  0.00    +0.006 A 
ATOM      6  C   UNL     1       5.705   5.355 -12.100  0.00  0.00    +0.095 A 
ATOM      7  C   UNL     1       7.037   5.339 -11.785  0.00  0.00    +0.200 A 
ATOM      8  O   UNL     1       7.873   4.553 -12.582  0.00  0.00    -0.286 OA
ATOM      9  C   UNL     1       7.467   5.845 -10.584  0.00  0.00    +0.042 A 
ATOM     10  C   UNL     1       6.498   6.042  -9.605  0.00  0.00    +0.001 A 
BRANCH   6  11
ATOM     11  C   UNL     1       5.276   5.363 -13.482  0.00  0.00    +0.287 C 
ATOM     12  O   UNL     1       4.344   4.571 -13.811  0.00  0.00    -0.267 OA
ATOM     13  N   UNL     1       5.530   6.448 -14.347  0.00  0.00    -0.084 NA
ENDBRANCH   6  11
ENDBRANCH   2   4
ENDBRANCH   1   2
BRANCH   1  14
ATOM     14  N   UNL     1       2.232   4.434  -8.525  0.00  0.00    -0.216 NA
BRANCH  14  16
ATOM     15  C   UNL     1       1.104   4.912 -10.501  0.00  0.00    +0.019 C 
ATOM     16  C   UNL     1       1.607   5.736  -9.166  0.00  0.00    +0.073 C 
BRANCH  16  17
ATOM     17  C   UNL     1       0.171   5.493  -8.394  0.00  0.00    +0.022 C 
BRANCH  17  18
ATOM     18  C   UNL     1       0.603   5.231  -6.970  0.00  0.00    +0.028 C 
BRANCH  18  19
ATOM     19  C   UNL     1      -0.468   5.803  -6.093  0.00  0.00    -0.022 A 
ATOM     20  C   UNL     1      -0.147   7.003  -5.471  0.00  0.00    -0.004 A 
ATOM     21  C   UNL     1      -1.128   7.611  -4.740  0.00  0.00    -0.000 A 
ATOM     22  C   UNL     1      -2.422   7.214  -4.862  0.00  0.00    -0.000 A 
ATOM     23  C   UNL     1      -2.775   6.279  -5.784  0.00  0.00    -0.000 A 
ATOM     24  C   UNL     1      -1.780   5.697  -6.537  0.00  0.00    -0.004 A 
ENDBRANCH  18  19
ENDBRANCH  17  18
ENDBRANCH  16  17
ENDBRANCH  14  16
ENDBRANCH   1  14
TORSDOF 8
ENDMDL
MODEL 3
REMARK VINA RESULT:      -7.9      3.471      6.994
REMARK  Name = 
REMARK  8 active torsions:
REMARK  status: ('A' for Active; 'I' for Inactive)
REMARK    1  A    between atoms: C_2  and  C_3
REMARK    2  A    between atoms: C_2  and  N_11
REMARK    3  A    between atoms: C_3  and  C_4
REMARK    4  A    between atoms: C_4  and  C_5
REMARK    5  A    between atoms: N_11  and  C_12
REMARK    6  A    between atoms: C_12  and  C_13
REMARK    7  A    between atoms: C_13  and  C_15
REMARK    8  A    between atoms: C_20  and  C_21
REMARK                            x       y       z     vdW  Elec       q    Type
REMARK                         _______ _______ _______ _____ _____    ______ ____
ROOT
ATOM      1  C   UNL     1       2.301   5.454  -5.867  0.00  0.00    +0.126 C 
ENDROOT
BRANCH   1   2
ATOM      2  C   UNL     1       3.864   5.898  -6.234  0.00  0.00    +0.192 C 
ATOM      3  O   UNL     1       3.473   7.376  -6.303  0.00  0.00    -0.217 OA
BRANCH   2   4
ATOM      4  C   UNL     1       4.330   6.023  -4.676  0.00  0.00    +0.009 A 
ATOM      5  C   UNL     1       3.534   5.438  -3.747  0.00  0.00    +0.006 A 
ATOM      6  C   UNL     1       3.733   5.744  -2.412  0.00  0.00    +0.095 A 
ATOM      7  C   UNL     1       4.181   7.001  -2.105  0.00  0.00    +0.200 A 
ATOM      8  O   UNL     1       3.684   7.589  -0.940  0.00  0.00    -0.286 OA
ATOM      9  C   UNL     1       4.859   7.738  -3.043  0.00  0.00    +0.042 A 
ATOM     10  C   UNL     1       4.766   7.309  -4.363  0.00  0.00    +0.001 A 
BRANCH   6  11
ATOM     11  C   UNL     1       3.530   4.760  -1.369  0.00  0.00    +0.287 C 
ATOM     12  O   UNL     1       4.540   4.403  -0.695  0.00  0.00    -0.267 OA
ATOM     13  N   UNL     1       2.261   4.507  -0.806  0.00  0.00    -0.084 NA
ENDBRANCH   6  11
ENDBRANCH   2   4
ENDBRANCH   1   2
BRANCH   1  14
ATOM     14  N   UNL     1       1.756   5.134  -7.165  0.00  0.00    -0.216 NA
BRANCH  14  16
ATOM     15  C   UNL     1      -0.134   5.428  -8.485  0.00  0.00    +0.019 C 
ATOM     16  C   UNL     1       0.565   6.171  -7.193  0.00  0.00    +0.073 C 
BRANCH  16  17
ATOM     17  C   UNL     1      -0.311   5.279  -6.120  0.00  0.00    +0.022 C 
BRANCH  17  18
ATOM     18  C   UNL     1      -1.731   5.698  -6.427  0.00  0.00    +0.028 C 
BRANCH  18  19
ATOM     19  C   UNL     1      -2.307   6.206  -5.142  0.00  0.00    -0.022 A 
ATOM     20  C   UNL     1      -2.766   5.226  -4.269  0.00  0.00    -0.004 A 
ATOM     21  C   UNL     1      -3.209   5.637  -3.044  0.00  0.00    -0.000 A 
ATOM     22  C   UNL     1      -2.939   6.894  -2.602  0.00  0.00    -0.000 A 
ATOM     23  C   UNL     1      -2.139   7.724  -3.322  0.00  0.00    -0.000 A 
ATOM     24  C   UNL     1      -1.672   7.286  -4.540  0.00  0.00    -0.004 A 
ENDBRANCH  18  19
ENDBRANCH  17  18
ENDBRANCH  16  17
ENDBRANCH  14  16
ENDBRANCH   1  14
TORSDOF 8
ENDMDL
MODEL 4
REMARK VINA RESULT:      -7.9      4.392      8.399
REMARK  Name = 
REMARK  8 active torsions:
REMARK  status: ('A' for Active; 'I' for Inactive)
REMARK    1  A    between atoms: C_2  and  C_3
REMARK    2  A    between atoms: C_2  and  N_11
REMARK    3  A    between atoms: C_3  and  C_4
REMARK    4  A    between atoms: C_4  and  C_5
REMARK    5  A    between atoms: N_11  and  C_12
REMARK    6  A    between atoms: C_12  and  C_13
REMARK    7  A    between atoms: C_13  and  C_15
REMARK    8  A    between atoms: C_20  and  C_21
REMARK                            x       y       z     vdW  Elec       q    Type
REMARK                         _______ _______ _______ _____ _____    ______ ____
ROOT
ATOM      1  C   UNL     1       3.484   6.290  -8.328  0.00  0.00    +0.126 C 
ENDROOT
BRANCH   1   2
ATOM      2  C   UNL     1       4.814   5.308  -8.129  0.00  0.00    +0.192 C 
ATOM      3  O   UNL     1       4.096   4.129  -8.791  0.00  0.00    -0.217 OA
BRANCH   2   4
ATOM      4  C   UNL     1       5.515   5.757  -9.531  0.00  0.00    +0.009 A 
ATOM      5  C   UNL     1       4.976   5.263 -10.674  0.00  0.00    +0.006 A 
ATOM      6  C   UNL     1       5.688   5.389 -11.854  0.00  0.00    +0.095 A 
ATOM      7  C   UNL     1       7.055   5.363 -11.781  0.00  0.00    +0.200 A 
ATOM      8  O   UNL     1       7.739   4.732 -12.823  0.00  0.00    -0.286 OA
ATOM      9  C   UNL     1       7.688   5.692 -10.609  0.00  0.00    +0.042 A 
ATOM     10  C   UNL     1       6.906   5.709  -9.459  0.00  0.00    +0.001 A 
BRANCH   6  11
ATOM     11  C   UNL     1       5.023   5.596 -13.124  0.00  0.00    +0.287 C 
ATOM     12  O   UNL     1       5.427   6.552 -13.849  0.00  0.00    -0.267 OA
ATOM     13  N   UNL     1       4.274   4.583 -13.758  0.00  0.00    -0.084 NA
ENDBRANCH   6  11
ENDBRANCH   2   4
ENDBRANCH   1   2
BRANCH   1  14
ATOM     14  N   UNL     1       2.387   5.371  -8.132  0.00  0.00    -0.216 NA
BRANCH  14  16
ATOM     15  C   UNL     1       2.162   7.680  -7.979  0.00  0.00    +0.019 C 
ATOM     16  C   UNL     1       1.187   6.387  -8.282  0.00  0.00    +0.073 C 
BRANCH  16  17
ATOM     17  C   UNL     1       1.419   6.508  -9.909  0.00  0.00    +0.022 C 
BRANCH  17  18
ATOM     18  C   UNL     1       0.449   5.486 -10.456  0.00  0.00    +0.028 C 
BRANCH  18  19
ATOM     19  C   UNL     1       0.426   5.680 -11.940  0.00  0.00    -0.022 A 
ATOM     20  C   UNL     1       1.014   6.854 -12.394  0.00  0.00    -0.004 A 
ATOM     21  C   UNL     1       1.104   7.028 -13.746  0.00  0.00    -0.000 A 
ATOM     22  C   UNL     1       0.899   5.980 -14.588  0.00  0.00    -0.000 A 
ATOM     23  C   UNL     1       0.703   4.727 -14.098  0.00  0.00    -0.000 A 
ATOM     24  C   UNL     1       0.647   4.561 -12.734  0.00  0.00    -0.004 A 
ENDBRANCH  18  19
ENDBRANCH  17  18
ENDBRANCH  16  17
ENDBRANCH  14  16
ENDBRANCH   1  14
TORSDOF 8
ENDMDL
MODEL 5
REMARK VINA RESULT:      -7.9      1.344      1.806
REMARK  Name = 
REMARK  8 active torsions:
REMARK  status: ('A' for Active; 'I' for Inactive)
REMARK    1  A    between atoms: C_2  and  C_3
REMARK    2  A    between atoms: C_2  and  N_11
REMARK    3  A    between atoms: C_3  and  C_4
REMARK    4  A    between atoms: C_4  and  C_5
REMARK    5  A    between atoms: N_11  and  C_12
REMARK    6  A    between atoms: C_12  and  C_13
REMARK    7  A    between atoms: C_13  and  C_15
REMARK    8  A    between atoms: C_20  and  C_21
REMARK                            x       y       z     vdW  Elec       q    Type
REMARK                         _______ _______ _______ _____ _____    ______ ____
ROOT
ATOM      1  C   UNL     1       1.903   6.311  -6.732  0.00  0.00    +0.126 C 
ENDROOT
BRANCH   1   2
ATOM      2  C   UNL     1       0.825   5.045  -6.825  0.00  0.00    +0.192 C 
ATOM      3  O   UNL     1       1.623   4.235  -5.800  0.00  0.00    -0.217 OA
BRANCH   2   4
ATOM      4  C   UNL     1      -0.171   5.642  -5.679  0.00  0.00    +0.009 A 
ATOM      5  C   UNL     1      -0.025   5.153  -4.422  0.00  0.00    +0.006 A 
ATOM      6  C   UNL     1      -1.010   5.419  -3.486  0.00  0.00    +0.095 A 
ATOM      7  C   UNL     1      -2.299   5.537  -3.933  0.00  0.00    +0.200 A 
ATOM      8  O   UNL     1      -3.309   5.041  -3.106  0.00  0.00    -0.286 OA
ATOM      9  C   UNL     1      -2.546   5.870  -5.241  0.00  0.00    +0.042 A 
ATOM     10  C   UNL     1      -1.485   5.741  -6.131  0.00  0.00    +0.001 A 
BRANCH   6  11
ATOM     11  C   UNL     1      -0.694   5.619  -2.088  0.00  0.00    +0.287 C 
ATOM     12  O   UNL     1       0.082   4.784  -1.537  0.00  0.00    -0.267 OA
ATOM     13  N   UNL     1      -0.851   6.866  -1.448  0.00  0.00    -0.084 NA
ENDBRANCH   6  11
ENDBRANCH   2   4
ENDBRANCH   1   2
BRANCH   1  14
ATOM     14  N   UNL     1       1.606   7.061  -7.929  0.00  0.00    -0.216 NA
BRANCH  14  16
ATOM     15  C   UNL     1       0.565   6.651  -9.967  0.00  0.00    +0.019 C 
ATOM     16  C   UNL     1       1.623   5.874  -8.972  0.00  0.00    +0.073 C 
BRANCH  16  17
ATOM     17  C   UNL     1       2.928   6.507  -9.754  0.00  0.00    +0.022 C 
BRANCH  17  18
ATOM     18  C   UNL     1       3.957   5.407  -9.622  0.00  0.00    +0.028 C 
BRANCH  18  19
ATOM     19  C   UNL     1       5.232   5.953 -10.185  0.00  0.00    -0.022 A 
ATOM     20  C   UNL     1       5.133   7.213 -10.763  0.00  0.00    -0.004 A 
ATOM     21  C   UNL     1       6.290   7.793 -11.201  0.00  0.00    -0.000 A 
ATOM     22  C   UNL     1       7.496   7.292 -10.823  0.00  0.00    -0.000 A 
ATOM     23  C   UNL     1       7.571   6.274  -9.924  0.00  0.00    -0.000 A 
ATOM     24  C   UNL     1       6.398   5.720  -9.466  0.00  0.00    -0.004 A 
ENDBRANCH  18  19
ENDBRANCH  17  18
ENDBRANCH  16  17
ENDBRANCH  14  16
ENDBRANCH   1  14
TORSDOF 8
ENDMDL
MODEL 6
REMARK VINA RESULT:      -7.9      3.325      9.143
REMARK  Name = 
REMARK  8 active torsions:
REMARK  status: ('A' for Active; 'I' for Inactive)
REMARK    1  A    between atoms: C_2  and  C_3
REMARK    2  A    between atoms: C_2  and  N_11
REMARK    3  A    between atoms: C_3  and  C_4
REMARK    4  A    between atoms: C_4  and  C_5
REMARK    5  A    between atoms: N_11  and  C_12
REMARK    6  A    between atoms: C_12  and  C_13
REMARK    7  A    between atoms: C_13  and  C_15
REMARK    8  A    between atoms: C_20  and  C_21
REMARK                            x       y       z     vdW  Elec       q    Type
REMARK                         _______ _______ _______ _____ _____    ______ ____
ROOT
ATOM      1  C   UNL     1       2.665   5.925  -7.821  0.00  0.00    +0.126 C 
ENDROOT
BRANCH   1   2
ATOM      2  C   UNL     1       3.996   4.925  -7.847  0.00  0.00    +0.192 C 
ATOM      3  O   UNL     1       3.183   3.790  -8.476  0.00  0.00    -0.217 OA
BRANCH   2   4
ATOM      4  C   UNL     1       4.520   5.447  -9.300  0.00  0.00    +0.009 A 
ATOM      5  C   UNL     1       5.853   5.370  -9.536  0.00  0.00    +0.006 A 
ATOM      6  C   UNL     1       6.375   6.042 -10.628  0.00  0.00    +0.095 A 
ATOM      7  C   UNL     1       5.771   7.211 -11.007  0.00  0.00    +0.200 A 
ATOM      8  O   UNL     1       6.596   8.233 -11.482  0.00  0.00    -0.286 OA
ATOM      9  C   UNL     1       4.462   7.450 -10.669  0.00  0.00    +0.042 A 
ATOM     10  C   UNL     1       3.917   6.647  -9.672  0.00  0.00    +0.001 A 
BRANCH   6  11
ATOM     11  C   UNL     1       7.490   5.512 -11.384  0.00  0.00    +0.287 C 
ATOM     12  O   UNL     1       8.575   5.306 -10.764  0.00  0.00    -0.267 OA
ATOM     13  N   UNL     1       7.319   4.844 -12.615  0.00  0.00    -0.084 NA
ENDBRANCH   6  11
ENDBRANCH   2   4
ENDBRANCH   1   2
BRANCH   1  14
ATOM     14  N   UNL     1       1.754   5.208  -6.960  0.00  0.00    -0.216 NA
BRANCH  14  16
ATOM     15  C   UNL     1       0.208   5.575  -8.657  0.00  0.00    +0.019 C 
ATOM     16  C   UNL     1       0.481   6.129  -7.130  0.00  0.00    +0.073 C 
BRANCH  16  17
ATOM     17  C   UNL     1      -0.503   4.985  -6.468  0.00  0.00    +0.022 C 
BRANCH  17  18
ATOM     18  C   UNL     1      -1.825   5.711  -6.359  0.00  0.00    +0.028 C 
BRANCH  18  19
ATOM     19  C   UNL     1      -1.986   6.079  -4.917  0.00  0.00    -0.022 A 
ATOM     20  C   UNL     1      -1.955   7.442  -4.646  0.00  0.00    -0.004 A 
ATOM     21  C   UNL     1      -2.196   7.829  -3.358  0.00  0.00    -0.000 A 
ATOM     22  C   UNL     1      -2.726   6.953  -2.465  0.00  0.00    -0.000 A 
ATOM     23  C   UNL     1      -3.119   5.712  -2.861  0.00  0.00    -0.000 A 
ATOM     24  C   UNL     1      -2.900   5.346  -4.170  0.00  0.00    -0.004 A 
ENDBRANCH  18  19
ENDBRANCH  17  18
ENDBRANCH  16  17
ENDBRANCH  14  16
ENDBRANCH   1  14
TORSDOF 8
ENDMDL
MODEL 7
REMARK VINA RESULT:      -7.8      3.564      7.140
REMARK  Name = 
REMARK  8 active torsions:
REMARK  status: ('A' for Active; 'I' for Inactive)
REMARK    1  A    between atoms: C_2  and  C_3
REMARK    2  A    between atoms: C_2  and  N_11
REMARK    3  A    between atoms: C_3  and  C_4
REMARK    4  A    between atoms: C_4  and  C_5
REMARK    5  A    between atoms: N_11  and  C_12
REMARK    6  A    between atoms: C_12  and  C_13
REMARK    7  A    between atoms: C_13  and  C_15
REMARK    8  A    between atoms: C_20  and  C_21
REMARK                            x       y       z     vdW  Elec       q    Type
REMARK                         _______ _______ _______ _____ _____    ______ ____
ROOT
ATOM      1  C   UNL     1      -0.378   6.304  -0.897  0.00  0.00    +0.126 C 
ENDROOT
BRANCH   1   2
ATOM      2  C   UNL     1       0.845   5.203  -1.146  0.00  0.00    +0.192 C 
ATOM      3  O   UNL     1       0.157   4.658  -2.400  0.00  0.00    -0.217 OA
BRANCH   2   4
ATOM      4  C   UNL     1       1.767   6.230  -2.014  0.00  0.00    +0.009 A 
ATOM      5  C   UNL     1       2.443   5.708  -3.068  0.00  0.00    +0.006 A 
ATOM      6  C   UNL     1       3.438   6.467  -3.662  0.00  0.00    +0.095 A 
ATOM      7  C   UNL     1       4.148   7.324  -2.865  0.00  0.00    +0.200 A 
ATOM      8  O   UNL     1       5.507   7.480  -3.146  0.00  0.00    -0.286 OA
ATOM      9  C   UNL     1       3.606   7.780  -1.689  0.00  0.00    +0.042 A 
ATOM     10  C   UNL     1       2.503   7.087  -1.199  0.00  0.00    +0.001 A 
BRANCH   6  11
ATOM     11  C   UNL     1       3.694   6.403  -5.085  0.00  0.00    +0.287 C 
ATOM     12  O   UNL     1       3.519   7.460  -5.760  0.00  0.00    -0.267 OA
ATOM     13  N   UNL     1       4.495   5.397  -5.665  0.00  0.00    -0.084 NA
ENDBRANCH   6  11
ENDBRANCH   2   4
ENDBRANCH   1   2
BRANCH   1  14
ATOM     14  N   UNL     1      -1.547   5.573  -1.327  0.00  0.00    -0.216 NA
BRANCH  14  16
ATOM     15  C   UNL     1      -1.623   7.696  -0.383  0.00  0.00    +0.019 C 
ATOM     16  C   UNL     1      -2.590   6.760  -1.333  0.00  0.00    +0.073 C 
BRANCH  16  17
ATOM     17  C   UNL     1      -1.952   7.388  -2.716  0.00  0.00    +0.022 C 
BRANCH  17  18
ATOM     18  C   UNL     1      -2.788   6.731  -3.791  0.00  0.00    +0.028 C 
BRANCH  18  19
ATOM     19  C   UNL     1      -1.825   6.197  -4.806  0.00  0.00    -0.022 A 
ATOM     20  C   UNL     1      -2.406   5.650  -5.944  0.00  0.00    -0.004 A 
ATOM     21  C   UNL     1      -1.566   5.240  -6.940  0.00  0.00    -0.000 A 
ATOM     22  C   UNL     1      -0.261   5.619  -6.938  0.00  0.00    -0.000 A 
ATOM     23  C   UNL     1       0.204   6.494  -6.006  0.00  0.00    -0.000 A 
ATOM     24  C   UNL     1      -0.662   6.924  -5.026  0.00  0.00    -0.004 A 
ENDBRANCH  18  19
ENDBRANCH  17  18
ENDBRANCH  16  17
ENDBRANCH  14  16
ENDBRANCH   1  14
TORSDOF 8
ENDMDL
MODEL 8
REMARK VINA RESULT:      -7.7      2.416      4.650
REMARK  Name = 
REMARK  8 active torsions:
REMARK  status: ('A' for Active; 'I' for Inactive)
REMARK    1  A    between atoms: C_2  and  C_3
REMARK    2  A    between atoms: C_2  and  N_11
REMARK    3  A    between atoms: C_3  and  C_4
REMARK    4  A    between atoms: C_4  and  C_5
REMARK    5  A    between atoms: N_11  and  C_12
REMARK    6  A    between atoms: C_12  and  C_13
REMARK    7  A    between atoms: C_13  and  C_15
REMARK    8  A    between atoms: C_20  and  C_21
REMARK                            x       y       z     vdW  Elec       q    Type
REMARK                         _______ _______ _______ _____ _____    ______ ____
ROOT
ATOM      1  C   UNL     1       1.496   6.211  -6.621  0.00  0.00    +0.126 C 
ENDROOT
BRANCH   1   2
ATOM      2  C   UNL     1      -0.015   5.540  -6.818  0.00  0.00    +0.192 C 
ATOM      3  O   UNL     1       0.480   4.176  -6.328  0.00  0.00    -0.217 OA
BRANCH   2   4
ATOM      4  C   UNL     1      -0.537   5.961  -5.331  0.00  0.00    +0.009 A 
ATOM      5  C   UNL     1      -0.002   5.291  -4.279  0.00  0.00    +0.006 A 
ATOM      6  C   UNL     1      -0.601   5.416  -3.037  0.00  0.00    +0.095 A 
ATOM      7  C   UNL     1      -1.957   5.601  -2.998  0.00  0.00    +0.200 A 
ATOM      8  O   UNL     1      -2.655   4.989  -1.955  0.00  0.00    -0.286 OA
ATOM      9  C   UNL     1      -2.612   6.125  -4.084  0.00  0.00    +0.042 A 
ATOM     10  C   UNL     1      -1.919   6.128  -5.291  0.00  0.00    +0.001 A 
BRANCH   6  11
ATOM     11  C   UNL     1       0.176   5.406  -1.816  0.00  0.00    +0.287 C 
ATOM     12  O   UNL     1       0.558   4.283  -1.373  0.00  0.00    -0.267 OA
ATOM     13  N   UNL     1       0.861   6.546  -1.346  0.00  0.00    -0.084 NA
ENDBRANCH   6  11
ENDBRANCH   2   4
ENDBRANCH   1   2
BRANCH   1  14
ATOM     14  N   UNL     1       2.368   5.147  -7.058  0.00  0.00    -0.216 NA
BRANCH  14  16
ATOM     15  C   UNL     1       3.026   7.305  -6.495  0.00  0.00    +0.019 C 
ATOM     16  C   UNL     1       3.757   5.879  -6.878  0.00  0.00    +0.073 C 
BRANCH  16  17
ATOM     17  C   UNL     1       3.853   5.427  -5.296  0.00  0.00    +0.022 C 
BRANCH  17  18
ATOM     18  C   UNL     1       4.645   6.557  -4.679  0.00  0.00    +0.028 C 
BRANCH  18  19
ATOM     19  C   UNL     1       4.713   6.271  -3.211  0.00  0.00    -0.022 A 
ATOM     20  C   UNL     1       4.604   7.383  -2.385  0.00  0.00    -0.004 A 
ATOM     21  C   UNL     1       4.562   7.161  -1.038  0.00  0.00    -0.000 A 
ATOM     22  C   UNL     1       4.341   5.910  -0.555  0.00  0.00    -0.000 A 
ATOM     23  C   UNL     1       4.056   4.882  -1.399  0.00  0.00    -0.000 A 
ATOM     24  C   UNL     1       4.070   5.127  -2.753  0.00  0.00    -0.004 A 
ENDBRANCH  18  19
ENDBRANCH  17  18
ENDBRANCH  16  17
ENDBRANCH  14  16
ENDBRANCH   1  14
TORSDOF 8
ENDMDL
MODEL 9
REMARK VINA RESULT:      -7.5      4.520      7.293
REMARK  Name = 
REMARK  8 active torsions:
REMARK  status: ('A' for Active; 'I' for Inactive)
REMARK    1  A    between atoms: C_2  and  C_3
REMARK    2  A    between atoms: C_2  and  N_11
REMARK    3  A    between atoms: C_3  and  C_4
REMARK    4  A    between atoms: C_4  and  C_5
REMARK    5  A    between atoms: N_11  and  C_12
REMARK    6  A    between atoms: C_12  and  C_13
REMARK    7  A    between atoms: C_13  and  C_15
REMARK    8  A    between atoms: C_20  and  C_21
REMARK                            x       y       z     vdW  Elec       q    Type
REMARK                         _______ _______ _______ _____ _____    ______ ____
ROOT
ATOM      1  C   UNL     1       4.923   6.265 -12.194  0.00  0.00    +0.126 C 
ENDROOT
BRANCH   1   2
ATOM      2  C   UNL     1       4.488   5.882 -13.755  0.00  0.00    +0.192 C 
ATOM      3  O   UNL     1       4.595   4.383 -13.462  0.00  0.00    -0.217 OA
BRANCH   2   4
ATOM      4  C   UNL     1       2.886   5.897 -13.448  0.00  0.00    +0.009 A 
ATOM      5  C   UNL     1       2.505   6.231 -12.190  0.00  0.00    +0.006 A 
ATOM      6  C   UNL     1       1.195   5.997 -11.808  0.00  0.00    +0.095 A 
ATOM      7  C   UNL     1       0.552   4.921 -12.358  0.00  0.00    +0.200 A 
ATOM      8  O   UNL     1      -0.332   4.216 -11.538  0.00  0.00    -0.286 OA
ATOM      9  C   UNL     1       0.974   4.407 -13.559  0.00  0.00    +0.042 A 
ATOM     10  C   UNL     1       2.239   4.790 -13.993  0.00  0.00    +0.001 A 
BRANCH   6  11
ATOM     11  C   UNL     1       0.500   6.882 -10.897  0.00  0.00    +0.287 C 
ATOM     12  O   UNL     1       1.041   7.112  -9.776  0.00  0.00    -0.267 OA
ATOM     13  N   UNL     1      -0.485   7.794 -11.333  0.00  0.00    -0.084 NA
ENDBRANCH   6  11
ENDBRANCH   2   4
ENDBRANCH   1   2
BRANCH   1  14
ATOM     14  N   UNL     1       6.324   6.587 -12.333  0.00  0.00    -0.216 NA
BRANCH  14  16
ATOM     15  C   UNL     1       7.722   7.077 -10.541  0.00  0.00    +0.019 C 
ATOM     16  C   UNL     1       6.885   5.773 -11.100  0.00  0.00    +0.073 C 
BRANCH  16  17
ATOM     17  C   UNL     1       5.566   6.143 -10.184  0.00  0.00    +0.022 C 
BRANCH  17  18
ATOM     18  C   UNL     1       5.888   5.483  -8.863  0.00  0.00    +0.028 C 
BRANCH  18  19
ATOM     19  C   UNL     1       4.585   5.004  -8.303  0.00  0.00    -0.022 A 
ATOM     20  C   UNL     1       3.929   5.906  -7.473  0.00  0.00    -0.004 A 
ATOM     21  C   UNL     1       2.691   5.552  -7.018  0.00  0.00    -0.000 A 
ATOM     22  C   UNL     1       2.022   4.513  -7.584  0.00  0.00    -0.000 A 
ATOM     23  C   UNL     1       2.527   3.877  -8.675  0.00  0.00    -0.000 A 
ATOM     24  C   UNL     1       3.762   4.265  -9.143  0.00  0.00    -0.004 A 
ENDBRANCH  18  19
ENDBRANCH  17  18
ENDBRANCH  16  17
ENDBRANCH  14  16
ENDBRANCH   1  14
TORSDOF 8
ENDMDL
