MODEL 1
REMARK VINA RESULT:      -9.5      0.000      0.000
REMARK  Name = 
REMARK  6 active torsions:
REMARK  status: ('A' for Active; 'I' for Inactive)
REMARK    1  A    between atoms: O_2  and  C_3
REMARK    2  A    between atoms: C_5  and  C_6
REMARK    3  A    between atoms: C_13  and  O_14
REMARK    4  A    between atoms: O_14  and  C_15
REMARK    5  A    between atoms: C_20  and  C_21
REMARK    6  A    between atoms: C_42  and  O_43
REMARK                            x       y       z     vdW  Elec       q    Type
REMARK                         _______ _______ _______ _____ _____    ______ ____
ROOT
ATOM      1  C   UNL     1       2.997   6.380  -4.621  0.00  0.00    +0.055 C 
ATOM      2  C   UNL     1       3.574   4.804  -5.079  0.00  0.00    +0.113 C 
ATOM      3  C   UNL     1       3.872   5.164  -6.727  0.00  0.00    +0.086 C 
ATOM      4  C   UNL     1       3.419   6.538  -6.309  0.00  0.00    +0.212 C 
ATOM      5  O   UNL     1       2.658   5.456  -5.929  0.00  0.00    -0.448 OA
ATOM      6  C   UNL     1       2.309   5.043  -7.463  0.00  0.00    +0.144 C 
ATOM      7  C   UNL     1       1.465   6.243  -6.712  0.00  0.00    +0.004 A 
ATOM      8  C   UNL     1       0.224   6.378  -7.227  0.00  0.00    +0.038 A 
ATOM      9  C   UNL     1      -0.927   6.333  -6.441  0.00  0.00    +0.176 A 
ATOM     10  O   UNL     1      -2.243   5.917  -6.660  0.00  0.00    -0.435 OA
ATOM     11  C   UNL     1      -2.695   5.145  -5.575  0.00  0.00    +0.429 C 
ATOM     12  O   UNL     1      -1.755   5.336  -4.558  0.00  0.00    -0.435 OA
ATOM     13  C   UNL     1      -0.779   6.197  -5.065  0.00  0.00    +0.176 A 
ATOM     14  C   UNL     1       0.435   6.573  -4.584  0.00  0.00    +0.036 A 
ATOM     15  C   UNL     1       2.194   4.411  -5.484  0.00  0.00    +0.317 C 
ATOM     16  O   UNL     1       1.721   3.337  -5.794  0.00  0.00    -0.250 OA
ATOM     17  C   UNL     1       1.507   6.355  -5.293  0.00  0.00    -0.016 A 
ENDROOT
BRANCH   1  23
ATOM     18  C   UNL     1       3.580   7.120  -1.170  0.00  0.00    +0.180 A 
ATOM     19  C   UNL     1       2.346   7.059  -0.532  0.00  0.00    +0.263 A 
ATOM     20  O   UNL     1       2.008   8.235   0.159  0.00  0.00    -0.280 OA
ATOM     21  C   UNL     1       1.334   6.417  -1.241  0.00  0.00    +0.180 A 
ATOM     22  C   UNL     1       1.435   6.094  -2.592  0.00  0.00    +0.036 A 
ATOM     23  C   UNL     1       2.626   6.037  -3.136  0.00  0.00    -0.012 A 
ATOM     24  C   UNL     1       3.712   6.609  -2.455  0.00  0.00    +0.036 A 
BRANCH  21  25
ATOM     25  O   UNL     1       0.085   6.526  -0.646  0.00  0.00    -0.468 OA
ATOM     26  C   UNL     1      -1.092   5.944  -1.094  0.00  0.00    +0.253 C 
ENDBRANCH  21  25
BRANCH  18  28
ATOM     27  C   UNL     1       5.194   7.405   0.634  0.00  0.00    +0.253 C 
ATOM     28  O   UNL     1       4.603   7.859  -0.562  0.00  0.00    -0.468 OA
ENDBRANCH  18  28
ENDBRANCH   1  23
BRANCH   6  29
ATOM     29  O   UNL     1       2.734   6.041  -8.508  0.00  0.00    -0.326 OA
BRANCH  29  30
ATOM     30  C   UNL     1       2.777   5.211  -9.779  0.00  0.00    +0.270 C 
ATOM     31  C   UNL     1       1.987   6.503 -10.620  0.00  0.00    +0.240 C 
ATOM     32  O   UNL     1       0.668   5.814 -10.492  0.00  0.00    -0.215 OA
ATOM     33  C   UNL     1       2.227   5.778 -12.152  0.00  0.00    +0.217 C 
ATOM     34  O   UNL     1       1.593   6.966 -12.823  0.00  0.00    -0.218 OA
ATOM     35  C   UNL     1       3.767   6.516 -12.217  0.00  0.00    +0.181 C 
ATOM     36  C   UNL     1       4.401   5.131 -11.425  0.00  0.00    +0.177 C 
ATOM     37  C   UNL     1       5.919   5.740 -11.547  0.00  0.00    +0.177 C 
ATOM     38  O   UNL     1       6.198   5.506 -12.909  0.00  0.00    -0.324 OA
ATOM     39  C   UNL     1       5.460   6.735 -13.466  0.00  0.00    +0.266 C 
ATOM     40  O   UNL     1       4.147   5.929 -13.543  0.00  0.00    -0.324 OA
ATOM     41  O   UNL     1       4.151   5.802 -10.098  0.00  0.00    -0.326 OA
BRANCH  39  42
ATOM     42  C   UNL     1       5.863   6.353 -15.013  0.00  0.00    +0.063 A 
ATOM     43  S   UNL     1       4.997   7.232 -16.206  0.00  0.00    -0.086 S 
ATOM     44  C   UNL     1       6.306   7.786 -17.171  0.00  0.00    +0.035 A 
ATOM     45  C   UNL     1       7.361   7.409 -16.414  0.00  0.00    +0.007 A 
ATOM     46  C   UNL     1       7.142   6.798 -15.264  0.00  0.00    +0.008 A 
ENDBRANCH  39  42
ENDBRANCH  29  30
ENDBRANCH   6  29
TORSDOF 6
ENDMDL
MODEL 2
REMARK VINA RESULT:      -9.4      1.353      1.514
REMARK  Name = 
REMARK  6 active torsions:
REMARK  status: ('A' for Active; 'I' for Inactive)
REMARK    1  A    between atoms: O_2  and  C_3
REMARK    2  A    between atoms: C_5  and  C_6
REMARK    3  A    between atoms: C_13  and  O_14
REMARK    4  A    between atoms: O_14  and  C_15
REMARK    5  A    between atoms: C_20  and  C_21
REMARK    6  A    between atoms: C_42  and  O_43
REMARK                            x       y       z     vdW  Elec       q    Type
REMARK                         _______ _______ _______ _____ _____    ______ ____
ROOT
ATOM      1  C   UNL     1       3.647   7.267  -3.701  0.00  0.00    +0.055 C 
ATOM      2  C   UNL     1       4.414   5.740  -4.028  0.00  0.00    +0.113 C 
ATOM      3  C   UNL     1       4.512   5.919  -5.729  0.00  0.00    +0.086 C 
ATOM      4  C   UNL     1       3.895   7.259  -5.430  0.00  0.00    +0.212 C 
ATOM      5  O   UNL     1       3.340   6.142  -4.849  0.00  0.00    -0.448 OA
ATOM      6  C   UNL     1       2.929   5.487  -6.280  0.00  0.00    +0.144 C 
ATOM      7  C   UNL     1       1.980   6.646  -5.592  0.00  0.00    +0.004 A 
ATOM      8  C   UNL     1       0.694   6.539  -5.988  0.00  0.00    +0.038 A 
ATOM      9  C   UNL     1      -0.366   6.438  -5.087  0.00  0.00    +0.176 A 
ATOM     10  O   UNL     1      -1.618   5.819  -5.118  0.00  0.00    -0.435 OA
ATOM     11  C   UNL     1      -1.854   5.141  -3.909  0.00  0.00    +0.429 C 
ATOM     12  O   UNL     1      -0.871   5.592  -3.025  0.00  0.00    -0.435 OA
ATOM     13  C   UNL     1      -0.083   6.507  -3.728  0.00  0.00    +0.176 A 
ATOM     14  C   UNL     1       1.098   7.107  -3.422  0.00  0.00    +0.036 A 
ATOM     15  C   UNL     1       3.079   5.110  -4.239  0.00  0.00    +0.317 C 
ATOM     16  O   UNL     1       2.748   3.949  -4.369  0.00  0.00    -0.250 OA
ATOM     17  C   UNL     1       2.126   6.949  -4.208  0.00  0.00    -0.016 A 
ENDROOT
BRANCH   1  23
ATOM     18  C   UNL     1       3.550   8.865  -0.502  0.00  0.00    +0.180 A 
ATOM     19  C   UNL     1       2.531   8.253   0.222  0.00  0.00    +0.263 A 
ATOM     20  O   UNL     1       1.561   9.150   0.700  0.00  0.00    -0.280 OA
ATOM     21  C   UNL     1       2.086   7.033  -0.280  0.00  0.00    +0.180 A 
ATOM     22  C   UNL     1       2.415   6.564  -1.549  0.00  0.00    +0.036 A 
ATOM     23  C   UNL     1       3.459   7.075  -2.156  0.00  0.00    -0.012 A 
ATOM     24  C   UNL     1       4.006   8.275  -1.673  0.00  0.00    +0.036 A 
BRANCH  21  25
ATOM     25  O   UNL     1       0.962   6.543   0.370  0.00  0.00    -0.468 OA
ATOM     26  C   UNL     1      -0.358   6.737  -0.012  0.00  0.00    +0.253 C 
ENDBRANCH  21  25
BRANCH  18  28
ATOM     27  C   UNL     1       3.527  11.278  -0.849  0.00  0.00    +0.253 C 
ATOM     28  O   UNL     1       3.954  10.149  -0.118  0.00  0.00    -0.468 OA
ENDBRANCH  18  28
ENDBRANCH   1  23
BRANCH   6  29
ATOM     29  O   UNL     1       3.108   6.388  -7.473  0.00  0.00    -0.326 OA
BRANCH  29  30
ATOM     30  C   UNL     1       3.086   5.419  -8.642  0.00  0.00    +0.270 C 
ATOM     31  C   UNL     1       2.204   6.591  -9.565  0.00  0.00    +0.240 C 
ATOM     32  O   UNL     1       0.917   5.894  -9.265  0.00  0.00    -0.215 OA
ATOM     33  C   UNL     1       2.358   5.700 -11.019  0.00  0.00    +0.217 C 
ATOM     34  O   UNL     1       1.646   6.791 -11.772  0.00  0.00    -0.218 OA
ATOM     35  C   UNL     1       3.869   6.457 -11.277  0.00  0.00    +0.181 C 
ATOM     36  C   UNL     1       4.594   5.184 -10.381  0.00  0.00    +0.177 C 
ATOM     37  C   UNL     1       6.083   5.805 -10.680  0.00  0.00    +0.177 C 
ATOM     38  O   UNL     1       6.273   5.423 -12.023  0.00  0.00    -0.324 OA
ATOM     39  C   UNL     1       5.465   6.565 -12.661  0.00  0.00    +0.266 C 
ATOM     40  O   UNL     1       4.173   5.729 -12.552  0.00  0.00    -0.324 OA
ATOM     41  O   UNL     1       4.418   5.997  -9.124  0.00  0.00    -0.326 OA
BRANCH  39  42
ATOM     42  C   UNL     1       5.770   6.016 -14.179  0.00  0.00    +0.063 A 
ATOM     43  S   UNL     1       4.846   6.783 -15.406  0.00  0.00    -0.086 S 
ATOM     44  C   UNL     1       6.101   7.208 -16.497  0.00  0.00    +0.035 A 
ATOM     45  C   UNL     1       7.195   6.893 -15.767  0.00  0.00    +0.007 A 
ATOM     46  C   UNL     1       7.037   6.409 -14.549  0.00  0.00    +0.008 A 
ENDBRANCH  39  42
ENDBRANCH  29  30
ENDBRANCH   6  29
TORSDOF 6
ENDMDL
MODEL 3
REMARK VINA RESULT:      -8.9      3.508     10.825
REMARK  Name = 
REMARK  6 active torsions:
REMARK  status: ('A' for Active; 'I' for Inactive)
REMARK    1  A    between atoms: O_2  and  C_3
REMARK    2  A    between atoms: C_5  and  C_6
REMARK    3  A    between atoms: C_13  and  O_14
REMARK    4  A    between atoms: O_14  and  C_15
REMARK    5  A    between atoms: C_20  and  C_21
REMARK    6  A    between atoms: C_42  and  O_43
REMARK                            x       y       z     vdW  Elec       q    Type
REMARK                         _______ _______ _______ _____ _____    ______ ____
ROOT
ATOM      1  C   UNL     1       0.561   6.574 -10.388  0.00  0.00    +0.055 C 
ATOM      2  C   UNL     1       0.161   5.065  -9.620  0.00  0.00    +0.113 C 
ATOM      3  C   UNL     1       0.525   5.546  -8.016  0.00  0.00    +0.086 C 
ATOM      4  C   UNL     1       0.821   6.863  -8.685  0.00  0.00    +0.212 C 
ATOM      5  O   UNL     1       1.350   5.719  -9.236  0.00  0.00    -0.448 OA
ATOM      6  C   UNL     1       2.247   5.387  -7.920  0.00  0.00    +0.144 C 
ATOM      7  C   UNL     1       2.772   6.487  -9.029  0.00  0.00    +0.004 A 
ATOM      8  C   UNL     1       4.118   6.586  -9.035  0.00  0.00    +0.038 A 
ATOM      9  C   UNL     1       4.881   6.427 -10.192  0.00  0.00    +0.176 A 
ATOM     10  O   UNL     1       6.169   5.954 -10.456  0.00  0.00    -0.435 OA
ATOM     11  C   UNL     1       6.151   5.090 -11.565  0.00  0.00    +0.429 C 
ATOM     12  O   UNL     1       4.900   5.267 -12.161  0.00  0.00    -0.435 OA
ATOM     13  C   UNL     1       4.215   6.212 -11.394  0.00  0.00    +0.176 A 
ATOM     14  C   UNL     1       2.919   6.622 -11.408  0.00  0.00    +0.036 A 
ATOM     15  C   UNL     1       1.581   4.623  -9.738  0.00  0.00    +0.317 C 
ATOM     16  O   UNL     1       2.107   3.547  -9.545  0.00  0.00    -0.250 OA
ATOM     17  C   UNL     1       2.194   6.510 -10.330  0.00  0.00    -0.016 A 
ENDROOT
BRANCH   1  23
ATOM     18  C   UNL     1       0.737   7.495 -13.839  0.00  0.00    +0.180 A 
ATOM     19  C   UNL     1       1.197   6.379 -14.530  0.00  0.00    +0.263 A 
ATOM     20  O   UNL     1       2.353   6.623 -15.292  0.00  0.00    -0.280 OA
ATOM     21  C   UNL     1       1.128   5.173 -13.839  0.00  0.00    +0.180 A 
ATOM     22  C   UNL     1       0.880   5.091 -12.471  0.00  0.00    +0.036 A 
ATOM     23  C   UNL     1       0.328   6.116 -11.870  0.00  0.00    -0.012 A 
ATOM     24  C   UNL     1       0.305   7.357 -12.527  0.00  0.00    +0.036 A 
BRANCH  21  25
ATOM     25  O   UNL     1       1.749   4.121 -14.496  0.00  0.00    -0.468 OA
ATOM     26  C   UNL     1       1.523   2.768 -14.279  0.00  0.00    +0.253 C 
ENDBRANCH  21  25
BRANCH  18  28
ATOM     27  C   UNL     1       0.466   8.972 -15.760  0.00  0.00    +0.253 C 
ATOM     28  O   UNL     1       0.896   8.753 -14.434  0.00  0.00    -0.468 OA
ENDBRANCH  18  28
ENDBRANCH   1  23
BRANCH   6  29
ATOM     29  O   UNL     1       2.279   6.472  -6.877  0.00  0.00    -0.326 OA
BRANCH  29  30
ATOM     30  C   UNL     1       2.541   5.705  -5.592  0.00  0.00    +0.270 C 
ATOM     31  C   UNL     1       3.018   7.187  -4.832  0.00  0.00    +0.240 C 
ATOM     32  O   UNL     1       4.460   6.862  -5.045  0.00  0.00    -0.215 OA
ATOM     33  C   UNL     1       3.078   6.480  -3.275  0.00  0.00    +0.217 C 
ATOM     34  O   UNL     1       3.421   7.815  -2.672  0.00  0.00    -0.218 OA
ATOM     35  C   UNL     1       1.406   6.792  -3.110  0.00  0.00    +0.181 C 
ATOM     36  C   UNL     1       1.107   5.262  -3.830  0.00  0.00    +0.177 C 
ATOM     37  C   UNL     1      -0.506   5.458  -3.607  0.00  0.00    +0.177 C 
ATOM     38  O   UNL     1      -0.623   5.208  -2.225  0.00  0.00    -0.324 OA
ATOM     39  C   UNL     1      -0.199   6.606  -1.744  0.00  0.00    +0.266 C 
ATOM     40  O   UNL     1       1.282   6.174  -1.750  0.00  0.00    -0.324 OA
ATOM     41  O   UNL     1       1.084   5.928  -5.183  0.00  0.00    -0.326 OA
BRANCH  39  42
ATOM     42  C   UNL     1      -0.383   6.187  -0.166  0.00  0.00    +0.063 A 
ATOM     43  S   UNL     1       0.406   7.236   0.940  0.00  0.00    -0.086 S 
ATOM     44  C   UNL     1      -0.892   7.556   2.019  0.00  0.00    +0.035 A 
ATOM     45  C   UNL     1      -1.921   6.975   1.362  0.00  0.00    +0.007 A 
ATOM     46  C   UNL     1      -1.695   6.392   0.199  0.00  0.00    +0.008 A 
ENDBRANCH  39  42
ENDBRANCH  29  30
ENDBRANCH   6  29
TORSDOF 6
ENDMDL
MODEL 4
REMARK VINA RESULT:      -8.9      3.253     10.974
REMARK  Name = 
REMARK  6 active torsions:
REMARK  status: ('A' for Active; 'I' for Inactive)
REMARK    1  A    between atoms: O_2  and  C_3
REMARK    2  A    between atoms: C_5  and  C_6
REMARK    3  A    between atoms: C_13  and  O_14
REMARK    4  A    between atoms: O_14  and  C_15
REMARK    5  A    between atoms: C_20  and  C_21
REMARK    6  A    between atoms: C_42  and  O_43
REMARK                            x       y       z     vdW  Elec       q    Type
REMARK                         _______ _______ _______ _____ _____    ______ ____
ROOT
ATOM      1  C   UNL     1       1.946   6.290 -10.630  0.00  0.00    +0.055 C 
ATOM      2  C   UNL     1       1.453   4.771  -9.940  0.00  0.00    +0.113 C 
ATOM      3  C   UNL     1       1.384   5.296  -8.311  0.00  0.00    +0.086 C 
ATOM      4  C   UNL     1       1.762   6.618  -8.924  0.00  0.00    +0.212 C 
ATOM      5  O   UNL     1       2.473   5.501  -9.296  0.00  0.00    -0.448 OA
ATOM      6  C   UNL     1       3.035   5.242  -7.792  0.00  0.00    +0.144 C 
ATOM      7  C   UNL     1       3.756   6.356  -8.769  0.00  0.00    +0.004 A 
ATOM      8  C   UNL     1       5.054   6.536  -8.449  0.00  0.00    +0.038 A 
ATOM      9  C   UNL     1       6.086   6.406  -9.379  0.00  0.00    +0.176 A 
ATOM     10  O   UNL     1       7.423   6.008  -9.306  0.00  0.00    -0.435 OA
ATOM     11  C   UNL     1       7.726   5.129 -10.361  0.00  0.00    +0.429 C 
ATOM     12  O   UNL     1       6.652   5.221 -11.250  0.00  0.00    -0.435 OA
ATOM     13  C   UNL     1       5.749   6.134 -10.700  0.00  0.00    +0.176 A 
ATOM     14  C   UNL     1       4.476   6.466 -11.043  0.00  0.00    +0.036 A 
ATOM     15  C   UNL     1       2.879   4.414  -9.694  0.00  0.00    +0.317 C 
ATOM     16  O   UNL     1       3.400   3.373  -9.348  0.00  0.00    -0.250 OA
ATOM     17  C   UNL     1       3.515   6.326 -10.172  0.00  0.00    -0.016 A 
ENDROOT
BRANCH   1  23
ATOM     18  C   UNL     1       1.000   6.788 -14.043  0.00  0.00    +0.180 A 
ATOM     19  C   UNL     1       2.140   6.578 -14.811  0.00  0.00    +0.263 A 
ATOM     20  O   UNL     1       2.471   7.663 -15.640  0.00  0.00    -0.280 OA
ATOM     21  C   UNL     1       3.185   5.919 -14.168  0.00  0.00    +0.180 A 
ATOM     22  C   UNL     1       3.227   5.717 -12.790  0.00  0.00    +0.036 A 
ATOM     23  C   UNL     1       2.110   5.799 -12.110  0.00  0.00    -0.012 A 
ATOM     24  C   UNL     1       0.990   6.397 -12.710  0.00  0.00    +0.036 A 
BRANCH  21  25
ATOM     25  O   UNL     1       4.357   5.881 -14.910  0.00  0.00    -0.468 OA
ATOM     26  C   UNL     1       5.588   6.398 -14.530  0.00  0.00    +0.253 C 
ENDBRANCH  21  25
BRANCH  18  28
ATOM     27  C   UNL     1      -0.583   7.211 -15.848  0.00  0.00    +0.253 C 
ATOM     28  O   UNL     1      -0.036   7.553 -14.594  0.00  0.00    -0.468 OA
ENDBRANCH  18  28
ENDBRANCH   1  23
BRANCH   6  29
ATOM     29  O   UNL     1       2.751   6.341  -6.803  0.00  0.00    -0.326 OA
BRANCH  29  30
ATOM     30  C   UNL     1       2.988   5.668  -5.462  0.00  0.00    +0.270 C 
ATOM     31  C   UNL     1       3.294   7.223  -4.763  0.00  0.00    +0.240 C 
ATOM     32  O   UNL     1       4.768   7.007  -4.868  0.00  0.00    -0.215 OA
ATOM     33  C   UNL     1       3.309   6.606  -3.166  0.00  0.00    +0.217 C 
ATOM     34  O   UNL     1       3.503   7.995  -2.622  0.00  0.00    -0.218 OA
ATOM     35  C   UNL     1       1.610   6.787  -3.122  0.00  0.00    +0.181 C 
ATOM     36  C   UNL     1       1.482   5.201  -3.768  0.00  0.00    +0.177 C 
ATOM     37  C   UNL     1      -0.153   5.274  -3.656  0.00  0.00    +0.177 C 
ATOM     38  O   UNL     1      -0.340   5.088  -2.271  0.00  0.00    -0.324 OA
ATOM     39  C   UNL     1      -0.061   6.540  -1.847  0.00  0.00    +0.266 C 
ATOM     40  O   UNL     1       1.447   6.232  -1.738  0.00  0.00    -0.324 OA
ATOM     41  O   UNL     1       1.494   5.790  -5.157  0.00  0.00    -0.326 OA
BRANCH  39  42
ATOM     42  C   UNL     1      -0.314   6.191  -0.262  0.00  0.00    +0.063 A 
ATOM     43  S   UNL     1       0.396   7.310   0.830  0.00  0.00    -0.086 S 
ATOM     44  C   UNL     1      -0.961   7.649   1.827  0.00  0.00    +0.035 A 
ATOM     45  C   UNL     1      -1.943   7.012   1.150  0.00  0.00    +0.007 A 
ATOM     46  C   UNL     1      -1.647   6.381   0.029  0.00  0.00    +0.008 A 
ENDBRANCH  39  42
ENDBRANCH  29  30
ENDBRANCH   6  29
TORSDOF 6
ENDMDL
MODEL 5
REMARK VINA RESULT:      -8.6      3.425     10.544
REMARK  Name = 
REMARK  6 active torsions:
REMARK  status: ('A' for Active; 'I' for Inactive)
REMARK    1  A    between atoms: O_2  and  C_3
REMARK    2  A    between atoms: C_5  and  C_6
REMARK    3  A    between atoms: C_13  and  O_14
REMARK    4  A    between atoms: O_14  and  C_15
REMARK    5  A    between atoms: C_20  and  C_21
REMARK    6  A    between atoms: C_42  and  O_43
REMARK                            x       y       z     vdW  Elec       q    Type
REMARK                         _______ _______ _______ _____ _____    ______ ____
ROOT
ATOM      1  C   UNL     1       0.531   6.590 -10.139  0.00  0.00    +0.055 C 
ATOM      2  C   UNL     1       0.163   5.060  -9.399  0.00  0.00    +0.113 C 
ATOM      3  C   UNL     1       0.606   5.492  -7.801  0.00  0.00    +0.086 C 
ATOM      4  C   UNL     1       0.873   6.828  -8.443  0.00  0.00    +0.212 C 
ATOM      5  O   UNL     1       1.371   5.700  -9.053  0.00  0.00    -0.448 OA
ATOM      6  C   UNL     1       2.329   5.326  -7.793  0.00  0.00    +0.144 C 
ATOM      7  C   UNL     1       2.804   6.459  -8.892  0.00  0.00    +0.004 A 
ATOM      8  C   UNL     1       4.149   6.555  -8.960  0.00  0.00    +0.038 A 
ATOM      9  C   UNL     1       4.854   6.429 -10.157  0.00  0.00    +0.176 A 
ATOM     10  O   UNL     1       6.127   5.962 -10.497  0.00  0.00    -0.435 OA
ATOM     11  C   UNL     1       6.052   5.132 -11.629  0.00  0.00    +0.429 C 
ATOM     12  O   UNL     1       4.775   5.329 -12.159  0.00  0.00    -0.435 OA
ATOM     13  C   UNL     1       4.131   6.252 -11.331  0.00  0.00    +0.176 A 
ATOM     14  C   UNL     1       2.837   6.665 -11.270  0.00  0.00    +0.036 A 
ATOM     15  C   UNL     1       1.574   4.619  -9.598  0.00  0.00    +0.317 C 
ATOM     16  O   UNL     1       2.105   3.536  -9.463  0.00  0.00    -0.250 OA
ATOM     17  C   UNL     1       2.164   6.522 -10.163  0.00  0.00    -0.016 A 
ENDROOT
BRANCH   1  23
ATOM     18  C   UNL     1       0.619   7.586 -13.574  0.00  0.00    +0.180 A 
ATOM     19  C   UNL     1       1.007   6.469 -14.306  0.00  0.00    +0.263 A 
ATOM     20  O   UNL     1       2.143   6.684 -15.105  0.00  0.00    -0.280 OA
ATOM     21  C   UNL     1       0.912   5.250 -13.640  0.00  0.00    +0.180 A 
ATOM     22  C   UNL     1       0.712   5.146 -12.265  0.00  0.00    +0.036 A 
ATOM     23  C   UNL     1       0.225   6.178 -11.621  0.00  0.00    -0.012 A 
ATOM     24  C   UNL     1       0.230   7.434 -12.249  0.00  0.00    +0.036 A 
BRANCH  21  25
ATOM     25  O   UNL     1       1.465   4.189 -14.342  0.00  0.00    -0.468 OA
ATOM     26  C   UNL     1       1.030   2.871 -14.318  0.00  0.00    +0.253 C 
ENDBRANCH  21  25
BRANCH  18  28
ATOM     27  C   UNL     1       0.535   9.059 -15.514  0.00  0.00    +0.253 C 
ATOM     28  O   UNL     1       0.808   8.850 -14.146  0.00  0.00    -0.468 OA
ENDBRANCH  18  28
ENDBRANCH   1  23
BRANCH   6  29
ATOM     29  O   UNL     1       2.416   6.380  -6.720  0.00  0.00    -0.326 OA
BRANCH  29  30
ATOM     30  C   UNL     1       3.035   5.630  -5.552  0.00  0.00    +0.270 C 
ATOM     31  C   UNL     1       4.146   6.941  -5.331  0.00  0.00    +0.240 C 
ATOM     32  O   UNL     1       5.209   6.196  -6.070  0.00  0.00    -0.215 OA
ATOM     33  C   UNL     1       4.729   6.320  -3.846  0.00  0.00    +0.217 C 
ATOM     34  O   UNL     1       5.618   7.522  -3.683  0.00  0.00    -0.218 OA
ATOM     35  C   UNL     1       3.443   7.117  -3.052  0.00  0.00    +0.181 C 
ATOM     36  C   UNL     1       2.491   5.711  -3.304  0.00  0.00    +0.177 C 
ATOM     37  C   UNL     1       1.253   6.382  -2.463  0.00  0.00    +0.177 C 
ATOM     38  O   UNL     1       1.716   6.242  -1.139  0.00  0.00    -0.324 OA
ATOM     39  C   UNL     1       2.635   7.474  -1.129  0.00  0.00    +0.266 C 
ATOM     40  O   UNL     1       3.800   6.626  -1.681  0.00  0.00    -0.324 OA
ATOM     41  O   UNL     1       2.021   6.290  -4.615  0.00  0.00    -0.326 OA
BRANCH  39  42
ATOM     42  C   UNL     1       3.087   7.202   0.427  0.00  0.00    +0.063 A 
ATOM     43  S   UNL     1       4.785   7.202   0.680  0.00  0.00    -0.086 S 
ATOM     44  C   UNL     1       4.886   8.292   2.002  0.00  0.00    +0.035 A 
ATOM     45  C   UNL     1       3.612   8.740   2.064  0.00  0.00    +0.007 A 
ATOM     46  C   UNL     1       2.729   8.290   1.192  0.00  0.00    +0.008 A 
ENDBRANCH  39  42
ENDBRANCH  29  30
ENDBRANCH   6  29
TORSDOF 6
ENDMDL
MODEL 6
REMARK VINA RESULT:      -8.4      1.967      3.329
REMARK  Name = 
REMARK  6 active torsions:
REMARK  status: ('A' for Active; 'I' for Inactive)
REMARK    1  A    between atoms: O_2  and  C_3
REMARK    2  A    between atoms: C_5  and  C_6
REMARK    3  A    between atoms: C_13  and  O_14
REMARK    4  A    between atoms: O_14  and  C_15
REMARK    5  A    between atoms: C_20  and  C_21
REMARK    6  A    between atoms: C_42  and  O_43
REMARK                            x       y       z     vdW  Elec       q    Type
REMARK                         _______ _______ _______ _____ _____    ______ ____
ROOT
ATOM      1  C   UNL     1       3.683   7.346  -1.788  0.00  0.00    +0.055 C 
ATOM      2  C   UNL     1       4.517   5.823  -1.900  0.00  0.00    +0.113 C 
ATOM      3  C   UNL     1       4.720   5.823  -3.601  0.00  0.00    +0.086 C 
ATOM      4  C   UNL     1       4.042   7.163  -3.488  0.00  0.00    +0.212 C 
ATOM      5  O   UNL     1       3.487   6.094  -2.824  0.00  0.00    -0.448 OA
ATOM      6  C   UNL     1       3.190   5.274  -4.197  0.00  0.00    +0.144 C 
ATOM      7  C   UNL     1       2.163   6.463  -3.699  0.00  0.00    +0.004 A 
ATOM      8  C   UNL     1       0.909   6.265  -4.159  0.00  0.00    +0.038 A 
ATOM      9  C   UNL     1      -0.204   6.220  -3.319  0.00  0.00    +0.176 A 
ATOM     10  O   UNL     1      -1.431   5.553  -3.359  0.00  0.00    -0.435 OA
ATOM     11  C   UNL     1      -1.724   5.000  -2.100  0.00  0.00    +0.429 C 
ATOM     12  O   UNL     1      -0.815   5.580  -1.212  0.00  0.00    -0.435 OA
ATOM     13  C   UNL     1      -0.012   6.444  -1.960  0.00  0.00    +0.176 A 
ATOM     14  C   UNL     1       1.127   7.118  -1.650  0.00  0.00    +0.036 A 
ATOM     15  C   UNL     1       3.219   5.123  -2.122  0.00  0.00    +0.317 C 
ATOM     16  O   UNL     1       2.934   3.943  -2.146  0.00  0.00    -0.250 OA
ATOM     17  C   UNL     1       2.208   6.917  -2.350  0.00  0.00    -0.016 A 
ENDROOT
BRANCH   1  23
ATOM     18  C   UNL     1       4.911   8.163   1.470  0.00  0.00    +0.180 A 
ATOM     19  C   UNL     1       3.823   8.619   2.207  0.00  0.00    +0.263 A 
ATOM     20  O   UNL     1       4.009   9.900   2.754  0.00  0.00    -0.280 OA
ATOM     21  C   UNL     1       2.570   8.323   1.676  0.00  0.00    +0.180 A 
ATOM     22  C   UNL     1       2.384   7.852   0.378  0.00  0.00    +0.036 A 
ATOM     23  C   UNL     1       3.401   7.312  -0.246  0.00  0.00    -0.012 A 
ATOM     24  C   UNL     1       4.695   7.514   0.262  0.00  0.00    +0.036 A 
BRANCH  21  25
ATOM     25  O   UNL     1       1.524   8.938   2.347  0.00  0.00    -0.468 OA
ATOM     26  C   UNL     1       0.645   9.874   1.819  0.00  0.00    +0.253 C 
ENDBRANCH  21  25
BRANCH  18  28
ATOM     27  C   UNL     1       6.805   7.883   2.979  0.00  0.00    +0.253 C 
ATOM     28  O   UNL     1       6.195   8.535   1.888  0.00  0.00    -0.468 OA
ENDBRANCH  18  28
ENDBRANCH   1  23
BRANCH   6  29
ATOM     29  O   UNL     1       3.418   6.050  -5.468  0.00  0.00    -0.326 OA
BRANCH  29  30
ATOM     30  C   UNL     1       3.586   4.958  -6.511  0.00  0.00    +0.270 C 
ATOM     31  C   UNL     1       2.426   5.769  -7.511  0.00  0.00    +0.240 C 
ATOM     32  O   UNL     1       1.348   4.842  -7.054  0.00  0.00    -0.215 OA
ATOM     33  C   UNL     1       2.739   4.756  -8.856  0.00  0.00    +0.217 C 
ATOM     34  O   UNL     1       1.769   5.550  -9.689  0.00  0.00    -0.218 OA
ATOM     35  C   UNL     1       4.022   5.797  -9.292  0.00  0.00    +0.181 C 
ATOM     36  C   UNL     1       5.053   4.850  -8.298  0.00  0.00    +0.177 C 
ATOM     37  C   UNL     1       6.345   5.750  -8.757  0.00  0.00    +0.177 C 
ATOM     38  O   UNL     1       6.578   5.251 -10.055  0.00  0.00    -0.324 OA
ATOM     39  C   UNL     1       5.506   6.086 -10.773  0.00  0.00    +0.266 C 
ATOM     40  O   UNL     1       4.448   5.000 -10.488  0.00  0.00    -0.324 OA
ATOM     41  O   UNL     1       4.731   5.757  -7.137  0.00  0.00    -0.326 OA
BRANCH  39  42
ATOM     42  C   UNL     1       5.883   5.430 -12.231  0.00  0.00    +0.063 A 
ATOM     43  S   UNL     1       5.499   6.427 -13.575  0.00  0.00    -0.086 S 
ATOM     44  C   UNL     1       7.000   6.389 -14.408  0.00  0.00    +0.035 A 
ATOM     45  C   UNL     1       7.778   5.750 -13.507  0.00  0.00    +0.007 A 
ATOM     46  C   UNL     1       7.254   5.376 -12.354  0.00  0.00    +0.008 A 
ENDBRANCH  39  42
ENDBRANCH  29  30
ENDBRANCH   6  29
TORSDOF 6
ENDMDL
MODEL 7
REMARK VINA RESULT:      -8.2      2.242      2.803
REMARK  Name = 
REMARK  6 active torsions:
REMARK  status: ('A' for Active; 'I' for Inactive)
REMARK    1  A    between atoms: O_2  and  C_3
REMARK    2  A    between atoms: C_5  and  C_6
REMARK    3  A    between atoms: C_13  and  O_14
REMARK    4  A    between atoms: O_14  and  C_15
REMARK    5  A    between atoms: C_20  and  C_21
REMARK    6  A    between atoms: C_42  and  O_43
REMARK                            x       y       z     vdW  Elec       q    Type
REMARK                         _______ _______ _______ _____ _____    ______ ____
ROOT
ATOM      1  C   UNL     1       3.971   6.668  -4.871  0.00  0.00    +0.055 C 
ATOM      2  C   UNL     1       4.333   5.104  -5.541  0.00  0.00    +0.113 C 
ATOM      3  C   UNL     1       3.897   5.465  -7.158  0.00  0.00    +0.086 C 
ATOM      4  C   UNL     1       3.635   6.830  -6.578  0.00  0.00    +0.212 C 
ATOM      5  O   UNL     1       3.129   5.733  -5.919  0.00  0.00    -0.448 OA
ATOM      6  C   UNL     1       2.173   5.308  -7.164  0.00  0.00    +0.144 C 
ATOM      7  C   UNL     1       1.701   6.491  -6.118  0.00  0.00    +0.004 A 
ATOM      8  C   UNL     1       0.357   6.598  -6.059  0.00  0.00    +0.038 A 
ATOM      9  C   UNL     1      -0.353   6.529  -4.860  0.00  0.00    +0.176 A 
ATOM     10  O   UNL     1      -1.629   6.084  -4.504  0.00  0.00    -0.435 OA
ATOM     11  C   UNL     1      -1.562   5.307  -3.335  0.00  0.00    +0.429 C 
ATOM     12  O   UNL     1      -0.285   5.521  -2.810  0.00  0.00    -0.435 OA
ATOM     13  C   UNL     1       0.366   6.402  -3.677  0.00  0.00    +0.176 A 
ATOM     14  C   UNL     1       1.662   6.806  -3.752  0.00  0.00    +0.036 A 
ATOM     15  C   UNL     1       2.920   4.679  -5.326  0.00  0.00    +0.317 C 
ATOM     16  O   UNL     1       2.383   3.594  -5.413  0.00  0.00    -0.250 OA
ATOM     17  C   UNL     1       2.337   6.609  -4.850  0.00  0.00    -0.016 A 
ENDROOT
BRANCH   1  23
ATOM     18  C   UNL     1       3.684   7.730  -1.468  0.00  0.00    +0.180 A 
ATOM     19  C   UNL     1       3.384   6.598  -0.718  0.00  0.00    +0.263 A 
ATOM     20  O   UNL     1       2.209   6.720   0.044  0.00  0.00    -0.280 OA
ATOM     21  C   UNL     1       3.616   5.379  -1.349  0.00  0.00    +0.180 A 
ATOM     22  C   UNL     1       3.867   5.262  -2.715  0.00  0.00    +0.036 A 
ATOM     23  C   UNL     1       4.270   6.322  -3.372  0.00  0.00    -0.012 A 
ATOM     24  C   UNL     1       4.126   7.586  -2.777  0.00  0.00    +0.036 A 
BRANCH  21  25
ATOM     25  O   UNL     1       3.147   4.286  -0.635  0.00  0.00    -0.468 OA
ATOM     26  C   UNL     1       3.501   2.959  -0.837  0.00  0.00    +0.253 C 
ENDBRANCH  21  25
BRANCH  18  28
ATOM     27  C   UNL     1       4.075   9.496   0.166  0.00  0.00    +0.253 C 
ATOM     28  O   UNL     1       3.357   8.982  -0.934  0.00  0.00    -0.468 OA
ENDBRANCH  18  28
ENDBRANCH   1  23
BRANCH   6  29
ATOM     29  O   UNL     1       2.095   6.312  -8.284  0.00  0.00    -0.326 OA
BRANCH  29  30
ATOM     30  C   UNL     1       1.539   5.496  -9.438  0.00  0.00    +0.270 C 
ATOM     31  C   UNL     1       0.370   6.743  -9.724  0.00  0.00    +0.240 C 
ATOM     32  O   UNL     1      -0.671   5.971  -8.983  0.00  0.00    -0.215 OA
ATOM     33  C   UNL     1      -0.150   6.046 -11.199  0.00  0.00    +0.217 C 
ATOM     34  O   UNL     1      -1.093   7.198 -11.420  0.00  0.00    -0.218 OA
ATOM     35  C   UNL     1       1.113   6.880 -11.994  0.00  0.00    +0.181 C 
ATOM     36  C   UNL     1       2.126   5.530 -11.676  0.00  0.00    +0.177 C 
ATOM     37  C   UNL     1       3.348   6.234 -12.514  0.00  0.00    +0.177 C 
ATOM     38  O   UNL     1       2.921   6.029 -13.842  0.00  0.00    -0.324 OA
ATOM     39  C   UNL     1       1.943   7.214 -13.911  0.00  0.00    +0.266 C 
ATOM     40  O   UNL     1       0.810   6.328 -13.354  0.00  0.00    -0.324 OA
ATOM     41  O   UNL     1       2.539   6.174 -10.376  0.00  0.00    -0.326 OA
BRANCH  39  42
ATOM     42  C   UNL     1       1.538   6.870 -15.465  0.00  0.00    +0.063 A 
ATOM     43  S   UNL     1      -0.128   6.533 -15.704  0.00  0.00    -0.086 S 
ATOM     44  C   UNL     1      -0.458   7.592 -17.014  0.00  0.00    +0.035 A 
ATOM     45  C   UNL     1       0.700   8.286 -17.082  0.00  0.00    +0.007 A 
ATOM     46  C   UNL     1       1.664   8.014 -16.223  0.00  0.00    +0.008 A 
ENDBRANCH  39  42
ENDBRANCH  29  30
ENDBRANCH   6  29
TORSDOF 6
ENDMDL
MODEL 8
REMARK VINA RESULT:      -7.8      3.705     11.587
REMARK  Name = 
REMARK  6 active torsions:
REMARK  status: ('A' for Active; 'I' for Inactive)
REMARK    1  A    between atoms: O_2  and  C_3
REMARK    2  A    between atoms: C_5  and  C_6
REMARK    3  A    between atoms: C_13  and  O_14
REMARK    4  A    between atoms: O_14  and  C_15
REMARK    5  A    between atoms: C_20  and  C_21
REMARK    6  A    between atoms: C_42  and  O_43
REMARK                            x       y       z     vdW  Elec       q    Type
REMARK                         _______ _______ _______ _____ _____    ______ ____
ROOT
ATOM      1  C   UNL     1       0.662   7.136 -13.494  0.00  0.00    +0.055 C 
ATOM      2  C   UNL     1      -0.170   5.630 -13.239  0.00  0.00    +0.113 C 
ATOM      3  C   UNL     1      -0.367   5.788 -11.544  0.00  0.00    +0.086 C 
ATOM      4  C   UNL     1       0.309   7.112 -11.784  0.00  0.00    +0.212 C 
ATOM      5  O   UNL     1       0.863   5.986 -12.348  0.00  0.00    -0.448 OA
ATOM      6  C   UNL     1       1.166   5.298 -10.905  0.00  0.00    +0.144 C 
ATOM      7  C   UNL     1       2.190   6.436 -11.516  0.00  0.00    +0.004 A 
ATOM      8  C   UNL     1       3.445   6.283 -11.044  0.00  0.00    +0.038 A 
ATOM      9  C   UNL     1       4.555   6.160 -11.880  0.00  0.00    +0.176 A 
ATOM     10  O   UNL     1       5.784   5.502 -11.783  0.00  0.00    -0.435 OA
ATOM     11  C   UNL     1       6.072   4.834 -12.986  0.00  0.00    +0.429 C 
ATOM     12  O   UNL     1       5.159   5.328 -13.921  0.00  0.00    -0.435 OA
ATOM     13  C   UNL     1       4.358   6.257 -13.253  0.00  0.00    +0.176 A 
ATOM     14  C   UNL     1       3.217   6.899 -13.621  0.00  0.00    +0.036 A 
ATOM     15  C   UNL     1       1.129   4.955 -12.957  0.00  0.00    +0.317 C 
ATOM     16  O   UNL     1       1.415   3.783 -12.825  0.00  0.00    -0.250 OA
ATOM     17  C   UNL     1       2.139   6.762 -12.901  0.00  0.00    -0.016 A 
ENDROOT
BRANCH   1  23
ATOM     18  C   UNL     1      -0.692   7.364 -16.798  0.00  0.00    +0.180 A 
ATOM     19  C   UNL     1       0.312   7.885 -17.608  0.00  0.00    +0.263 A 
ATOM     20  O   UNL     1      -0.067   9.049 -18.298  0.00  0.00    -0.280 OA
ATOM     21  C   UNL     1       1.597   7.845 -17.074  0.00  0.00    +0.180 A 
ATOM     22  C   UNL     1       1.859   7.566 -15.735  0.00  0.00    +0.036 A 
ATOM     23  C   UNL     1       0.937   6.959 -15.028  0.00  0.00    -0.012 A 
ATOM     24  C   UNL     1      -0.374   6.904 -15.526  0.00  0.00    +0.036 A 
BRANCH  21  25
ATOM     25  O   UNL     1       2.536   8.524 -17.838  0.00  0.00    -0.468 OA
ATOM     26  C   UNL     1       3.345   9.566 -17.409  0.00  0.00    +0.253 C 
ENDBRANCH  21  25
BRANCH  18  28
ATOM     27  C   UNL     1      -2.611   6.475 -18.008  0.00  0.00    +0.253 C 
ATOM     28  O   UNL     1      -2.019   7.488 -17.227  0.00  0.00    -0.468 OA
ENDBRANCH  18  28
ENDBRANCH   1  23
BRANCH   6  29
ATOM     29  O   UNL     1       0.942   6.188  -9.711  0.00  0.00    -0.326 OA
BRANCH  29  30
ATOM     30  C   UNL     1       0.890   5.204  -8.555  0.00  0.00    +0.270 C 
ATOM     31  C   UNL     1       1.765   6.339  -7.582  0.00  0.00    +0.240 C 
ATOM     32  O   UNL     1       3.043   5.611  -7.838  0.00  0.00    -0.215 OA
ATOM     33  C   UNL     1       1.527   5.436  -6.147  0.00  0.00    +0.217 C 
ATOM     34  O   UNL     1       2.237   6.498  -5.352  0.00  0.00    -0.218 OA
ATOM     35  C   UNL     1       0.029   6.231  -5.941  0.00  0.00    +0.181 C 
ATOM     36  C   UNL     1      -0.694   4.990  -6.882  0.00  0.00    +0.177 C 
ATOM     37  C   UNL     1      -2.176   5.648  -6.635  0.00  0.00    +0.177 C 
ATOM     38  O   UNL     1      -2.432   5.255  -5.306  0.00  0.00    -0.324 OA
ATOM     39  C   UNL     1      -1.619   6.366  -4.621  0.00  0.00    +0.266 C 
ATOM     40  O   UNL     1      -0.347   5.497  -4.689  0.00  0.00    -0.324 OA
ATOM     41  O   UNL     1      -0.445   5.813  -8.120  0.00  0.00    -0.326 OA
BRANCH  39  42
ATOM     42  C   UNL     1      -2.001   5.808  -3.124  0.00  0.00    +0.063 A 
ATOM     43  S   UNL     1      -0.656   5.627  -2.073  0.00  0.00    -0.086 S 
ATOM     44  C   UNL     1      -1.239   6.476  -0.699  0.00  0.00    +0.035 A 
ATOM     45  C   UNL     1      -2.378   7.011  -1.192  0.00  0.00    +0.007 A 
ATOM     46  C   UNL     1      -2.704   6.783  -2.450  0.00  0.00    +0.008 A 
ENDBRANCH  39  42
ENDBRANCH  29  30
ENDBRANCH   6  29
TORSDOF 6
ENDMDL
MODEL 9
REMARK VINA RESULT:      -7.8      2.643      4.973
REMARK  Name = 
REMARK  6 active torsions:
REMARK  status: ('A' for Active; 'I' for Inactive)
REMARK    1  A    between atoms: O_2  and  C_3
REMARK    2  A    between atoms: C_5  and  C_6
REMARK    3  A    between atoms: C_13  and  O_14
REMARK    4  A    between atoms: O_14  and  C_15
REMARK    5  A    between atoms: C_20  and  C_21
REMARK    6  A    between atoms: C_42  and  O_43
REMARK                            x       y       z     vdW  Elec       q    Type
REMARK                         _______ _______ _______ _____ _____    ______ ____
ROOT
ATOM      1  C   UNL     1       3.744   7.309  -0.676  0.00  0.00    +0.055 C 
ATOM      2  C   UNL     1       4.215   5.648  -0.887  0.00  0.00    +0.113 C 
ATOM      3  C   UNL     1       4.047   5.601  -2.592  0.00  0.00    +0.086 C 
ATOM      4  C   UNL     1       3.690   7.052  -2.403  0.00  0.00    +0.212 C 
ATOM      5  O   UNL     1       3.087   6.121  -1.589  0.00  0.00    -0.448 OA
ATOM      6  C   UNL     1       2.348   5.375  -2.832  0.00  0.00    +0.144 C 
ATOM      7  C   UNL     1       1.708   6.750  -2.187  0.00  0.00    +0.004 A 
ATOM      8  C   UNL     1       0.372   6.812  -2.367  0.00  0.00    +0.038 A 
ATOM      9  C   UNL     1      -0.524   6.997  -1.314  0.00  0.00    +0.176 A 
ATOM     10  O   UNL     1      -1.839   6.596  -1.067  0.00  0.00    -0.435 OA
ATOM     11  C   UNL     1      -1.962   6.118   0.249  0.00  0.00    +0.429 C 
ATOM     12  O   UNL     1      -0.788   6.502   0.902  0.00  0.00    -0.435 OA
ATOM     13  C   UNL     1      -0.007   7.181  -0.036  0.00  0.00    +0.176 A 
ATOM     14  C   UNL     1       1.283   7.610  -0.000  0.00  0.00    +0.036 A 
ATOM     15  C   UNL     1       2.786   5.228  -0.803  0.00  0.00    +0.317 C 
ATOM     16  O   UNL     1       2.274   4.131  -0.712  0.00  0.00    -0.250 OA
ATOM     17  C   UNL     1       2.129   7.189  -0.899  0.00  0.00    -0.016 A 
ENDROOT
BRANCH   1  23
ATOM     18  C   UNL     1       5.694   8.110   2.214  0.00  0.00    +0.180 A 
ATOM     19  C   UNL     1       4.824   8.671   3.143  0.00  0.00    +0.263 A 
ATOM     20  O   UNL     1       5.214   9.947   3.584  0.00  0.00    -0.280 OA
ATOM     21  C   UNL     1       3.469   8.463   2.900  0.00  0.00    +0.180 A 
ATOM     22  C   UNL     1       2.976   7.975   1.692  0.00  0.00    +0.036 A 
ATOM     23  C   UNL     1       3.795   7.338   0.891  0.00  0.00    -0.012 A 
ATOM     24  C   UNL     1       5.179   7.449   1.106  0.00  0.00    +0.036 A 
BRANCH  21  25
ATOM     25  O   UNL     1       2.637   9.177   3.750  0.00  0.00    -0.468 OA
ATOM     26  C   UNL     1       1.344   9.599   3.471  0.00  0.00    +0.253 C 
ENDBRANCH  21  25
BRANCH  18  28
ATOM     27  C   UNL     1       7.809   7.829   3.392  0.00  0.00    +0.253 C 
ATOM     28  O   UNL     1       7.061   8.389   2.336  0.00  0.00    -0.468 OA
ENDBRANCH  18  28
ENDBRANCH   1  23
BRANCH   6  29
ATOM     29  O   UNL     1       2.450   6.084  -4.157  0.00  0.00    -0.326 OA
BRANCH  29  30
ATOM     30  C   UNL     1       2.124   4.989  -5.158  0.00  0.00    +0.270 C 
ATOM     31  C   UNL     1       0.801   5.947  -5.737  0.00  0.00    +0.240 C 
ATOM     32  O   UNL     1      -0.163   5.158  -4.913  0.00  0.00    -0.215 OA
ATOM     33  C   UNL     1       0.517   4.915  -7.074  0.00  0.00    +0.217 C 
ATOM     34  O   UNL     1      -0.574   5.831  -7.559  0.00  0.00    -0.218 OA
ATOM     35  C   UNL     1       1.694   5.792  -7.951  0.00  0.00    +0.181 C 
ATOM     36  C   UNL     1       2.877   4.714  -7.329  0.00  0.00    +0.177 C 
ATOM     37  C   UNL     1       4.037   5.450  -8.225  0.00  0.00    +0.177 C 
ATOM     38  O   UNL     1       3.756   4.938  -9.508  0.00  0.00    -0.324 OA
ATOM     39  C   UNL     1       2.613   5.907  -9.853  0.00  0.00    +0.266 C 
ATOM     40  O   UNL     1       1.591   4.958  -9.192  0.00  0.00    -0.324 OA
ATOM     41  O   UNL     1       3.077   5.644  -6.159  0.00  0.00    -0.326 OA
BRANCH  39  42
ATOM     42  C   UNL     1       2.394   5.222 -11.330  0.00  0.00    +0.063 A 
ATOM     43  S   UNL     1       0.750   5.056 -11.795  0.00  0.00    -0.086 S 
ATOM     44  C   UNL     1       0.813   5.767 -13.357  0.00  0.00    +0.035 A 
ATOM     45  C   UNL     1       2.072   6.260 -13.364  0.00  0.00    +0.007 A 
ATOM     46  C   UNL     1       2.832   6.099 -12.297  0.00  0.00    +0.008 A 
ENDBRANCH  39  42
ENDBRANCH  29  30
ENDBRANCH   6  29
TORSDOF 6
ENDMDL
