MODEL 1
REMARK VINA RESULT:      -6.5      0.000      0.000
REMARK  Name = 
REMARK  7 active torsions:
REMARK  status: ('A' for Active; 'I' for Inactive)
REMARK    1  A    between atoms: C_2  and  C_3
REMARK    2  A    between atoms: C_3  and  C_4
REMARK    3  A    between atoms: C_3  and  C_6
REMARK    4  A    between atoms: C_6  and  N_7
REMARK    5  A    between atoms: C_6  and  C_11
REMARK    6  A    between atoms: C_12  and  N_13
REMARK    7  A    between atoms: C_18  and  C_19
REMARK                            x       y       z     vdW  Elec       q    Type
REMARK                         _______ _______ _______ _____ _____    ______ ____
ROOT
ATOM      1  C   UNL     1       1.348   5.258  -4.716  0.00  0.00    +0.091 C 
ATOM      2  C   UNL     1      -0.062   5.574  -5.562  0.00  0.00    +0.168 C 
ATOM      3  O   UNL     1       0.454   6.581  -6.555  0.00  0.00    -0.222 OA
ATOM      4  C   UNL     1      -0.604   6.824  -4.552  0.00  0.00    +0.137 C 
ATOM      5  C   UNL     1      -0.490   5.809  -3.293  0.00  0.00    +0.057 C 
ATOM      6  C   UNL     1       1.065   6.296  -3.438  0.00  0.00    +0.186 C 
ENDROOT
BRANCH   6   7
ATOM      7  N   UNL     1       1.575   5.263  -2.383  0.00  0.00    -0.090 NA
ATOM      8  C   UNL     1       2.074   5.708  -1.292  0.00  0.00    +0.534 C 
ATOM      9  N   UNL     1       1.111   5.800  -0.230  0.00  0.00    +0.135 NA
ATOM     10  N   UNL     1       3.318   5.117  -0.877  0.00  0.00    +0.135 NA
ENDBRANCH   6   7
BRANCH   4  11
ATOM     11  C   UNL     1      -2.143   6.517  -4.798  0.00  0.00    +0.367 C 
ATOM     12  O   UNL     1      -2.622   5.573  -3.919  0.00  0.00    -0.246 OA
ATOM     13  O   UNL     1      -2.818   7.188  -5.572  0.00  0.00    -0.246 OA
ENDBRANCH   4  11
BRANCH   1  14
ATOM     14  C   UNL     1       2.387   6.342  -5.467  0.00  0.00    +0.101 C 
BRANCH  14  15
ATOM     15  N   UNL     1       3.054   5.236  -6.345  0.00  0.00    -0.207 NA
ATOM     16  C   UNL     1       3.429   5.502  -7.648  0.00  0.00    +0.242 C 
ATOM     17  O   UNL     1       3.293   6.625  -8.156  0.00  0.00    -0.273 OA
ATOM     18  C   UNL     1       3.903   4.467  -8.611  0.00  0.00    +0.096 C 
ENDBRANCH  14  15
BRANCH  14  19
ATOM     19  C   UNL     1       3.493   6.224  -4.274  0.00  0.00    +0.020 C 
BRANCH  19  21
ATOM     20  C   UNL     1       4.887   4.551  -4.313  0.00  0.00    +0.000 C 
ATOM     21  C   UNL     1       4.311   4.984  -4.626  0.00  0.00    +0.002 C 
ENDBRANCH  19  21
BRANCH  19  22
ATOM     22  C   UNL     1       4.452   7.348  -4.667  0.00  0.00    +0.002 C 
ATOM     23  C   UNL     1       4.754   8.051  -3.347  0.00  0.00    +0.000 C 
ENDBRANCH  19  22
ENDBRANCH  14  19
ENDBRANCH   1  14
TORSDOF 7
ENDMDL
MODEL 2
REMARK VINA RESULT:      -6.2      4.480      8.859
REMARK  Name = 
REMARK  7 active torsions:
REMARK  status: ('A' for Active; 'I' for Inactive)
REMARK    1  A    between atoms: C_2  and  C_3
REMARK    2  A    between atoms: C_3  and  C_4
REMARK    3  A    between atoms: C_3  and  C_6
REMARK    4  A    between atoms: C_6  and  N_7
REMARK    5  A    between atoms: C_6  and  C_11
REMARK    6  A    between atoms: C_12  and  N_13
REMARK    7  A    between atoms: C_18  and  C_19
REMARK                            x       y       z     vdW  Elec       q    Type
REMARK                         _______ _______ _______ _____ _____    ______ ____
ROOT
ATOM      1  C   UNL     1       3.423   5.111 -10.636  0.00  0.00    +0.091 C 
ATOM      2  C   UNL     1       4.813   5.250  -9.713  0.00  0.00    +0.168 C 
ATOM      3  O   UNL     1       4.328   6.209  -8.660  0.00  0.00    -0.222 OA
ATOM      4  C   UNL     1       5.489   6.533 -10.593  0.00  0.00    +0.137 C 
ATOM      5  C   UNL     1       5.358   5.635 -11.936  0.00  0.00    +0.057 C 
ATOM      6  C   UNL     1       3.837   6.225 -11.811  0.00  0.00    +0.186 C 
ENDROOT
BRANCH   6   7
ATOM      7  N   UNL     1       3.301   5.323 -12.967  0.00  0.00    -0.090 NA
ATOM      8  C   UNL     1       2.758   5.892 -13.977  0.00  0.00    +0.534 C 
ATOM      9  N   UNL     1       3.681   6.130 -15.052  0.00  0.00    +0.135 NA
ATOM     10  N   UNL     1       1.507   5.337 -14.419  0.00  0.00    +0.135 NA
ENDBRANCH   6   7
BRANCH   4  11
ATOM     11  C   UNL     1       6.989   6.090 -10.314  0.00  0.00    +0.367 C 
ATOM     12  O   UNL     1       7.513   5.373 -11.365  0.00  0.00    -0.246 OA
ATOM     13  O   UNL     1       7.614   6.508  -9.345  0.00  0.00    -0.246 OA
ENDBRANCH   4  11
BRANCH   1  14
ATOM     14  C   UNL     1       2.433   6.208  -9.837  0.00  0.00    +0.101 C 
BRANCH  14  15
ATOM     15  N   UNL     1       1.855   5.123  -8.875  0.00  0.00    -0.207 NA
ATOM     16  C   UNL     1       1.492   5.450  -7.581  0.00  0.00    +0.242 C 
ATOM     17  O   UNL     1       1.571   6.609  -7.149  0.00  0.00    -0.273 OA
ATOM     18  C   UNL     1       1.104   4.452  -6.543  0.00  0.00    +0.096 C 
ENDBRANCH  14  15
BRANCH  14  19
ATOM     19  C   UNL     1       1.236   6.039 -10.933  0.00  0.00    +0.020 C 
BRANCH  19  21
ATOM     20  C   UNL     1       0.028   4.227 -10.881  0.00  0.00    +0.000 C 
ATOM     21  C   UNL     1       0.594   4.694 -10.601  0.00  0.00    +0.002 C 
ENDBRANCH  19  21
BRANCH  19  22
ATOM     22  C   UNL     1       0.204   7.019 -10.375  0.00  0.00    +0.002 C 
ATOM     23  C   UNL     1      -0.465   7.594 -11.620  0.00  0.00    +0.000 C 
ENDBRANCH  19  22
ENDBRANCH  14  19
ENDBRANCH   1  14
TORSDOF 7
ENDMDL
MODEL 3
REMARK VINA RESULT:      -6.1      2.100      3.101
REMARK  Name = 
REMARK  7 active torsions:
REMARK  status: ('A' for Active; 'I' for Inactive)
REMARK    1  A    between atoms: C_2  and  C_3
REMARK    2  A    between atoms: C_3  and  C_4
REMARK    3  A    between atoms: C_3  and  C_6
REMARK    4  A    between atoms: C_6  and  N_7
REMARK    5  A    between atoms: C_6  and  C_11
REMARK    6  A    between atoms: C_12  and  N_13
REMARK    7  A    between atoms: C_18  and  C_19
REMARK                            x       y       z     vdW  Elec       q    Type
REMARK                         _______ _______ _______ _____ _____    ______ ____
ROOT
ATOM      1  C   UNL     1       0.943   4.767  -6.271  0.00  0.00    +0.091 C 
ATOM      2  C   UNL     1      -0.669   5.034  -5.907  0.00  0.00    +0.168 C 
ATOM      3  O   UNL     1      -1.001   6.067  -6.949  0.00  0.00    -0.222 OA
ATOM      4  C   UNL     1      -0.397   6.254  -4.760  0.00  0.00    +0.137 C 
ATOM      5  C   UNL     1       0.575   5.236  -3.958  0.00  0.00    +0.057 C 
ATOM      6  C   UNL     1       1.593   5.784  -5.115  0.00  0.00    +0.186 C 
ENDROOT
BRANCH   6   7
ATOM      7  N   UNL     1       2.712   4.765  -4.733  0.00  0.00    -0.090 NA
ATOM      8  C   UNL     1       3.717   5.192  -4.065  0.00  0.00    +0.534 C 
ATOM      9  N   UNL     1       3.560   5.026  -2.646  0.00  0.00    +0.135 NA
ATOM     10  N   UNL     1       5.012   4.786  -4.540  0.00  0.00    +0.135 NA
ENDBRANCH   6   7
BRANCH   4  11
ATOM     11  C   UNL     1      -1.676   5.888  -3.892  0.00  0.00    +0.367 C 
ATOM     12  O   UNL     1      -1.353   5.089  -2.820  0.00  0.00    -0.246 OA
ATOM     13  O   UNL     1      -2.764   6.418  -4.093  0.00  0.00    -0.246 OA
ENDBRANCH   4  11
BRANCH   1  14
ATOM     14  C   UNL     1       1.156   5.898  -7.495  0.00  0.00    +0.101 C 
BRANCH  14  15
ATOM     15  N   UNL     1       0.942   4.845  -8.628  0.00  0.00    -0.207 NA
ATOM     16  C   UNL     1       0.376   5.214  -9.834  0.00  0.00    +0.242 C 
ATOM     17  O   UNL     1       0.056   6.386 -10.080  0.00  0.00    -0.273 OA
ATOM     18  C   UNL     1      -0.030   4.251 -10.898  0.00  0.00    +0.096 C 
ENDBRANCH  14  15
BRANCH  14  19
ATOM     19  C   UNL     1       2.778   5.721  -7.479  0.00  0.00    +0.020 C 
BRANCH  19  21
ATOM     20  C   UNL     1       3.666   4.170  -8.725  0.00  0.00    +0.000 C 
ATOM     21  C   UNL     1       3.048   4.549  -8.419  0.00  0.00    +0.002 C 
ENDBRANCH  19  21
BRANCH  19  22
ATOM     22  C   UNL     1       3.198   6.911  -8.341  0.00  0.00    +0.002 C 
ATOM     23  C   UNL     1       2.245   8.025  -7.918  0.00  0.00    +0.000 C 
ENDBRANCH  19  22
ENDBRANCH  14  19
ENDBRANCH   1  14
TORSDOF 7
ENDMDL
MODEL 4
REMARK VINA RESULT:      -5.9      2.344      4.688
REMARK  Name = 
REMARK  7 active torsions:
REMARK  status: ('A' for Active; 'I' for Inactive)
REMARK    1  A    between atoms: C_2  and  C_3
REMARK    2  A    between atoms: C_3  and  C_4
REMARK    3  A    between atoms: C_3  and  C_6
REMARK    4  A    between atoms: C_6  and  N_7
REMARK    5  A    between atoms: C_6  and  C_11
REMARK    6  A    between atoms: C_12  and  N_13
REMARK    7  A    between atoms: C_18  and  C_19
REMARK                            x       y       z     vdW  Elec       q    Type
REMARK                         _______ _______ _______ _____ _____    ______ ____
ROOT
ATOM      1  C   UNL     1       1.306   6.892  -3.353  0.00  0.00    +0.091 C 
ATOM      2  C   UNL     1      -0.016   6.478  -2.413  0.00  0.00    +0.168 C 
ATOM      3  O   UNL     1       0.651   5.568  -1.417  0.00  0.00    -0.222 OA
ATOM      4  C   UNL     1      -0.488   5.140  -3.343  0.00  0.00    +0.137 C 
ATOM      5  C   UNL     1      -0.545   6.107  -4.643  0.00  0.00    +0.057 C 
ATOM      6  C   UNL     1       1.056   5.779  -4.573  0.00  0.00    +0.186 C 
ENDROOT
BRANCH   6   7
ATOM      7  N   UNL     1       1.402   6.810  -5.694  0.00  0.00    -0.090 NA
ATOM      8  C   UNL     1       1.886   6.369  -6.793  0.00  0.00    +0.534 C 
ATOM      9  N   UNL     1       0.882   6.136  -7.795  0.00  0.00    +0.135 NA
ATOM     10  N   UNL     1       3.039   7.062  -7.301  0.00  0.00    +0.135 NA
ENDBRANCH   6   7
BRANCH   4  11
ATOM     11  C   UNL     1      -2.034   5.308  -3.016  0.00  0.00    +0.367 C 
ATOM     12  O   UNL     1      -2.731   5.811  -4.091  0.00  0.00    -0.246 OA
ATOM     13  O   UNL     1      -2.525   4.869  -1.982  0.00  0.00    -0.246 OA
ENDBRANCH   4  11
BRANCH   1  14
ATOM     14  C   UNL     1       2.487   5.945  -2.626  0.00  0.00    +0.101 C 
BRANCH  14  15
ATOM     15  N   UNL     1       3.077   7.142  -1.815  0.00  0.00    -0.207 NA
ATOM     16  C   UNL     1       3.636   6.940  -0.567  0.00  0.00    +0.242 C 
ATOM     17  O   UNL     1       3.729   5.812  -0.063  0.00  0.00    -0.273 OA
ATOM     18  C   UNL     1       4.057   8.039   0.349  0.00  0.00    +0.096 C 
ENDBRANCH  14  15
BRANCH  14  19
ATOM     19  C   UNL     1       3.516   6.136  -3.878  0.00  0.00    +0.020 C 
BRANCH  19  21
ATOM     20  C   UNL     1       4.802   7.895  -3.908  0.00  0.00    +0.000 C 
ATOM     21  C   UNL     1       4.260   7.434  -3.572  0.00  0.00    +0.002 C 
ENDBRANCH  19  21
BRANCH  19  22
ATOM     22  C   UNL     1       4.574   5.087  -3.535  0.00  0.00    +0.002 C 
ATOM     23  C   UNL     1       4.765   4.319  -4.840  0.00  0.00    +0.000 C 
ENDBRANCH  19  22
ENDBRANCH  14  19
ENDBRANCH   1  14
TORSDOF 7
ENDMDL
MODEL 5
REMARK VINA RESULT:      -5.7      2.319      4.698
REMARK  Name = 
REMARK  7 active torsions:
REMARK  status: ('A' for Active; 'I' for Inactive)
REMARK    1  A    between atoms: C_2  and  C_3
REMARK    2  A    between atoms: C_3  and  C_4
REMARK    3  A    between atoms: C_3  and  C_6
REMARK    4  A    between atoms: C_6  and  N_7
REMARK    5  A    between atoms: C_6  and  C_11
REMARK    6  A    between atoms: C_12  and  N_13
REMARK    7  A    between atoms: C_18  and  C_19
REMARK                            x       y       z     vdW  Elec       q    Type
REMARK                         _______ _______ _______ _____ _____    ______ ____
ROOT
ATOM      1  C   UNL     1       2.145   7.127  -4.868  0.00  0.00    +0.091 C 
ATOM      2  C   UNL     1       0.531   6.877  -4.501  0.00  0.00    +0.168 C 
ATOM      3  O   UNL     1       0.670   6.236  -3.147  0.00  0.00    -0.222 OA
ATOM      4  C   UNL     1       0.413   5.350  -5.230  0.00  0.00    +0.137 C 
ATOM      5  C   UNL     1       0.957   6.004  -6.609  0.00  0.00    +0.057 C 
ATOM      6  C   UNL     1       2.362   5.763  -5.809  0.00  0.00    +0.186 C 
ENDROOT
BRANCH   6   7
ATOM      7  N   UNL     1       3.201   6.536  -6.876  0.00  0.00    -0.090 NA
ATOM      8  C   UNL     1       2.612   6.922  -7.945  0.00  0.00    +0.534 C 
ATOM      9  N   UNL     1       2.116   8.268  -7.859  0.00  0.00    +0.135 NA
ATOM     10  N   UNL     1       3.298   6.650  -9.179  0.00  0.00    +0.135 NA
ENDBRANCH   6   7
BRANCH   4  11
ATOM     11  C   UNL     1      -1.116   5.523  -5.623  0.00  0.00    +0.367 C 
ATOM     12  O   UNL     1      -1.289   5.573  -6.987  0.00  0.00    -0.246 OA
ATOM     13  O   UNL     1      -2.010   5.444  -4.787  0.00  0.00    -0.246 OA
ENDBRANCH   4  11
BRANCH   1  14
ATOM     14  C   UNL     1       2.862   6.411  -3.529  0.00  0.00    +0.101 C 
BRANCH  14  15
ATOM     15  N   UNL     1       3.396   7.769  -2.974  0.00  0.00    -0.207 NA
ATOM     16  C   UNL     1       3.298   8.069  -1.628  0.00  0.00    +0.242 C 
ATOM     17  O   UNL     1       2.827   7.266  -0.809  0.00  0.00    -0.273 OA
ATOM     18  C   UNL     1       3.612   9.403  -1.042  0.00  0.00    +0.096 C 
ENDBRANCH  14  15
BRANCH  14  19
ATOM     19  C   UNL     1       4.232   6.075  -4.348  0.00  0.00    +0.020 C 
BRANCH  19  21
ATOM     20  C   UNL     1       5.889   7.484  -4.225  0.00  0.00    +0.000 C 
ATOM     21  C   UNL     1       5.158   7.253  -4.053  0.00  0.00    +0.002 C 
ENDBRANCH  19  21
BRANCH  19  22
ATOM     22  C   UNL     1       4.829   4.983  -3.461  0.00  0.00    +0.002 C 
ATOM     23  C   UNL     1       3.653   4.522  -2.605  0.00  0.00    +0.000 C 
ENDBRANCH  19  22
ENDBRANCH  14  19
ENDBRANCH   1  14
TORSDOF 7
ENDMDL
MODEL 6
REMARK VINA RESULT:      -5.7      2.127      5.086
REMARK  Name = 
REMARK  7 active torsions:
REMARK  status: ('A' for Active; 'I' for Inactive)
REMARK    1  A    between atoms: C_2  and  C_3
REMARK    2  A    between atoms: C_3  and  C_4
REMARK    3  A    between atoms: C_3  and  C_6
REMARK    4  A    between atoms: C_6  and  N_7
REMARK    5  A    between atoms: C_6  and  C_11
REMARK    6  A    between atoms: C_12  and  N_13
REMARK    7  A    between atoms: C_18  and  C_19
REMARK                            x       y       z     vdW  Elec       q    Type
REMARK                         _______ _______ _______ _____ _____    ______ ____
ROOT
ATOM      1  C   UNL     1       0.774   6.896  -4.132  0.00  0.00    +0.091 C 
ATOM      2  C   UNL     1       0.255   6.435  -5.655  0.00  0.00    +0.168 C 
ATOM      3  O   UNL     1      -0.510   5.189  -5.300  0.00  0.00    -0.222 OA
ATOM      4  C   UNL     1       1.621   5.506  -6.039  0.00  0.00    +0.137 C 
ATOM      5  C   UNL     1       2.546   6.801  -5.731  0.00  0.00    +0.057 C 
ATOM      6  C   UNL     1       2.304   6.229  -4.218  0.00  0.00    +0.186 C 
ENDROOT
BRANCH   6   7
ATOM      7  N   UNL     1       2.970   7.473  -3.550  0.00  0.00    -0.090 NA
ATOM      8  C   UNL     1       4.171   7.359  -3.121  0.00  0.00    +0.534 C 
ATOM      9  N   UNL     1       5.153   7.779  -4.083  0.00  0.00    +0.135 NA
ATOM     10  N   UNL     1       4.422   7.867  -1.800  0.00  0.00    +0.135 NA
ENDBRANCH   6   7
BRANCH   4  11
ATOM     11  C   UNL     1       1.533   5.804  -7.597  0.00  0.00    +0.367 C 
ATOM     12  O   UNL     1       2.350   6.850  -7.963  0.00  0.00    -0.246 OA
ATOM     13  O   UNL     1       0.933   5.059  -8.363  0.00  0.00    -0.246 OA
ENDBRANCH   4  11
BRANCH   1  14
ATOM     14  C   UNL     1       0.183   5.614  -3.222  0.00  0.00    +0.101 C 
BRANCH  14  15
ATOM     15  N   UNL     1      -1.028   6.438  -2.681  0.00  0.00    -0.207 NA
ATOM     16  C   UNL     1      -2.275   5.856  -2.552  0.00  0.00    +0.242 C 
ATOM     17  O   UNL     1      -2.474   4.662  -2.818  0.00  0.00    -0.273 OA
ATOM     18  C   UNL     1      -3.520   6.607  -2.218  0.00  0.00    +0.096 C 
ENDBRANCH  14  15
BRANCH  14  19
ATOM     19  C   UNL     1       1.143   5.974  -1.954  0.00  0.00    +0.020 C 
BRANCH  19  21
ATOM     20  C   UNL     1       0.242   6.901  -0.200  0.00  0.00    +0.000 C 
ATOM     21  C   UNL     1       0.214   6.638  -0.940  0.00  0.00    +0.002 C 
ENDBRANCH  19  21
BRANCH  19  22
ATOM     22  C   UNL     1       1.328   4.586  -1.339  0.00  0.00    +0.002 C 
ATOM     23  C   UNL     1       2.832   4.488  -1.101  0.00  0.00    +0.000 C 
ENDBRANCH  19  22
ENDBRANCH  14  19
ENDBRANCH   1  14
TORSDOF 7
ENDMDL
MODEL 7
REMARK VINA RESULT:      -5.7      2.916      4.940
REMARK  Name = 
REMARK  7 active torsions:
REMARK  status: ('A' for Active; 'I' for Inactive)
REMARK    1  A    between atoms: C_2  and  C_3
REMARK    2  A    between atoms: C_3  and  C_4
REMARK    3  A    between atoms: C_3  and  C_6
REMARK    4  A    between atoms: C_6  and  N_7
REMARK    5  A    between atoms: C_6  and  C_11
REMARK    6  A    between atoms: C_12  and  N_13
REMARK    7  A    between atoms: C_18  and  C_19
REMARK                            x       y       z     vdW  Elec       q    Type
REMARK                         _______ _______ _______ _____ _____    ______ ____
ROOT
ATOM      1  C   UNL     1       1.070   6.666  -3.276  0.00  0.00    +0.091 C 
ATOM      2  C   UNL     1       2.648   6.283  -2.869  0.00  0.00    +0.168 C 
ATOM      3  O   UNL     1       2.978   5.330  -3.986  0.00  0.00    -0.222 OA
ATOM      4  C   UNL     1       2.263   4.983  -1.851  0.00  0.00    +0.137 C 
ATOM      5  C   UNL     1       1.305   5.977  -1.001  0.00  0.00    +0.057 C 
ATOM      6  C   UNL     1       0.318   5.587  -2.245  0.00  0.00    +0.186 C 
ENDROOT
BRANCH   6   7
ATOM      7  N   UNL     1      -0.767   6.627  -1.820  0.00  0.00    -0.090 NA
ATOM      8  C   UNL     1      -1.857   6.191  -1.311  0.00  0.00    +0.534 C 
ATOM      9  N   UNL     1      -1.829   6.147   0.125  0.00  0.00    +0.135 NA
ATOM     10  N   UNL     1      -3.072   6.756  -1.835  0.00  0.00    +0.135 NA
ENDBRANCH   6   7
BRANCH   4  11
ATOM     11  C   UNL     1       3.517   5.202  -0.899  0.00  0.00    +0.367 C 
ATOM     12  O   UNL     1       3.312   6.237  -0.016  0.00  0.00    -0.246 OA
ATOM     13  O   UNL     1       4.454   4.412  -0.877  0.00  0.00    -0.246 OA
ENDBRANCH   4  11
BRANCH   1  14
ATOM     14  C   UNL     1       0.860   5.662  -4.605  0.00  0.00    +0.101 C 
BRANCH  14  15
ATOM     15  N   UNL     1       1.211   6.789  -5.627  0.00  0.00    -0.207 NA
ATOM     16  C   UNL     1       1.901   6.497  -6.789  0.00  0.00    +0.242 C 
ATOM     17  O   UNL     1       2.230   5.340  -7.085  0.00  0.00    -0.273 OA
ATOM     18  C   UNL     1       2.433   7.526  -7.728  0.00  0.00    +0.096 C 
ENDBRANCH  14  15
BRANCH  14  19
ATOM     19  C   UNL     1      -0.745   5.949  -4.663  0.00  0.00    +0.020 C 
BRANCH  19  21
ATOM     20  C   UNL     1      -1.406   8.017  -4.845  0.00  0.00    +0.000 C 
ATOM     21  C   UNL     1      -0.860   7.454  -4.896  0.00  0.00    +0.002 C 
ENDBRANCH  19  21
BRANCH  19  22
ATOM     22  C   UNL     1      -1.079   5.396  -6.049  0.00  0.00    +0.002 C 
ATOM     23  C   UNL     1      -2.603   5.323  -6.055  0.00  0.00    +0.000 C 
ENDBRANCH  19  22
ENDBRANCH  14  19
ENDBRANCH   1  14
TORSDOF 7
ENDMDL
MODEL 8
REMARK VINA RESULT:      -5.4      2.806      4.496
REMARK  Name = 
REMARK  7 active torsions:
REMARK  status: ('A' for Active; 'I' for Inactive)
REMARK    1  A    between atoms: C_2  and  C_3
REMARK    2  A    between atoms: C_3  and  C_4
REMARK    3  A    between atoms: C_3  and  C_6
REMARK    4  A    between atoms: C_6  and  N_7
REMARK    5  A    between atoms: C_6  and  C_11
REMARK    6  A    between atoms: C_12  and  N_13
REMARK    7  A    between atoms: C_18  and  C_19
REMARK                            x       y       z     vdW  Elec       q    Type
REMARK                         _______ _______ _______ _____ _____    ______ ____
ROOT
ATOM      1  C   UNL     1       1.216   6.516  -4.358  0.00  0.00    +0.091 C 
ATOM      2  C   UNL     1       1.346   6.494  -2.689  0.00  0.00    +0.168 C 
ATOM      3  O   UNL     1       2.571   5.634  -2.537  0.00  0.00    -0.222 OA
ATOM      4  C   UNL     1       0.348   5.145  -2.446  0.00  0.00    +0.137 C 
ATOM      5  C   UNL     1      -0.822   5.904  -3.272  0.00  0.00    +0.057 C 
ATOM      6  C   UNL     1       0.077   5.300  -4.497  0.00  0.00    +0.186 C 
ENDROOT
BRANCH   6   7
ATOM      7  N   UNL     1      -0.732   6.075  -5.585  0.00  0.00    -0.090 NA
ATOM      8  C   UNL     1      -1.385   5.395  -6.451  0.00  0.00    +0.534 C 
ATOM      9  N   UNL     1      -2.756   5.178  -6.077  0.00  0.00    +0.135 NA
ATOM     10  N   UNL     1      -1.232   5.802  -7.822  0.00  0.00    +0.135 NA
ENDBRANCH   6   7
BRANCH   4  11
ATOM     11  C   UNL     1      -0.179   5.641  -1.031  0.00  0.00    +0.367 C 
ATOM     12  O   UNL     1      -1.553   5.704  -0.993  0.00  0.00    -0.246 OA
ATOM     13  O   UNL     1       0.574   5.772  -0.073  0.00  0.00    -0.246 OA
ENDBRANCH   4  11
BRANCH   1  14
ATOM     14  C   UNL     1       2.478   5.484  -4.761  0.00  0.00    +0.101 C 
BRANCH  14  15
ATOM     15  N   UNL     1       3.524   6.642  -4.825  0.00  0.00    -0.207 NA
ATOM     16  C   UNL     1       4.823   6.442  -4.395  0.00  0.00    +0.242 C 
ATOM     17  O   UNL     1       5.218   5.341  -3.986  0.00  0.00    -0.273 OA
ATOM     18  C   UNL     1       5.833   7.529  -4.251  0.00  0.00    +0.096 C 
ENDBRANCH  14  15
BRANCH  14  19
ATOM     19  C   UNL     1       2.129   5.557  -6.353  0.00  0.00    +0.020 C 
BRANCH  19  21
ATOM     20  C   UNL     1       2.408   7.455  -7.387  0.00  0.00    +0.000 C 
ATOM     21  C   UNL     1       2.491   6.983  -6.764  0.00  0.00    +0.002 C 
ENDBRANCH  19  21
BRANCH  19  22
ATOM     22  C   UNL     1       3.298   4.762  -6.934  0.00  0.00    +0.002 C 
ATOM     23  C   UNL     1       2.660   3.931  -8.043  0.00  0.00    +0.000 C 
ENDBRANCH  19  22
ENDBRANCH  14  19
ENDBRANCH   1  14
TORSDOF 7
ENDMDL
MODEL 9
REMARK VINA RESULT:      -5.3      3.727      7.332
REMARK  Name = 
REMARK  7 active torsions:
REMARK  status: ('A' for Active; 'I' for Inactive)
REMARK    1  A    between atoms: C_2  and  C_3
REMARK    2  A    between atoms: C_3  and  C_4
REMARK    3  A    between atoms: C_3  and  C_6
REMARK    4  A    between atoms: C_6  and  N_7
REMARK    5  A    between atoms: C_6  and  C_11
REMARK    6  A    between atoms: C_12  and  N_13
REMARK    7  A    between atoms: C_18  and  C_19
REMARK                            x       y       z     vdW  Elec       q    Type
REMARK                         _______ _______ _______ _____ _____    ______ ____
ROOT
ATOM      1  C   UNL     1       3.766   4.827  -8.786  0.00  0.00    +0.091 C 
ATOM      2  C   UNL     1       5.409   5.083  -8.977  0.00  0.00    +0.168 C 
ATOM      3  O   UNL     1       5.631   6.129  -7.918  0.00  0.00    -0.222 OA
ATOM      4  C   UNL     1       5.269   6.288 -10.162  0.00  0.00    +0.137 C 
ATOM      5  C   UNL     1       4.384   5.262 -11.052  0.00  0.00    +0.057 C 
ATOM      6  C   UNL     1       3.250   5.830 -10.019  0.00  0.00    +0.186 C 
ENDROOT
BRANCH   6   7
ATOM      7  N   UNL     1       2.173   4.809 -10.506  0.00  0.00    -0.090 NA
ATOM      8  C   UNL     1       1.108   5.266 -11.048  0.00  0.00    +0.534 C 
ATOM      9  N   UNL     1       1.192   5.338 -12.481  0.00  0.00    +0.135 NA
ATOM     10  N   UNL     1      -0.131   4.703 -10.583  0.00  0.00    +0.135 NA
ENDBRANCH   6   7
BRANCH   4  11
ATOM     11  C   UNL     1       6.633   5.906 -10.881  0.00  0.00    +0.367 C 
ATOM     12  O   UNL     1       6.417   5.200 -12.043  0.00  0.00    -0.246 OA
ATOM     13  O   UNL     1       7.709   6.355 -10.502  0.00  0.00    -0.246 OA
ENDBRANCH   4  11
BRANCH   1  14
ATOM     14  C   UNL     1       3.427   5.975  -7.607  0.00  0.00    +0.101 C 
BRANCH  14  15
ATOM     15  N   UNL     1       3.761   5.000  -6.433  0.00  0.00    -0.207 NA
ATOM     16  C   UNL     1       4.236   5.484  -5.229  0.00  0.00    +0.242 C 
ATOM     17  O   UNL     1       4.376   6.698  -5.017  0.00  0.00    -0.273 OA
ATOM     18  C   UNL     1       4.748   4.624  -4.124  0.00  0.00    +0.096 C 
ENDBRANCH  14  15
BRANCH  14  19
ATOM     19  C   UNL     1       1.836   5.614  -7.607  0.00  0.00    +0.020 C 
BRANCH  19  21
ATOM     20  C   UNL     1       1.094   4.249  -6.080  0.00  0.00    +0.000 C 
ATOM     21  C   UNL     1       1.674   4.581  -6.495  0.00  0.00    +0.002 C 
ENDBRANCH  19  21
BRANCH  19  22
ATOM     22  C   UNL     1       1.264   6.870  -6.947  0.00  0.00    +0.002 C 
ATOM     23  C   UNL     1       2.125   8.000  -7.504  0.00  0.00    +0.000 C 
ENDBRANCH  19  22
ENDBRANCH  14  19
ENDBRANCH   1  14
TORSDOF 7
ENDMDL
