MODEL 1
REMARK VINA RESULT:      -6.8      0.000      0.000
REMARK  Name = 
REMARK  5 active torsions:
REMARK  status: ('A' for Active; 'I' for Inactive)
REMARK    1  A    between atoms: N_2  and  C_4
REMARK    2  A    between atoms: C_4  and  C_5
REMARK    3  A    between atoms: C_5  and  C_6
REMARK    4  A    between atoms: C_6  and  C_7
REMARK    5  A    between atoms: C_6  and  C_14
REMARK                            x       y       z     vdW  Elec       q    Type
REMARK                         _______ _______ _______ _____ _____    ______ ____
ROOT
ATOM      1  C   UNL     1       1.696   4.133  -6.326  0.00  0.00    +0.064 C 
ENDROOT
BRANCH   1   2
ATOM      2  C   UNL     1       2.765   5.093  -5.558  0.00  0.00    -0.017 A 
ATOM      3  C   UNL     1       3.606   4.446  -4.692  0.00  0.00    -0.003 A 
ATOM      4  C   UNL     1       4.609   5.228  -4.128  0.00  0.00    +0.011 A 
ATOM      5  C   UNL     1       4.707   6.577  -4.447  0.00  0.00    +0.058 A 
ATOM      6 CL   UNL     1       6.156   7.507  -4.068  0.00  0.00    -0.082 Cl
ATOM      7  C   UNL     1       3.713   7.185  -5.203  0.00  0.00    +0.011 A 
ATOM      8  C   UNL     1       2.781   6.401  -5.875  0.00  0.00    -0.003 A 
ENDBRANCH   1   2
BRANCH   1   9
ATOM      9  C   UNL     1       0.435   5.106  -5.946  0.00  0.00    +0.063 A 
ATOM     10  N   UNL     1       0.105   5.057  -4.645  0.00  0.00    -0.248 NA
ATOM     11  C   UNL     1      -0.967   5.804  -4.285  0.00  0.00    +0.098 A 
ATOM     12  C   UNL     1      -1.773   6.375  -5.263  0.00  0.00    +0.021 A 
ATOM     13  C   UNL     1      -1.739   5.759  -6.509  0.00  0.00    +0.003 A 
ATOM     14  C   UNL     1      -0.600   5.038  -6.851  0.00  0.00    +0.015 A 
ENDBRANCH   1   9
BRANCH   1  15
ATOM     15  C   UNL     1       1.920   4.913  -7.785  0.00  0.00    +0.028 C 
BRANCH  15  16
ATOM     16  C   UNL     1       2.833   4.002  -8.560  0.00  0.00    +0.073 C 
BRANCH  16  18
ATOM     17  C   UNL     1       4.944   4.944  -8.494  0.00  0.00    +0.090 C 
ATOM     18  N   UNL     1       3.944   4.708  -9.128  0.00  0.00    -0.270 NA
ATOM     19  C   UNL     1       3.682   5.303 -10.404  0.00  0.00    +0.090 C 
ENDBRANCH  16  18
ENDBRANCH  15  16
ENDBRANCH   1  15
TORSDOF 5
ENDMDL
MODEL 2
REMARK VINA RESULT:      -6.8      2.708      5.176
REMARK  Name = 
REMARK  5 active torsions:
REMARK  status: ('A' for Active; 'I' for Inactive)
REMARK    1  A    between atoms: N_2  and  C_4
REMARK    2  A    between atoms: C_4  and  C_5
REMARK    3  A    between atoms: C_5  and  C_6
REMARK    4  A    between atoms: C_6  and  C_7
REMARK    5  A    between atoms: C_6  and  C_14
REMARK                            x       y       z     vdW  Elec       q    Type
REMARK                         _______ _______ _______ _____ _____    ______ ____
ROOT
ATOM      1  C   UNL     1       2.067   7.160  -8.547  0.00  0.00    +0.064 C 
ENDROOT
BRANCH   1   2
ATOM      2  C   UNL     1       3.524   6.507  -8.875  0.00  0.00    -0.017 A 
ATOM      3  C   UNL     1       4.057   6.862 -10.085  0.00  0.00    -0.003 A 
ATOM      4  C   UNL     1       5.355   6.420 -10.324  0.00  0.00    +0.011 A 
ATOM      5  C   UNL     1       6.024   5.663  -9.370  0.00  0.00    +0.058 A 
ATOM      6 CL   UNL     1       7.765   5.406  -9.457  0.00  0.00    -0.082 Cl
ATOM      7  C   UNL     1       5.346   5.210  -8.244  0.00  0.00    +0.011 A 
ATOM      8  C   UNL     1       4.100   5.743  -7.929  0.00  0.00    -0.003 A 
ENDBRANCH   1   2
BRANCH   1   9
ATOM      9  C   UNL     1       1.360   6.412  -9.819  0.00  0.00    +0.063 A 
ATOM     10  N   UNL     1       0.431   7.168 -10.426  0.00  0.00    -0.248 NA
ATOM     11  C   UNL     1      -0.223   6.577 -11.455  0.00  0.00    +0.098 A 
ATOM     12  C   UNL     1      -0.076   5.213 -11.678  0.00  0.00    +0.021 A 
ATOM     13  C   UNL     1       0.317   4.461 -10.578  0.00  0.00    +0.003 A 
ATOM     14  C   UNL     1       1.024   5.101  -9.565  0.00  0.00    +0.015 A 
ENDBRANCH   1   9
BRANCH   1  15
ATOM     15  C   UNL     1       1.648   5.913  -7.519  0.00  0.00    +0.028 C 
BRANCH  15  16
ATOM     16  C   UNL     1       0.867   6.582  -6.420  0.00  0.00    +0.073 C 
BRANCH  16  18
ATOM     17  C   UNL     1      -1.146   5.453  -6.568  0.00  0.00    +0.090 C 
ATOM     18  N   UNL     1      -0.175   5.739  -5.910  0.00  0.00    -0.270 NA
ATOM     19  C   UNL     1      -0.086   5.466  -4.507  0.00  0.00    +0.090 C 
ENDBRANCH  16  18
ENDBRANCH  15  16
ENDBRANCH   1  15
TORSDOF 5
ENDMDL
MODEL 3
REMARK VINA RESULT:      -6.7      2.920      4.703
REMARK  Name = 
REMARK  5 active torsions:
REMARK  status: ('A' for Active; 'I' for Inactive)
REMARK    1  A    between atoms: N_2  and  C_4
REMARK    2  A    between atoms: C_4  and  C_5
REMARK    3  A    between atoms: C_5  and  C_6
REMARK    4  A    between atoms: C_6  and  C_7
REMARK    5  A    between atoms: C_6  and  C_14
REMARK                            x       y       z     vdW  Elec       q    Type
REMARK                         _______ _______ _______ _____ _____    ______ ____
ROOT
ATOM      1  C   UNL     1       2.999   4.981  -8.261  0.00  0.00    +0.064 C 
ENDROOT
BRANCH   1   2
ATOM      2  C   UNL     1       4.279   5.635  -9.027  0.00  0.00    -0.017 A 
ATOM      3  C   UNL     1       5.500   5.192  -8.597  0.00  0.00    -0.003 A 
ATOM      4  C   UNL     1       6.596   5.640  -9.327  0.00  0.00    +0.011 A 
ATOM      5  C   UNL     1       6.414   6.489 -10.413  0.00  0.00    +0.058 A 
ATOM      6 CL   UNL     1       7.702   6.775 -11.581  0.00  0.00    -0.082 Cl
ATOM      7  C   UNL     1       5.156   7.019 -10.675  0.00  0.00    +0.011 A 
ATOM      8  C   UNL     1       4.038   6.488 -10.041  0.00  0.00    -0.003 A 
ENDBRANCH   1   2
BRANCH   1   9
ATOM      9  C   UNL     1       3.553   5.434  -6.788  0.00  0.00    +0.063 A 
ATOM     10  N   UNL     1       3.226   4.571  -5.813  0.00  0.00    -0.248 NA
ATOM     11  C   UNL     1       3.616   4.925  -4.564  0.00  0.00    +0.098 A 
ATOM     12  C   UNL     1       4.106   6.204  -4.328  0.00  0.00    +0.021 A 
ATOM     13  C   UNL     1       3.714   7.178  -5.239  0.00  0.00    +0.003 A 
ATOM     14  C   UNL     1       3.364   6.772  -6.522  0.00  0.00    +0.015 A 
ENDBRANCH   1   9
BRANCH   1  15
ATOM     15  C   UNL     1       2.094   6.376  -8.404  0.00  0.00    +0.028 C 
BRANCH  15  16
ATOM     16  C   UNL     1       0.704   5.890  -8.715  0.00  0.00    +0.073 C 
BRANCH  16  18
ATOM     17  C   UNL     1       0.293   6.868 -10.770  0.00  0.00    +0.090 C 
ATOM     18  N   UNL     1       0.448   5.859 -10.126  0.00  0.00    -0.270 NA
ATOM     19  C   UNL     1       0.162   4.557 -10.650  0.00  0.00    +0.090 C 
ENDBRANCH  16  18
ENDBRANCH  15  16
ENDBRANCH   1  15
TORSDOF 5
ENDMDL
MODEL 4
REMARK VINA RESULT:      -6.7      2.285      5.095
REMARK  Name = 
REMARK  5 active torsions:
REMARK  status: ('A' for Active; 'I' for Inactive)
REMARK    1  A    between atoms: N_2  and  C_4
REMARK    2  A    between atoms: C_4  and  C_5
REMARK    3  A    between atoms: C_5  and  C_6
REMARK    4  A    between atoms: C_6  and  C_7
REMARK    5  A    between atoms: C_6  and  C_14
REMARK                            x       y       z     vdW  Elec       q    Type
REMARK                         _______ _______ _______ _____ _____    ______ ____
ROOT
ATOM      1  C   UNL     1       3.008   5.083  -7.435  0.00  0.00    +0.064 C 
ENDROOT
BRANCH   1   2
ATOM      2  C   UNL     1       4.121   5.558  -8.525  0.00  0.00    -0.017 A 
ATOM      3  C   UNL     1       3.655   6.399  -9.499  0.00  0.00    -0.003 A 
ATOM      4  C   UNL     1       4.617   6.918 -10.359  0.00  0.00    +0.011 A 
ATOM      5  C   UNL     1       5.954   6.570 -10.206  0.00  0.00    +0.058 A 
ATOM      6 CL   UNL     1       7.236   7.476 -11.008  0.00  0.00    -0.082 Cl
ATOM      7  C   UNL     1       6.313   5.583  -9.296  0.00  0.00    +0.011 A 
ATOM      8  C   UNL     1       5.392   5.150  -8.349  0.00  0.00    -0.003 A 
ENDBRANCH   1   2
BRANCH   1   9
ATOM      9  C   UNL     1       3.921   5.585  -6.172  0.00  0.00    +0.063 A 
ATOM     10  N   UNL     1       3.880   4.745  -5.125  0.00  0.00    -0.248 NA
ATOM     11  C   UNL     1       4.578   5.139  -4.032  0.00  0.00    +0.098 A 
ATOM     12  C   UNL     1       5.087   6.430  -3.963  0.00  0.00    +0.021 A 
ATOM     13  C   UNL     1       4.450   7.374  -4.761  0.00  0.00    +0.003 A 
ATOM     14  C   UNL     1       3.782   6.926  -5.896  0.00  0.00    +0.015 A 
ENDBRANCH   1   9
BRANCH   1  15
ATOM     15  C   UNL     1       2.204   6.544  -7.496  0.00  0.00    +0.028 C 
BRANCH  15  16
ATOM     16  C   UNL     1       0.785   6.175  -7.837  0.00  0.00    +0.073 C 
BRANCH  16  18
ATOM     17  C   UNL     1      -0.915   5.136  -6.662  0.00  0.00    +0.090 C 
ATOM     18  N   UNL     1      -0.004   5.928  -6.664  0.00  0.00    -0.270 NA
ATOM     19  C   UNL     1       0.221   6.849  -5.591  0.00  0.00    +0.090 C 
ENDBRANCH  16  18
ENDBRANCH  15  16
ENDBRANCH   1  15
TORSDOF 5
ENDMDL
MODEL 5
REMARK VINA RESULT:      -6.7      3.086      4.722
REMARK  Name = 
REMARK  5 active torsions:
REMARK  status: ('A' for Active; 'I' for Inactive)
REMARK    1  A    between atoms: N_2  and  C_4
REMARK    2  A    between atoms: C_4  and  C_5
REMARK    3  A    between atoms: C_5  and  C_6
REMARK    4  A    between atoms: C_6  and  C_7
REMARK    5  A    between atoms: C_6  and  C_14
REMARK                            x       y       z     vdW  Elec       q    Type
REMARK                         _______ _______ _______ _____ _____    ______ ____
ROOT
ATOM      1  C   UNL     1       1.458   5.167  -7.769  0.00  0.00    +0.064 C 
ENDROOT
BRANCH   1   2
ATOM      2  C   UNL     1       0.236   5.767  -6.874  0.00  0.00    -0.017 A 
ATOM      3  C   UNL     1      -0.992   5.219  -7.130  0.00  0.00    -0.003 A 
ATOM      4  C   UNL     1      -2.021   5.623  -6.286  0.00  0.00    +0.011 A 
ATOM      5  C   UNL     1      -1.773   6.535  -5.267  0.00  0.00    +0.058 A 
ATOM      6 CL   UNL     1      -2.927   6.787  -3.959  0.00  0.00    -0.082 Cl
ATOM      7  C   UNL     1      -0.536   7.164  -5.186  0.00  0.00    +0.011 A 
ATOM      8  C   UNL     1       0.533   6.683  -5.934  0.00  0.00    -0.003 A 
ENDBRANCH   1   2
BRANCH   1   9
ATOM      9  C   UNL     1       0.659   5.429  -9.174  0.00  0.00    +0.063 A 
ATOM     10  N   UNL     1       0.866   4.465 -10.085  0.00  0.00    -0.248 NA
ATOM     11  C   UNL     1       0.268   4.658 -11.287  0.00  0.00    +0.098 A 
ATOM     12  C   UNL     1      -0.310   5.887 -11.583  0.00  0.00    +0.021 A 
ATOM     13  C   UNL     1       0.176   6.972 -10.863  0.00  0.00    +0.003 A 
ATOM     14  C   UNL     1       0.743   6.729  -9.616  0.00  0.00    +0.015 A 
ENDBRANCH   1   9
BRANCH   1  15
ATOM     15  C   UNL     1       2.220   6.649  -7.871  0.00  0.00    +0.028 C 
BRANCH  15  16
ATOM     16  C   UNL     1       3.655   6.356  -7.523  0.00  0.00    +0.073 C 
BRANCH  16  18
ATOM     17  C   UNL     1       5.231   5.013  -8.553  0.00  0.00    +0.090 C 
ATOM     18  N   UNL     1       4.397   5.880  -8.655  0.00  0.00    -0.270 NA
ATOM     19  C   UNL     1       4.239   6.664  -9.843  0.00  0.00    +0.090 C 
ENDBRANCH  16  18
ENDBRANCH  15  16
ENDBRANCH   1  15
TORSDOF 5
ENDMDL
MODEL 6
REMARK VINA RESULT:      -6.6      2.601      4.614
REMARK  Name = 
REMARK  5 active torsions:
REMARK  status: ('A' for Active; 'I' for Inactive)
REMARK    1  A    between atoms: N_2  and  C_4
REMARK    2  A    between atoms: C_4  and  C_5
REMARK    3  A    between atoms: C_5  and  C_6
REMARK    4  A    between atoms: C_6  and  C_7
REMARK    5  A    between atoms: C_6  and  C_14
REMARK                            x       y       z     vdW  Elec       q    Type
REMARK                         _______ _______ _______ _____ _____    ______ ____
ROOT
ATOM      1  C   UNL     1       1.396   6.623  -7.291  0.00  0.00    +0.064 C 
ENDROOT
BRANCH   1   2
ATOM      2  C   UNL     1       0.048   6.406  -6.401  0.00  0.00    -0.017 A 
ATOM      3  C   UNL     1      -0.860   5.530  -6.931  0.00  0.00    -0.003 A 
ATOM      4  C   UNL     1      -1.953   5.233  -6.124  0.00  0.00    +0.011 A 
ATOM      5  C   UNL     1      -2.078   5.820  -4.870  0.00  0.00    +0.058 A 
ATOM      6 CL   UNL     1      -3.218   5.202  -3.676  0.00  0.00    -0.082 Cl
ATOM      7  C   UNL     1      -1.197   6.822  -4.484  0.00  0.00    +0.011 A 
ATOM      8  C   UNL     1      -0.035   7.039  -5.216  0.00  0.00    -0.003 A 
ENDBRANCH   1   2
BRANCH   1   9
ATOM      9  C   UNL     1       2.376   6.405  -5.997  0.00  0.00    +0.063 A 
ATOM     10  N   UNL     1       3.391   7.283  -5.951  0.00  0.00    -0.248 NA
ATOM     11  C   UNL     1       4.263   7.115  -4.927  0.00  0.00    +0.098 A 
ATOM     12  C   UNL     1       4.202   5.966  -4.146  0.00  0.00    +0.021 A 
ATOM     13  C   UNL     1       3.607   4.861  -4.743  0.00  0.00    +0.003 A 
ATOM     14  C   UNL     1       2.686   5.085  -5.762  0.00  0.00    +0.015 A 
ENDBRANCH   1   9
BRANCH   1  15
ATOM     15  C   UNL     1       1.490   5.006  -7.694  0.00  0.00    +0.028 C 
BRANCH  15  16
ATOM     16  C   UNL     1       1.668   5.003  -9.188  0.00  0.00    +0.073 C 
BRANCH  16  18
ATOM     17  C   UNL     1       3.866   4.296  -9.050  0.00  0.00    +0.090 C 
ATOM     18  N   UNL     1       3.052   5.024  -9.565  0.00  0.00    -0.270 NA
ATOM     19  C   UNL     1       3.421   6.117 -10.414  0.00  0.00    +0.090 C 
ENDBRANCH  16  18
ENDBRANCH  15  16
ENDBRANCH   1  15
TORSDOF 5
ENDMDL
MODEL 7
REMARK VINA RESULT:      -6.5      2.781      5.019
REMARK  Name = 
REMARK  5 active torsions:
REMARK  status: ('A' for Active; 'I' for Inactive)
REMARK    1  A    between atoms: N_2  and  C_4
REMARK    2  A    between atoms: C_4  and  C_5
REMARK    3  A    between atoms: C_5  and  C_6
REMARK    4  A    between atoms: C_6  and  C_7
REMARK    5  A    between atoms: C_6  and  C_14
REMARK                            x       y       z     vdW  Elec       q    Type
REMARK                         _______ _______ _______ _____ _____    ______ ____
ROOT
ATOM      1  C   UNL     1       2.340   7.132  -8.551  0.00  0.00    +0.064 C 
ENDROOT
BRANCH   1   2
ATOM      2  C   UNL     1       3.771   6.518  -9.031  0.00  0.00    -0.017 A 
ATOM      3  C   UNL     1       4.228   6.988 -10.232  0.00  0.00    -0.003 A 
ATOM      4  C   UNL     1       5.507   6.576 -10.594  0.00  0.00    +0.011 A 
ATOM      5  C   UNL     1       6.233   5.733  -9.760  0.00  0.00    +0.058 A 
ATOM      6 CL   UNL     1       7.965   5.492  -9.980  0.00  0.00    -0.082 Cl
ATOM      7  C   UNL     1       5.626   5.174  -8.642  0.00  0.00    +0.011 A 
ATOM      8  C   UNL     1       4.404   5.669  -8.200  0.00  0.00    -0.003 A 
ENDBRANCH   1   2
BRANCH   1   9
ATOM      9  C   UNL     1       1.530   6.396  -9.768  0.00  0.00    +0.063 A 
ATOM     10  N   UNL     1       0.558   7.160 -10.293  0.00  0.00    -0.248 NA
ATOM     11  C   UNL     1      -0.179   6.579 -11.271  0.00  0.00    +0.098 A 
ATOM     12  C   UNL     1      -0.055   5.216 -11.515  0.00  0.00    +0.021 A 
ATOM     13  C   UNL     1       0.422   4.454 -10.455  0.00  0.00    +0.003 A 
ATOM     14  C   UNL     1       1.210   5.084  -9.498  0.00  0.00    +0.015 A 
ENDBRANCH   1   9
BRANCH   1  15
ATOM     15  C   UNL     1       2.045   5.854  -7.518  0.00  0.00    +0.028 C 
BRANCH  15  16
ATOM     16  C   UNL     1       1.685   6.506  -6.210  0.00  0.00    +0.073 C 
BRANCH  16  18
ATOM     17  C   UNL     1       3.442   7.155  -4.853  0.00  0.00    +0.090 C 
ATOM     18  N   UNL     1       2.684   6.284  -5.204  0.00  0.00    -0.270 NA
ATOM     19  C   UNL     1       2.858   4.912  -4.832  0.00  0.00    +0.090 C 
ENDBRANCH  16  18
ENDBRANCH  15  16
ENDBRANCH   1  15
TORSDOF 5
ENDMDL
MODEL 8
REMARK VINA RESULT:      -6.3      2.771      5.780
REMARK  Name = 
REMARK  5 active torsions:
REMARK  status: ('A' for Active; 'I' for Inactive)
REMARK    1  A    between atoms: N_2  and  C_4
REMARK    2  A    between atoms: C_4  and  C_5
REMARK    3  A    between atoms: C_5  and  C_6
REMARK    4  A    between atoms: C_6  and  C_7
REMARK    5  A    between atoms: C_6  and  C_14
REMARK                            x       y       z     vdW  Elec       q    Type
REMARK                         _______ _______ _______ _____ _____    ______ ____
ROOT
ATOM      1  C   UNL     1       1.198   4.687  -5.345  0.00  0.00    +0.064 C 
ENDROOT
BRANCH   1   2
ATOM      2  C   UNL     1       1.142   4.896  -6.960  0.00  0.00    -0.017 A 
ATOM      3  C   UNL     1       2.194   4.356  -7.651  0.00  0.00    -0.003 A 
ATOM      4  C   UNL     1       2.096   4.409  -9.037  0.00  0.00    +0.011 A 
ATOM      5  C   UNL     1       0.985   4.990  -9.639  0.00  0.00    +0.058 A 
ATOM      6 CL   UNL     1       0.637   4.749 -11.350  0.00  0.00    -0.082 Cl
ATOM      7  C   UNL     1       0.047   5.660  -8.863  0.00  0.00    +0.011 A 
ATOM      8  C   UNL     1       0.062   5.508  -7.480  0.00  0.00    -0.003 A 
ENDBRANCH   1   2
BRANCH   1   9
ATOM      9  C   UNL     1       2.689   5.355  -5.235  0.00  0.00    +0.063 A 
ATOM     10  N   UNL     1       3.497   4.703  -4.385  0.00  0.00    -0.248 NA
ATOM     11  C   UNL     1       4.728   5.245  -4.216  0.00  0.00    +0.098 A 
ATOM     12  C   UNL     1       5.005   6.508  -4.724  0.00  0.00    +0.021 A 
ATOM     13  C   UNL     1       3.903   7.331  -4.930  0.00  0.00    +0.003 A 
ATOM     14  C   UNL     1       2.667   6.728  -5.141  0.00  0.00    +0.015 A 
ENDBRANCH   1   9
BRANCH   1  15
ATOM     15  C   UNL     1       0.465   6.157  -5.047  0.00  0.00    +0.028 C 
BRANCH  15  16
ATOM     16  C   UNL     1      -0.466   5.883  -3.897  0.00  0.00    +0.073 C 
BRANCH  16  18
ATOM     17  C   UNL     1      -2.184   7.021  -4.947  0.00  0.00    +0.090 C 
ATOM     18  N   UNL     1      -1.839   6.095  -4.253  0.00  0.00    -0.270 NA
ATOM     19  C   UNL     1      -2.772   5.275  -3.541  0.00  0.00    +0.090 C 
ENDBRANCH  16  18
ENDBRANCH  15  16
ENDBRANCH   1  15
TORSDOF 5
ENDMDL
MODEL 9
REMARK VINA RESULT:      -6.3      2.562      5.284
REMARK  Name = 
REMARK  5 active torsions:
REMARK  status: ('A' for Active; 'I' for Inactive)
REMARK    1  A    between atoms: N_2  and  C_4
REMARK    2  A    between atoms: C_4  and  C_5
REMARK    3  A    between atoms: C_5  and  C_6
REMARK    4  A    between atoms: C_6  and  C_7
REMARK    5  A    between atoms: C_6  and  C_14
REMARK                            x       y       z     vdW  Elec       q    Type
REMARK                         _______ _______ _______ _____ _____    ______ ____
ROOT
ATOM      1  C   UNL     1       2.253   4.165  -6.033  0.00  0.00    +0.064 C 
ENDROOT
BRANCH   1   2
ATOM      2  C   UNL     1       0.802   4.857  -5.764  0.00  0.00    -0.017 A 
ATOM      3  C   UNL     1       0.638   5.391  -4.515  0.00  0.00    -0.003 A 
ATOM      4  C   UNL     1      -0.541   6.100  -4.312  0.00  0.00    +0.011 A 
ATOM      5  C   UNL     1      -1.468   6.225  -5.340  0.00  0.00    +0.058 A 
ATOM      6 CL   UNL     1      -2.773   7.407  -5.261  0.00  0.00    -0.082 Cl
ATOM      7  C   UNL     1      -1.295   5.512  -6.520  0.00  0.00    +0.011 A 
ATOM      8  C   UNL     1      -0.072   4.906  -6.786  0.00  0.00    -0.003 A 
ENDBRANCH   1   2
BRANCH   1   9
ATOM      9  C   UNL     1       2.452   4.956  -7.452  0.00  0.00    +0.063 A 
ATOM     10  N   UNL     1       3.097   4.225  -8.376  0.00  0.00    -0.248 NA
ATOM     11  C   UNL     1       3.335   4.851  -9.555  0.00  0.00    +0.098 A 
ATOM     12  C   UNL     1       3.119   6.220  -9.668  0.00  0.00    +0.021 A 
ATOM     13  C   UNL     1       3.153   6.937  -8.478  0.00  0.00    +0.003 A 
ATOM     14  C   UNL     1       2.860   6.261  -7.298  0.00  0.00    +0.015 A 
ENDBRANCH   1   9
BRANCH   1  15
ATOM     15  C   UNL     1       3.069   5.358  -5.198  0.00  0.00    +0.028 C 
BRANCH  15  16
ATOM     16  C   UNL     1       3.989   4.606  -4.275  0.00  0.00    +0.073 C 
BRANCH  16  18
ATOM     17  C   UNL     1       3.896   4.777  -1.971  0.00  0.00    +0.090 C 
ATOM     18  N   UNL     1       4.177   5.288  -3.027  0.00  0.00    -0.270 NA
ATOM     19  C   UNL     1       4.495   6.679  -3.152  0.00  0.00    +0.090 C 
ENDBRANCH  16  18
ENDBRANCH  15  16
ENDBRANCH   1  15
TORSDOF 5
ENDMDL
