MODEL 1
REMARK VINA RESULT:      -6.8      0.000      0.000
REMARK  Name = 
REMARK  5 active torsions:
REMARK  status: ('A' for Active; 'I' for Inactive)
REMARK    1  A    between atoms: C_2  and  N_3
REMARK    2  A    between atoms: N_3  and  C_4
REMARK    3  A    between atoms: C_6  and  C_8
REMARK    4  A    between atoms: C_8  and  C_9
REMARK    5  A    between atoms: C_16  and  C_17
REMARK                            x       y       z     vdW  Elec       q    Type
REMARK                         _______ _______ _______ _____ _____    ______ ____
ROOT
ATOM      1  C   UNL     1       3.623   5.954  -9.215  0.00  0.00    +0.089 C 
ATOM      2  C   UNL     1       3.772   4.701  -8.107  0.00  0.00    +0.032 C 
ATOM      3  C   UNL     1       3.843   6.308  -7.578  0.00  0.00    +0.015 C 
ENDROOT
BRANCH   1   4
ATOM      4  C   UNL     1       4.914   6.276  -9.825  0.00  0.00    -0.015 A 
ATOM      5  C   UNL     1       5.167   7.362 -10.643  0.00  0.00    -0.004 A 
ATOM      6  C   UNL     1       6.440   7.555 -11.170  0.00  0.00    -0.000 A 
ATOM      7  C   UNL     1       7.435   6.628 -10.901  0.00  0.00    -0.000 A 
ATOM      8  C   UNL     1       7.284   5.875  -9.754  0.00  0.00    -0.000 A 
ATOM      9  C   UNL     1       6.033   5.696  -9.240  0.00  0.00    -0.004 A 
ENDBRANCH   1   4
BRANCH   1  11
ATOM     10  N   UNL     1       1.678   5.835 -10.835  0.00  0.00    -0.279 N 
ATOM     11  C   UNL     1       2.349   6.327  -9.666  0.00  0.00    +0.229 C 
ATOM     12  O   UNL     1       1.822   7.392  -9.216  0.00  0.00    -0.275 OA
BRANCH  10  14
ATOM     13  C   UNL     1       2.435   5.951 -12.712  0.00  0.00    +0.023 C 
ATOM     14  C   UNL     1       2.049   6.487 -12.090  0.00  0.00    +0.093 C 
ENDBRANCH  10  14
BRANCH  10  15
ATOM     15  C   UNL     1       0.238   5.647 -10.665  0.00  0.00    +0.093 C 
ATOM     16  C   UNL     1      -0.059   4.161 -10.815  0.00  0.00    +0.023 C 
ENDBRANCH  10  15
ENDBRANCH   1  11
BRANCH   2  17
ATOM     17  C   UNL     1       2.093   4.560  -7.787  0.00  0.00    +0.110 C 
ATOM     18  N   UNL     1       2.115   3.631  -6.665  0.00  0.00    -0.131 NA
ENDBRANCH   2  17
TORSDOF 5
ENDMDL
MODEL 2
REMARK VINA RESULT:      -6.7      3.613      6.300
REMARK  Name = 
REMARK  5 active torsions:
REMARK  status: ('A' for Active; 'I' for Inactive)
REMARK    1  A    between atoms: C_2  and  N_3
REMARK    2  A    between atoms: N_3  and  C_4
REMARK    3  A    between atoms: C_6  and  C_8
REMARK    4  A    between atoms: C_8  and  C_9
REMARK    5  A    between atoms: C_16  and  C_17
REMARK                            x       y       z     vdW  Elec       q    Type
REMARK                         _______ _______ _______ _____ _____    ______ ____
ROOT
ATOM      1  C   UNL     1       1.262   5.770  -5.759  0.00  0.00    +0.089 C 
ATOM      2  C   UNL     1       2.241   6.729  -4.789  0.00  0.00    +0.032 C 
ATOM      3  C   UNL     1       1.614   5.277  -4.182  0.00  0.00    +0.015 C 
ENDROOT
BRANCH   1   4
ATOM      4  C   UNL     1      -0.134   6.203  -5.692  0.00  0.00    -0.015 A 
ATOM      5  C   UNL     1      -1.221   5.488  -6.164  0.00  0.00    -0.004 A 
ATOM      6  C   UNL     1      -2.503   6.014  -6.048  0.00  0.00    -0.000 A 
ATOM      7  C   UNL     1      -2.674   7.274  -5.496  0.00  0.00    -0.000 A 
ATOM      8  C   UNL     1      -1.682   7.715  -4.643  0.00  0.00    -0.000 A 
ATOM      9  C   UNL     1      -0.429   7.190  -4.759  0.00  0.00    -0.004 A 
ENDBRANCH   1   4
BRANCH   1  11
ATOM     10  N   UNL     1       2.139   5.259  -8.081  0.00  0.00    -0.279 N 
ATOM     11  C   UNL     1       1.850   4.929  -6.714  0.00  0.00    +0.229 C 
ATOM     12  O   UNL     1       1.880   3.677  -6.501  0.00  0.00    -0.275 OA
BRANCH  10  14
ATOM     13  C   UNL     1       0.693   5.903  -9.347  0.00  0.00    +0.023 C 
ATOM     14  C   UNL     1       1.016   5.127  -9.007  0.00  0.00    +0.093 C 
ENDBRANCH  10  14
BRANCH  10  15
ATOM     15  C   UNL     1       3.393   4.697  -8.581  0.00  0.00    +0.093 C 
ATOM     16  C   UNL     1       4.340   5.853  -8.871  0.00  0.00    +0.023 C 
ENDBRANCH  10  15
ENDBRANCH   1  11
BRANCH   2  17
ATOM     17  C   UNL     1       3.719   6.008  -5.279  0.00  0.00    +0.110 C 
ATOM     18  N   UNL     1       4.652   7.085  -4.974  0.00  0.00    -0.131 NA
ENDBRANCH   2  17
TORSDOF 5
ENDMDL
MODEL 3
REMARK VINA RESULT:      -6.7      3.614      7.021
REMARK  Name = 
REMARK  5 active torsions:
REMARK  status: ('A' for Active; 'I' for Inactive)
REMARK    1  A    between atoms: C_2  and  N_3
REMARK    2  A    between atoms: N_3  and  C_4
REMARK    3  A    between atoms: C_6  and  C_8
REMARK    4  A    between atoms: C_8  and  C_9
REMARK    5  A    between atoms: C_16  and  C_17
REMARK                            x       y       z     vdW  Elec       q    Type
REMARK                         _______ _______ _______ _____ _____    ______ ____
ROOT
ATOM      1  C   UNL     1       1.431   6.093  -6.512  0.00  0.00    +0.089 C 
ATOM      2  C   UNL     1       1.544   4.901  -7.690  0.00  0.00    +0.032 C 
ATOM      3  C   UNL     1       1.353   6.521  -8.144  0.00  0.00    +0.015 C 
ENDROOT
BRANCH   1   4
ATOM      4  C   UNL     1       0.054   6.240  -6.040  0.00  0.00    -0.015 A 
ATOM      5  C   UNL     1      -0.428   7.292  -5.281  0.00  0.00    -0.004 A 
ATOM      6  C   UNL     1      -1.761   7.312  -4.886  0.00  0.00    -0.000 A 
ATOM      7  C   UNL     1      -2.587   6.252  -5.226  0.00  0.00    -0.000 A 
ATOM      8  C   UNL     1      -2.219   5.511  -6.332  0.00  0.00    -0.000 A 
ATOM      9  C   UNL     1      -0.911   5.501  -6.716  0.00  0.00    -0.004 A 
ENDBRANCH   1   4
BRANCH   1  11
ATOM     10  N   UNL     1       3.104   6.191  -4.611  0.00  0.00    -0.279 N 
ATOM     11  C   UNL     1       2.599   6.569  -5.900  0.00  0.00    +0.229 C 
ATOM     12  O   UNL     1       3.134   7.635  -6.336  0.00  0.00    -0.275 OA
BRANCH  10  14
ATOM     13  C   UNL     1       2.159   6.366  -2.826  0.00  0.00    +0.023 C 
ATOM     14  C   UNL     1       2.509   6.894  -3.475  0.00  0.00    +0.093 C 
ENDBRANCH  10  14
BRANCH  10  15
ATOM     15  C   UNL     1       4.560   6.081  -4.547  0.00  0.00    +0.093 C 
ATOM     16  C   UNL     1       4.908   4.614  -4.335  0.00  0.00    +0.023 C 
ENDBRANCH  10  15
ENDBRANCH   1  11
BRANCH   2  17
ATOM     17  C   UNL     1       3.254   4.957  -7.820  0.00  0.00    +0.110 C 
ATOM     18  N   UNL     1       3.476   3.922  -8.822  0.00  0.00    -0.131 NA
ENDBRANCH   2  17
TORSDOF 5
ENDMDL
MODEL 4
REMARK VINA RESULT:      -6.6      2.960      5.718
REMARK  Name = 
REMARK  5 active torsions:
REMARK  status: ('A' for Active; 'I' for Inactive)
REMARK    1  A    between atoms: C_2  and  N_3
REMARK    2  A    between atoms: N_3  and  C_4
REMARK    3  A    between atoms: C_6  and  C_8
REMARK    4  A    between atoms: C_8  and  C_9
REMARK    5  A    between atoms: C_16  and  C_17
REMARK                            x       y       z     vdW  Elec       q    Type
REMARK                         _______ _______ _______ _____ _____    ______ ____
ROOT
ATOM      1  C   UNL     1       1.232   5.394  -7.092  0.00  0.00    +0.089 C 
ATOM      2  C   UNL     1       2.397   5.615  -5.903  0.00  0.00    +0.032 C 
ATOM      3  C   UNL     1       1.660   4.102  -6.093  0.00  0.00    +0.015 C 
ENDROOT
BRANCH   1   4
ATOM      4  C   UNL     1      -0.093   5.790  -6.613  0.00  0.00    -0.015 A 
ATOM      5  C   UNL     1      -1.280   5.143  -6.906  0.00  0.00    -0.004 A 
ATOM      6  C   UNL     1      -2.480   5.624  -6.394  0.00  0.00    -0.000 A 
ATOM      7  C   UNL     1      -2.478   6.777  -5.625  0.00  0.00    -0.000 A 
ATOM      8  C   UNL     1      -1.294   7.092  -4.986  0.00  0.00    -0.000 A 
ATOM      9  C   UNL     1      -0.122   6.611  -5.491  0.00  0.00    -0.004 A 
ENDBRANCH   1   4
BRANCH   1  11
ATOM     10  N   UNL     1       1.570   6.139  -9.491  0.00  0.00    -0.279 N 
ATOM     11  C   UNL     1       1.632   5.186  -8.419  0.00  0.00    +0.229 C 
ATOM     12  O   UNL     1       1.793   3.997  -8.837  0.00  0.00    -0.275 OA
BRANCH  10  14
ATOM     13  C   UNL     1       0.229   6.843 -10.838  0.00  0.00    +0.023 C 
ATOM     14  C   UNL     1       0.271   6.250 -10.153  0.00  0.00    +0.093 C 
ENDBRANCH  10  14
BRANCH  10  15
ATOM     15  C   UNL     1       2.704   6.082 -10.411  0.00  0.00    +0.093 C 
ATOM     16  C   UNL     1       3.828   6.921  -9.818  0.00  0.00    +0.023 C 
ENDBRANCH  10  15
ENDBRANCH   1  11
BRANCH   2  17
ATOM     17  C   UNL     1       3.732   5.206  -6.901  0.00  0.00    +0.110 C 
ATOM     18  N   UNL     1       4.809   5.884  -6.190  0.00  0.00    -0.131 NA
ENDBRANCH   2  17
TORSDOF 5
ENDMDL
MODEL 5
REMARK VINA RESULT:      -6.5      1.572      3.661
REMARK  Name = 
REMARK  5 active torsions:
REMARK  status: ('A' for Active; 'I' for Inactive)
REMARK    1  A    between atoms: C_2  and  N_3
REMARK    2  A    between atoms: N_3  and  C_4
REMARK    3  A    between atoms: C_6  and  C_8
REMARK    4  A    between atoms: C_8  and  C_9
REMARK    5  A    between atoms: C_16  and  C_17
REMARK                            x       y       z     vdW  Elec       q    Type
REMARK                         _______ _______ _______ _____ _____    ______ ____
ROOT
ATOM      1  C   UNL     1       3.943   5.740  -9.917  0.00  0.00    +0.089 C 
ATOM      2  C   UNL     1       2.874   6.550 -10.927  0.00  0.00    +0.032 C 
ATOM      3  C   UNL     1       3.610   5.118 -11.452  0.00  0.00    +0.015 C 
ENDROOT
BRANCH   1   4
ATOM      4  C   UNL     1       5.297   6.281 -10.039  0.00  0.00    -0.015 A 
ATOM      5  C   UNL     1       6.450   5.673  -9.574  0.00  0.00    -0.004 A 
ATOM      6  C   UNL     1       7.682   6.295  -9.744  0.00  0.00    -0.000 A 
ATOM      7  C   UNL     1       7.736   7.543 -10.344  0.00  0.00    -0.000 A 
ATOM      8  C   UNL     1       6.690   7.872 -11.184  0.00  0.00    -0.000 A 
ATOM      9  C   UNL     1       5.487   7.253 -11.014  0.00  0.00    -0.004 A 
ENDBRANCH   1   4
BRANCH   1  11
ATOM     10  N   UNL     1       3.097   5.324  -7.565  0.00  0.00    -0.279 N 
ATOM     11  C   UNL     1       3.440   4.919  -8.898  0.00  0.00    +0.229 C 
ATOM     12  O   UNL     1       3.554   3.658  -9.008  0.00  0.00    -0.275 OA
BRANCH  10  14
ATOM     13  C   UNL     1       4.300   6.175  -6.173  0.00  0.00    +0.023 C 
ATOM     14  C   UNL     1       4.216   5.394  -6.626  0.00  0.00    +0.093 C 
ENDBRANCH  10  14
BRANCH  10  15
ATOM     15  C   UNL     1       1.908   4.666  -7.025  0.00  0.00    +0.093 C 
ATOM     16  C   UNL     1       0.824   5.722  -6.863  0.00  0.00    +0.023 C 
ENDBRANCH  10  15
ENDBRANCH   1  11
BRANCH   2  17
ATOM     17  C   UNL     1       1.468   5.744 -10.363  0.00  0.00    +0.110 C 
ATOM     18  N   UNL     1       0.483   6.810 -10.495  0.00  0.00    -0.131 NA
ENDBRANCH   2  17
TORSDOF 5
ENDMDL
MODEL 6
REMARK VINA RESULT:      -6.3      3.563      5.858
REMARK  Name = 
REMARK  5 active torsions:
REMARK  status: ('A' for Active; 'I' for Inactive)
REMARK    1  A    between atoms: C_2  and  N_3
REMARK    2  A    between atoms: N_3  and  C_4
REMARK    3  A    between atoms: C_6  and  C_8
REMARK    4  A    between atoms: C_8  and  C_9
REMARK    5  A    between atoms: C_16  and  C_17
REMARK                            x       y       z     vdW  Elec       q    Type
REMARK                         _______ _______ _______ _____ _____    ______ ____
ROOT
ATOM      1  C   UNL     1       2.357   5.852  -6.005  0.00  0.00    +0.089 C 
ATOM      2  C   UNL     1       2.699   6.764  -7.373  0.00  0.00    +0.032 C 
ATOM      3  C   UNL     1       3.441   5.257  -7.155  0.00  0.00    +0.015 C 
ENDROOT
BRANCH   1   4
ATOM      4  C   UNL     1       3.210   6.244  -4.882  0.00  0.00    -0.015 A 
ATOM      5  C   UNL     1       3.441   5.488  -3.747  0.00  0.00    -0.004 A 
ATOM      6  C   UNL     1       4.269   5.977  -2.742  0.00  0.00    -0.000 A 
ATOM      7  C   UNL     1       4.822   7.241  -2.872  0.00  0.00    -0.000 A 
ATOM      8  C   UNL     1       4.957   7.728  -4.157  0.00  0.00    -0.000 A 
ATOM      9  C   UNL     1       4.146   7.239  -5.138  0.00  0.00    -0.004 A 
ENDBRANCH   1   4
BRANCH   1  11
ATOM     10  N   UNL     1      -0.117   5.558  -5.543  0.00  0.00    -0.279 N 
ATOM     11  C   UNL     1       1.177   5.097  -5.958  0.00  0.00    +0.229 C 
ATOM     12  O   UNL     1       1.253   3.829  -5.988  0.00  0.00    -0.275 OA
BRANCH  10  14
ATOM     13  C   UNL     1      -0.248   6.364  -3.687  0.00  0.00    +0.023 C 
ATOM     14  C   UNL     1      -0.346   5.562  -4.099  0.00  0.00    +0.093 C 
ENDBRANCH  10  14
BRANCH  10  15
ATOM     15  C   UNL     1      -1.227   5.009  -6.320  0.00  0.00    +0.093 C 
ATOM     16  C   UNL     1      -2.342   6.046  -6.338  0.00  0.00    +0.023 C 
ENDBRANCH  10  15
ENDBRANCH   1  11
BRANCH   2  17
ATOM     17  C   UNL     1       1.428   6.117  -8.327  0.00  0.00    +0.110 C 
ATOM     18  N   UNL     1       1.326   7.140  -9.359  0.00  0.00    -0.131 NA
ENDBRANCH   2  17
TORSDOF 5
ENDMDL
MODEL 7
REMARK VINA RESULT:      -6.3      2.317      4.446
REMARK  Name = 
REMARK  5 active torsions:
REMARK  status: ('A' for Active; 'I' for Inactive)
REMARK    1  A    between atoms: C_2  and  N_3
REMARK    2  A    between atoms: N_3  and  C_4
REMARK    3  A    between atoms: C_6  and  C_8
REMARK    4  A    between atoms: C_8  and  C_9
REMARK    5  A    between atoms: C_16  and  C_17
REMARK                            x       y       z     vdW  Elec       q    Type
REMARK                         _______ _______ _______ _____ _____    ______ ____
ROOT
ATOM      1  C   UNL     1       3.662   5.524  -7.856  0.00  0.00    +0.089 C 
ATOM      2  C   UNL     1       4.696   6.253  -8.961  0.00  0.00    +0.032 C 
ATOM      3  C   UNL     1       5.046   4.704  -8.371  0.00  0.00    +0.015 C 
ENDROOT
BRANCH   1   4
ATOM      4  C   UNL     1       3.980   5.932  -6.487  0.00  0.00    -0.015 A 
ATOM      5  C   UNL     1       3.587   7.117  -5.890  0.00  0.00    -0.004 A 
ATOM      6  C   UNL     1       3.962   7.393  -4.579  0.00  0.00    -0.000 A 
ATOM      7  C   UNL     1       4.765   6.493  -3.897  0.00  0.00    -0.000 A 
ATOM      8  C   UNL     1       4.728   5.181  -4.329  0.00  0.00    -0.000 A 
ATOM      9  C   UNL     1       4.353   4.918  -5.613  0.00  0.00    -0.004 A 
ENDBRANCH   1   4
BRANCH   1  11
ATOM     10  N   UNL     1       1.167   5.471  -8.296  0.00  0.00    -0.279 N 
ATOM     11  C   UNL     1       2.488   4.910  -8.313  0.00  0.00    +0.229 C 
ATOM     12  O   UNL     1       2.478   3.652  -8.491  0.00  0.00    -0.275 OA
BRANCH  10  14
ATOM     13  C   UNL     1      -0.451   5.420  -7.076  0.00  0.00    +0.023 C 
ATOM     14  C   UNL     1       0.452   5.348  -7.027  0.00  0.00    +0.093 C 
ENDBRANCH  10  14
BRANCH  10  15
ATOM     15  C   UNL     1       0.360   5.139  -9.469  0.00  0.00    +0.093 C 
ATOM     16  C   UNL     1       0.305   6.372 -10.361  0.00  0.00    +0.023 C 
ENDBRANCH  10  15
ENDBRANCH   1  11
BRANCH   2  17
ATOM     17  C   UNL     1       3.897   5.655 -10.356  0.00  0.00    +0.110 C 
ATOM     18  N   UNL     1       4.218   6.706 -11.314  0.00  0.00    -0.131 NA
ENDBRANCH   2  17
TORSDOF 5
ENDMDL
MODEL 8
REMARK VINA RESULT:      -6.2      2.612      4.387
REMARK  Name = 
REMARK  5 active torsions:
REMARK  status: ('A' for Active; 'I' for Inactive)
REMARK    1  A    between atoms: C_2  and  N_3
REMARK    2  A    between atoms: N_3  and  C_4
REMARK    3  A    between atoms: C_6  and  C_8
REMARK    4  A    between atoms: C_8  and  C_9
REMARK    5  A    between atoms: C_16  and  C_17
REMARK                            x       y       z     vdW  Elec       q    Type
REMARK                         _______ _______ _______ _____ _____    ______ ____
ROOT
ATOM      1  C   UNL     1       1.943   6.237  -6.409  0.00  0.00    +0.089 C 
ATOM      2  C   UNL     1       0.610   5.365  -5.876  0.00  0.00    +0.032 C 
ATOM      3  C   UNL     1       0.759   7.005  -5.480  0.00  0.00    +0.015 C 
ENDROOT
BRANCH   1   4
ATOM      4  C   UNL     1       3.073   6.087  -5.491  0.00  0.00    -0.015 A 
ATOM      5  C   UNL     1       3.622   4.885  -5.083  0.00  0.00    -0.004 A 
ATOM      6  C   UNL     1       4.693   4.874  -4.196  0.00  0.00    -0.000 A 
ATOM      7  C   UNL     1       5.175   6.074  -3.697  0.00  0.00    -0.000 A 
ATOM      8  C   UNL     1       4.938   7.201  -4.460  0.00  0.00    -0.000 A 
ATOM      9  C   UNL     1       3.889   7.201  -5.331  0.00  0.00    -0.004 A 
ENDBRANCH   1   4
BRANCH   1  11
ATOM     10  N   UNL     1       2.519   6.049  -8.869  0.00  0.00    -0.279 N 
ATOM     11  C   UNL     1       1.970   6.719  -7.725  0.00  0.00    +0.229 C 
ATOM     12  O   UNL     1       1.779   7.957  -7.934  0.00  0.00    -0.275 OA
BRANCH  10  14
ATOM     13  C   UNL     1       4.450   5.433  -8.924  0.00  0.00    +0.023 C 
ATOM     14  C   UNL     1       3.964   6.190  -9.042  0.00  0.00    +0.093 C 
ENDBRANCH  10  14
BRANCH  10  15
ATOM     15  C   UNL     1       1.751   6.236 -10.099  0.00  0.00    +0.093 C 
ATOM     16  C   UNL     1       1.082   4.911 -10.436  0.00  0.00    +0.023 C 
ENDBRANCH  10  15
ENDBRANCH   1  11
BRANCH   2  17
ATOM     17  C   UNL     1      -0.358   5.680  -7.258  0.00  0.00    +0.110 C 
ATOM     18  N   UNL     1      -1.588   4.996  -6.880  0.00  0.00    -0.131 NA
ENDBRANCH   2  17
TORSDOF 5
ENDMDL
MODEL 9
REMARK VINA RESULT:      -6.1      3.408      6.068
REMARK  Name = 
REMARK  5 active torsions:
REMARK  status: ('A' for Active; 'I' for Inactive)
REMARK    1  A    between atoms: C_2  and  N_3
REMARK    2  A    between atoms: N_3  and  C_4
REMARK    3  A    between atoms: C_6  and  C_8
REMARK    4  A    between atoms: C_8  and  C_9
REMARK    5  A    between atoms: C_16  and  C_17
REMARK                            x       y       z     vdW  Elec       q    Type
REMARK                         _______ _______ _______ _____ _____    ______ ____
ROOT
ATOM      1  C   UNL     1       1.309   6.554  -6.110  0.00  0.00    +0.089 C 
ATOM      2  C   UNL     1       2.265   6.701  -4.737  0.00  0.00    +0.032 C 
ATOM      3  C   UNL     1       1.969   5.171  -5.399  0.00  0.00    +0.015 C 
ENDROOT
BRANCH   1   4
ATOM      4  C   UNL     1      -0.110   6.490  -5.761  0.00  0.00    -0.015 A 
ATOM      5  C   UNL     1      -0.794   7.423  -5.002  0.00  0.00    -0.004 A 
ATOM      6  C   UNL     1      -2.146   7.244  -4.731  0.00  0.00    -0.000 A 
ATOM      7  C   UNL     1      -2.787   6.105  -5.193  0.00  0.00    -0.000 A 
ATOM      8  C   UNL     1      -2.229   5.484  -6.292  0.00  0.00    -0.000 A 
ATOM      9  C   UNL     1      -0.904   5.670  -6.555  0.00  0.00    -0.004 A 
ENDBRANCH   1   4
BRANCH   1  11
ATOM     10  N   UNL     1       2.100   5.857  -8.415  0.00  0.00    -0.279 N 
ATOM     11  C   UNL     1       1.868   6.813  -7.369  0.00  0.00    +0.229 C 
ATOM     12  O   UNL     1       2.510   7.894  -7.550  0.00  0.00    -0.275 OA
BRANCH  10  14
ATOM     13  C   UNL     1       3.398   4.356  -8.831  0.00  0.00    +0.023 C 
ATOM     14  C   UNL     1       3.335   5.084  -8.292  0.00  0.00    +0.093 C 
ENDBRANCH  10  14
BRANCH  10  15
ATOM     15  C   UNL     1       1.848   6.369  -9.761  0.00  0.00    +0.093 C 
ATOM     16  C   UNL     1       0.355   6.250 -10.034  0.00  0.00    +0.023 C 
ENDBRANCH  10  15
ENDBRANCH   1  11
BRANCH   2  17
ATOM     17  C   UNL     1       3.744   6.897  -5.584  0.00  0.00    +0.110 C 
ATOM     18  N   UNL     1       4.466   7.761  -4.658  0.00  0.00    -0.131 NA
ENDBRANCH   2  17
TORSDOF 5
ENDMDL
