MODEL 1
REMARK VINA RESULT:      -6.9      0.000      0.000
REMARK  Name = 
REMARK  1 active torsions:
REMARK  status: ('A' for Active; 'I' for Inactive)
REMARK    1  A    between atoms: C_6  and  C_8
REMARK                            x       y       z     vdW  Elec       q    Type
REMARK                         _______ _______ _______ _____ _____    ______ ____
ROOT
ATOM      1  C   UNL     1       3.626   4.616  -4.874  0.00  0.00    +0.123 C 
ATOM      2  N   UNL     1       3.074   5.386  -5.879  0.00  0.00    -0.228 N 
ATOM      3  C   UNL     1       2.295   4.933  -6.983  0.00  0.00    +0.235 C 
ATOM      4  O   UNL     1       2.311   3.760  -7.433  0.00  0.00    -0.274 OA
ATOM      5  C   UNL     1       1.460   6.053  -7.462  0.00  0.00    +0.097 C 
ATOM      6  C   UNL     1       1.217   5.995  -8.944  0.00  0.00    +0.014 C 
ATOM      7  C   UNL     1       2.320   7.250  -7.162  0.00  0.00    +0.098 C 
ATOM      8  C   UNL     1       3.231   6.796  -6.067  0.00  0.00    +0.232 C 
ATOM      9  O   UNL     1       3.698   7.625  -5.231  0.00  0.00    -0.274 OA
ENDROOT
BRANCH   5  10
ATOM     10  C   UNL     1       0.212   6.112  -6.673  0.00  0.00    -0.014 A 
ATOM     11  C   UNL     1      -0.875   5.375  -7.074  0.00  0.00    -0.004 A 
ATOM     12  C   UNL     1      -2.050   5.441  -6.375  0.00  0.00    -0.000 A 
ATOM     13  C   UNL     1      -2.191   6.373  -5.367  0.00  0.00    -0.000 A 
ATOM     14  C   UNL     1      -1.086   7.077  -4.909  0.00  0.00    -0.000 A 
ATOM     15  C   UNL     1       0.115   6.957  -5.598  0.00  0.00    -0.004 A 
ENDBRANCH   5  10
TORSDOF 1
ENDMDL
MODEL 2
REMARK VINA RESULT:      -6.7      1.174      3.106
REMARK  Name = 
REMARK  1 active torsions:
REMARK  status: ('A' for Active; 'I' for Inactive)
REMARK    1  A    between atoms: C_6  and  C_8
REMARK                            x       y       z     vdW  Elec       q    Type
REMARK                         _______ _______ _______ _____ _____    ______ ____
ROOT
ATOM      1  C   UNL     1       2.842   6.841  -8.930  0.00  0.00    +0.123 C 
ATOM      2  N   UNL     1       2.609   6.032  -7.836  0.00  0.00    -0.228 N 
ATOM      3  C   UNL     1       2.611   6.416  -6.463  0.00  0.00    +0.235 C 
ATOM      4  O   UNL     1       3.193   7.431  -6.008  0.00  0.00    -0.274 OA
ATOM      5  C   UNL     1       1.791   5.451  -5.702  0.00  0.00    +0.097 C 
ATOM      6  C   UNL     1       2.290   5.255  -4.298  0.00  0.00    +0.014 C 
ATOM      7  C   UNL     1       1.998   4.174  -6.469  0.00  0.00    +0.098 C 
ATOM      8  C   UNL     1       2.391   4.617  -7.842  0.00  0.00    +0.232 C 
ATOM      9  O   UNL     1       2.138   3.893  -8.851  0.00  0.00    -0.274 OA
ENDROOT
BRANCH   5  10
ATOM     10  C   UNL     1       0.371   5.855  -5.760  0.00  0.00    -0.014 A 
ATOM     11  C   UNL     1      -0.059   6.920  -5.007  0.00  0.00    -0.004 A 
ATOM     12  C   UNL     1      -1.377   7.290  -5.021  0.00  0.00    -0.000 A 
ATOM     13  C   UNL     1      -2.300   6.490  -5.664  0.00  0.00    -0.000 A 
ATOM     14  C   UNL     1      -1.875   5.452  -6.480  0.00  0.00    -0.000 A 
ATOM     15  C   UNL     1      -0.525   5.123  -6.496  0.00  0.00    -0.004 A 
ENDBRANCH   5  10
TORSDOF 1
ENDMDL
MODEL 3
REMARK VINA RESULT:      -6.5      3.348      5.755
REMARK  Name = 
REMARK  1 active torsions:
REMARK  status: ('A' for Active; 'I' for Inactive)
REMARK    1  A    between atoms: C_6  and  C_8
REMARK                            x       y       z     vdW  Elec       q    Type
REMARK                         _______ _______ _______ _____ _____    ______ ____
ROOT
ATOM      1  C   UNL     1       0.932   4.288 -10.506  0.00  0.00    +0.123 C 
ATOM      2  N   UNL     1       1.489   5.162  -9.593  0.00  0.00    -0.228 N 
ATOM      3  C   UNL     1       2.394   4.846  -8.538  0.00  0.00    +0.235 C 
ATOM      4  O   UNL     1       2.525   3.706  -8.029  0.00  0.00    -0.274 OA
ATOM      5  C   UNL     1       3.157   6.063  -8.191  0.00  0.00    +0.097 C 
ATOM      6  C   UNL     1       3.523   6.114  -6.734  0.00  0.00    +0.014 C 
ATOM      7  C   UNL     1       2.166   7.159  -8.476  0.00  0.00    +0.098 C 
ATOM      8  C   UNL     1       1.216   6.561  -9.464  0.00  0.00    +0.232 C 
ATOM      9  O   UNL     1       0.607   7.295 -10.298  0.00  0.00    -0.274 OA
ENDROOT
BRANCH   5  10
ATOM     10  C   UNL     1       4.325   6.187  -9.086  0.00  0.00    -0.014 A 
ATOM     11  C   UNL     1       5.469   5.480  -8.805  0.00  0.00    -0.004 A 
ATOM     12  C   UNL     1       6.573   5.606  -9.604  0.00  0.00    -0.000 A 
ATOM     13  C   UNL     1       6.590   6.567 -10.595  0.00  0.00    -0.000 A 
ATOM     14  C   UNL     1       5.425   7.242 -10.932  0.00  0.00    -0.000 A 
ATOM     15  C   UNL     1       4.296   7.061 -10.142  0.00  0.00    -0.004 A 
ENDBRANCH   5  10
TORSDOF 1
ENDMDL
MODEL 4
REMARK VINA RESULT:      -6.5      1.248      1.743
REMARK  Name = 
REMARK  1 active torsions:
REMARK  status: ('A' for Active; 'I' for Inactive)
REMARK    1  A    between atoms: C_6  and  C_8
REMARK                            x       y       z     vdW  Elec       q    Type
REMARK                         _______ _______ _______ _____ _____    ______ ____
ROOT
ATOM      1  C   UNL     1       3.555   4.774  -4.532  0.00  0.00    +0.123 C 
ATOM      2  N   UNL     1       2.664   5.373  -5.401  0.00  0.00    -0.228 N 
ATOM      3  C   UNL     1       1.482   4.800  -5.954  0.00  0.00    +0.235 C 
ATOM      4  O   UNL     1       1.268   3.567  -6.056  0.00  0.00    -0.274 OA
ATOM      5  C   UNL     1       0.563   5.893  -6.337  0.00  0.00    +0.097 C 
ATOM      6  C   UNL     1      -0.274   5.545  -7.535  0.00  0.00    +0.014 C 
ATOM      7  C   UNL     1       1.513   6.996  -6.717  0.00  0.00    +0.098 C 
ATOM      8  C   UNL     1       2.779   6.671  -5.991  0.00  0.00    +0.232 C 
ATOM      9  O   UNL     1       3.580   7.591  -5.649  0.00  0.00    -0.274 OA
ENDROOT
BRANCH   5  10
ATOM     10  C   UNL     1      -0.242   6.295  -5.165  0.00  0.00    -0.014 A 
ATOM     11  C   UNL     1      -0.377   5.427  -4.109  0.00  0.00    -0.004 A 
ATOM     12  C   UNL     1      -1.146   5.768  -3.029  0.00  0.00    -0.000 A 
ATOM     13  C   UNL     1      -1.916   6.913  -3.076  0.00  0.00    -0.000 A 
ATOM     14  C   UNL     1      -1.742   7.828  -4.104  0.00  0.00    -0.000 A 
ATOM     15  C   UNL     1      -0.915   7.490  -5.168  0.00  0.00    -0.004 A 
ENDBRANCH   5  10
TORSDOF 1
ENDMDL
MODEL 5
REMARK VINA RESULT:      -6.4      2.912      5.323
REMARK  Name = 
REMARK  1 active torsions:
REMARK  status: ('A' for Active; 'I' for Inactive)
REMARK    1  A    between atoms: C_6  and  C_8
REMARK                            x       y       z     vdW  Elec       q    Type
REMARK                         _______ _______ _______ _____ _____    ______ ____
ROOT
ATOM      1  C   UNL     1       3.359   7.161  -5.382  0.00  0.00    +0.123 C 
ATOM      2  N   UNL     1       2.906   6.560  -6.540  0.00  0.00    -0.228 N 
ATOM      3  C   UNL     1       2.548   7.202  -7.761  0.00  0.00    +0.235 C 
ATOM      4  O   UNL     1       2.218   8.409  -7.862  0.00  0.00    -0.274 OA
ATOM      5  C   UNL     1       2.675   6.224  -8.862  0.00  0.00    +0.097 C 
ATOM      6  C   UNL     1       1.677   6.465  -9.960  0.00  0.00    +0.014 C 
ATOM      7  C   UNL     1       2.338   4.926  -8.182  0.00  0.00    +0.098 C 
ATOM      8  C   UNL     1       2.627   5.170  -6.736  0.00  0.00    +0.232 C 
ATOM      9  O   UNL     1       2.962   4.215  -5.974  0.00  0.00    -0.274 OA
ENDROOT
BRANCH   5  10
ATOM     10  C   UNL     1       4.071   6.200  -9.344  0.00  0.00    -0.014 A 
ATOM     11  C   UNL     1       4.994   5.412  -8.700  0.00  0.00    -0.004 A 
ATOM     12  C   UNL     1       6.299   5.401  -9.111  0.00  0.00    -0.000 A 
ATOM     13  C   UNL     1       6.720   6.305 -10.066  0.00  0.00    -0.000 A 
ATOM     14  C   UNL     1       5.791   7.059 -10.769  0.00  0.00    -0.000 A 
ATOM     15  C   UNL     1       4.460   7.018 -10.374  0.00  0.00    -0.004 A 
ENDBRANCH   5  10
TORSDOF 1
ENDMDL
MODEL 6
REMARK VINA RESULT:      -6.3      2.022      4.093
REMARK  Name = 
REMARK  1 active torsions:
REMARK  status: ('A' for Active; 'I' for Inactive)
REMARK    1  A    between atoms: C_6  and  C_8
REMARK                            x       y       z     vdW  Elec       q    Type
REMARK                         _______ _______ _______ _____ _____    ______ ____
ROOT
ATOM      1  C   UNL     1       3.854   6.261  -9.035  0.00  0.00    +0.123 C 
ATOM      2  N   UNL     1       2.859   6.232  -8.078  0.00  0.00    -0.228 N 
ATOM      3  C   UNL     1       2.425   5.107  -7.318  0.00  0.00    +0.235 C 
ATOM      4  O   UNL     1       2.594   3.910  -7.657  0.00  0.00    -0.274 OA
ATOM      5  C   UNL     1       1.794   5.594  -6.073  0.00  0.00    +0.097 C 
ATOM      6  C   UNL     1       0.688   4.693  -5.601  0.00  0.00    +0.014 C 
ATOM      7  C   UNL     1       1.196   6.905  -6.504  0.00  0.00    +0.098 C 
ATOM      8  C   UNL     1       1.998   7.311  -7.699  0.00  0.00    +0.232 C 
ATOM      9  O   UNL     1       2.142   8.535  -7.993  0.00  0.00    -0.274 OA
ENDROOT
BRANCH   5  10
ATOM     10  C   UNL     1       2.833   5.820  -5.048  0.00  0.00    -0.014 A 
ATOM     11  C   UNL     1       2.856   7.009  -4.361  0.00  0.00    -0.004 A 
ATOM     12  C   UNL     1       3.831   7.251  -3.431  0.00  0.00    -0.000 A 
ATOM     13  C   UNL     1       4.883   6.367  -3.303  0.00  0.00    -0.000 A 
ATOM     14  C   UNL     1       4.841   5.135  -3.940  0.00  0.00    -0.000 A 
ATOM     15  C   UNL     1       3.814   4.884  -4.842  0.00  0.00    -0.004 A 
ENDBRANCH   5  10
TORSDOF 1
ENDMDL
MODEL 7
REMARK VINA RESULT:      -6.3      2.294      4.326
REMARK  Name = 
REMARK  1 active torsions:
REMARK  status: ('A' for Active; 'I' for Inactive)
REMARK    1  A    between atoms: C_6  and  C_8
REMARK                            x       y       z     vdW  Elec       q    Type
REMARK                         _______ _______ _______ _____ _____    ______ ____
ROOT
ATOM      1  C   UNL     1       0.548   6.234  -6.488  0.00  0.00    +0.123 C 
ATOM      2  N   UNL     1       1.667   6.195  -7.295  0.00  0.00    -0.228 N 
ATOM      3  C   UNL     1       2.357   5.036  -7.757  0.00  0.00    +0.235 C 
ATOM      4  O   UNL     1       2.305   3.909  -7.206  0.00  0.00    -0.274 OA
ATOM      5  C   UNL     1       3.092   5.385  -8.991  0.00  0.00    +0.097 C 
ATOM      6  C   UNL     1       4.368   4.606  -9.139  0.00  0.00    +0.014 C 
ATOM      7  C   UNL     1       3.435   6.832  -8.766  0.00  0.00    +0.098 C 
ATOM      8  C   UNL     1       2.418   7.313  -7.780  0.00  0.00    +0.232 C 
ATOM      9  O   UNL     1       2.067   8.530  -7.757  0.00  0.00    -0.274 OA
ENDROOT
BRANCH   5  10
ATOM     10  C   UNL     1       2.193   5.250 -10.156  0.00  0.00    -0.014 A 
ATOM     11  C   UNL     1       2.511   5.884 -11.331  0.00  0.00    -0.004 A 
ATOM     12  C   UNL     1       1.675   5.798 -12.411  0.00  0.00    -0.000 A 
ATOM     13  C   UNL     1       0.434   5.211 -12.266  0.00  0.00    -0.000 A 
ATOM     14  C   UNL     1       0.125   4.512 -11.108  0.00  0.00    -0.000 A 
ATOM     15  C   UNL     1       1.011   4.564 -10.039  0.00  0.00    -0.004 A 
ENDBRANCH   5  10
TORSDOF 1
ENDMDL
MODEL 8
REMARK VINA RESULT:      -6.1      1.044      1.615
REMARK  Name = 
REMARK  1 active torsions:
REMARK  status: ('A' for Active; 'I' for Inactive)
REMARK    1  A    between atoms: C_6  and  C_8
REMARK                            x       y       z     vdW  Elec       q    Type
REMARK                         _______ _______ _______ _____ _____    ______ ____
ROOT
ATOM      1  C   UNL     1       2.647   4.787  -3.419  0.00  0.00    +0.123 C 
ATOM      2  N   UNL     1       2.434   5.374  -4.651  0.00  0.00    -0.228 N 
ATOM      3  C   UNL     1       1.786   4.796  -5.782  0.00  0.00    +0.235 C 
ATOM      4  O   UNL     1       1.656   3.562  -5.974  0.00  0.00    -0.274 OA
ATOM      5  C   UNL     1       1.273   5.884  -6.639  0.00  0.00    +0.097 C 
ATOM      6  C   UNL     1       1.284   5.519  -8.097  0.00  0.00    +0.014 C 
ATOM      7  C   UNL     1       2.280   6.978  -6.410  0.00  0.00    +0.098 C 
ATOM      8  C   UNL     1       2.885   6.663  -5.080  0.00  0.00    +0.232 C 
ATOM      9  O   UNL     1       3.349   7.586  -4.347  0.00  0.00    -0.274 OA
ENDROOT
BRANCH   5  10
ATOM     10  C   UNL     1      -0.058   6.308  -6.158  0.00  0.00    -0.014 A 
ATOM     11  C   UNL     1      -0.154   7.343  -5.262  0.00  0.00    -0.004 A 
ATOM     12  C   UNL     1      -1.375   7.728  -4.779  0.00  0.00    -0.000 A 
ATOM     13  C   UNL     1      -2.491   6.969  -5.068  0.00  0.00    -0.000 A 
ATOM     14  C   UNL     1      -2.422   5.962  -6.021  0.00  0.00    -0.000 A 
ATOM     15  C   UNL     1      -1.181   5.619  -6.542  0.00  0.00    -0.004 A 
ENDBRANCH   5  10
TORSDOF 1
ENDMDL
MODEL 9
REMARK VINA RESULT:      -6.1      3.436      5.766
REMARK  Name = 
REMARK  1 active torsions:
REMARK  status: ('A' for Active; 'I' for Inactive)
REMARK    1  A    between atoms: C_6  and  C_8
REMARK                            x       y       z     vdW  Elec       q    Type
REMARK                         _______ _______ _______ _____ _____    ______ ____
ROOT
ATOM      1  C   UNL     1       2.009   8.307  -7.821  0.00  0.00    +0.123 C 
ATOM      2  N   UNL     1       2.700   7.113  -7.758  0.00  0.00    -0.228 N 
ATOM      3  C   UNL     1       2.679   6.053  -8.711  0.00  0.00    +0.235 C 
ATOM      4  O   UNL     1       1.758   5.861  -9.542  0.00  0.00    -0.274 OA
ATOM      5  C   UNL     1       3.925   5.270  -8.573  0.00  0.00    +0.097 C 
ATOM      6  C   UNL     1       3.726   3.815  -8.895  0.00  0.00    +0.014 C 
ATOM      7  C   UNL     1       4.229   5.401  -7.106  0.00  0.00    +0.098 C 
ATOM      8  C   UNL     1       3.528   6.654  -6.686  0.00  0.00    +0.232 C 
ATOM      9  O   UNL     1       3.965   7.342  -5.716  0.00  0.00    -0.274 OA
ENDROOT
BRANCH   5  10
ATOM     10  C   UNL     1       4.995   5.898  -9.374  0.00  0.00    -0.014 A 
ATOM     11  C   UNL     1       6.308   5.609  -9.091  0.00  0.00    -0.004 A 
ATOM     12  C   UNL     1       7.315   6.207  -9.800  0.00  0.00    -0.000 A 
ATOM     13  C   UNL     1       7.014   7.222 -10.686  0.00  0.00    -0.000 A 
ATOM     14  C   UNL     1       5.695   7.480 -11.028  0.00  0.00    -0.000 A 
ATOM     15  C   UNL     1       4.684   6.824 -10.336  0.00  0.00    -0.004 A 
ENDBRANCH   5  10
TORSDOF 1
ENDMDL
