MODEL 1
REMARK VINA RESULT:      -8.6      0.000      0.000
REMARK  Name = 
REMARK  10 active torsions:
REMARK  status: ('A' for Active; 'I' for Inactive)
REMARK    1  A    between atoms: C_2  and  N_5
REMARK    2  A    between atoms: N_8  and  C_9
REMARK    3  A    between atoms: C_9  and  C_10
REMARK    4  A    between atoms: C_9  and  C_34
REMARK    5  A    between atoms: C_16  and  C_17
REMARK    6  A    between atoms: N_19  and  C_20
REMARK    7  A    between atoms: C_20  and  C_21
REMARK    8  A    between atoms: C_20  and  C_26
REMARK    9  A    between atoms: C_21  and  C_22
REMARK   10  A    between atoms: C_26  and  C_28
REMARK                            x       y       z     vdW  Elec       q    Type
REMARK                         _______ _______ _______ _____ _____    ______ ____
ROOT
ATOM      1  C   UNL     1       1.039   5.350  -2.493  0.00  0.00    +0.246 C 
ATOM      2  N   UNL     1       1.084   5.743  -3.871  0.00  0.00    -0.272 N 
ATOM      3  C   UNL     1       0.775   4.746  -5.025  0.00  0.00    +0.153 C 
ATOM      4  C   UNL     1      -0.639   5.524  -5.584  0.00  0.00    +0.029 C 
ATOM      5  C   UNL     1      -1.177   6.339  -4.176  0.00  0.00    +0.004 C 
ATOM      6  C   UNL     1      -2.053   7.527  -4.419  0.00  0.00    +0.000 C 
ATOM      7  C   UNL     1      -2.388   5.561  -4.399  0.00  0.00    +0.000 C 
ATOM      8  C   UNL     1      -0.190   7.101  -5.327  0.00  0.00    +0.022 C 
ATOM      9  C   UNL     1       1.235   6.851  -4.557  0.00  0.00    +0.094 C 
ATOM     10  O   UNL     1       0.136   4.836  -1.885  0.00  0.00    -0.273 OA
ENDROOT
BRANCH   3  11
ATOM     11  C   UNL     1       1.770   5.334  -6.159  0.00  0.00    +0.260 C 
ATOM     12  N   UNL     1       1.485   5.912  -7.261  0.00  0.00    -0.198 NA
ATOM     13  O   UNL     1       2.936   4.900  -6.140  0.00  0.00    -0.272 OA
BRANCH  12  14
ATOM     14  C   UNL     1       1.652   5.397  -8.731  0.00  0.00    +0.161 C 
BRANCH  14  15
ATOM     15  C   UNL     1       2.789   6.438  -9.248  0.00  0.00    +0.249 C 
ATOM     16  O   UNL     1       3.178   7.236  -8.328  0.00  0.00    -0.285 OA
BRANCH  15  17
ATOM     17  C   UNL     1       3.926   5.507  -9.454  0.00  0.00    +0.321 C 
ATOM     18  O   UNL     1       3.851   4.281  -9.265  0.00  0.00    -0.263 OA
ATOM     19  N   UNL     1       5.230   6.052  -9.706  0.00  0.00    -0.081 NA
ENDBRANCH  15  17
ENDBRANCH  14  15
BRANCH  14  20
ATOM     20  C   UNL     1       0.426   6.260  -9.404  0.00  0.00    +0.030 C 
BRANCH  20  21
ATOM     21  C   UNL     1      -0.161   5.589 -10.512  0.00  0.00    +0.002 C 
ATOM     22  C   UNL     1       0.500   4.476 -11.254  0.00  0.00    +0.000 C 
ATOM     23  C   UNL     1       0.875   5.463 -12.350  0.00  0.00    +0.000 C 
ATOM     24  C   UNL     1      -0.104   6.457 -11.751  0.00  0.00    +0.000 C 
ENDBRANCH  20  21
ENDBRANCH  14  20
ENDBRANCH  12  14
ENDBRANCH   3  11
BRANCH   1  25
ATOM     25  C   UNL     1       2.074   6.323  -1.721  0.00  0.00    +0.173 C 
BRANCH  25  28
ATOM     26  N   UNL     1       1.268   7.656   1.669  0.00  0.00    -0.191 NA
ATOM     27  C   UNL     1       0.937   7.144   0.386  0.00  0.00    +0.340 C 
ATOM     28  N   UNL     1       1.546   6.045  -0.257  0.00  0.00    -0.180 NA
ATOM     29  O   UNL     1       0.070   7.767  -0.295  0.00  0.00    -0.249 OA
BRANCH  26  31
ATOM     30  C   UNL     1       1.258   9.111   2.153  0.00  0.00    +0.022 C 
ATOM     31  C   UNL     1       1.108   9.083   1.883  0.00  0.00    +0.080 C 
ATOM     32  C   UNL     1      -0.286   9.501   2.196  0.00  0.00    +0.022 C 
ATOM     33  C   UNL     1       1.852   9.943   0.918  0.00  0.00    +0.022 C 
ENDBRANCH  26  31
ENDBRANCH  25  28
BRANCH  25  34
ATOM     34  C   UNL     1       3.216   5.150  -1.583  0.00  0.00    +0.027 C 
ATOM     35  C   UNL     1       2.544   3.944  -1.014  0.00  0.00    +0.002 C 
ATOM     36  C   UNL     1       4.218   5.698  -0.594  0.00  0.00    +0.002 C 
ATOM     37  C   UNL     1       3.782   4.955  -2.946  0.00  0.00    +0.002 C 
ENDBRANCH  25  34
ENDBRANCH   1  25
TORSDOF 10
ENDMDL
MODEL 2
REMARK VINA RESULT:      -8.5      3.395      6.053
REMARK  Name = 
REMARK  10 active torsions:
REMARK  status: ('A' for Active; 'I' for Inactive)
REMARK    1  A    between atoms: C_2  and  N_5
REMARK    2  A    between atoms: N_8  and  C_9
REMARK    3  A    between atoms: C_9  and  C_10
REMARK    4  A    between atoms: C_9  and  C_34
REMARK    5  A    between atoms: C_16  and  C_17
REMARK    6  A    between atoms: N_19  and  C_20
REMARK    7  A    between atoms: C_20  and  C_21
REMARK    8  A    between atoms: C_20  and  C_26
REMARK    9  A    between atoms: C_21  and  C_22
REMARK   10  A    between atoms: C_26  and  C_28
REMARK                            x       y       z     vdW  Elec       q    Type
REMARK                         _______ _______ _______ _____ _____    ______ ____
ROOT
ATOM      1  C   UNL     1       2.392   5.086  -7.604  0.00  0.00    +0.246 C 
ATOM      2  N   UNL     1       2.560   5.782  -8.846  0.00  0.00    -0.272 N 
ATOM      3  C   UNL     1       3.240   5.120 -10.080  0.00  0.00    +0.153 C 
ATOM      4  C   UNL     1       1.859   5.112 -11.085  0.00  0.00    +0.029 C 
ATOM      5  C   UNL     1       0.584   5.101  -9.940  0.00  0.00    +0.004 C 
ATOM      6  C   UNL     1      -0.724   5.632 -10.433  0.00  0.00    +0.000 C 
ATOM      7  C   UNL     1       0.204   3.878 -10.634  0.00  0.00    +0.000 C 
ATOM      8  C   UNL     1       1.177   6.547 -10.604  0.00  0.00    +0.022 C 
ATOM      9  C   UNL     1       2.189   6.925  -9.373  0.00  0.00    +0.094 C 
ATOM     10  O   UNL     1       1.860   4.025  -7.401  0.00  0.00    -0.273 OA
ENDROOT
BRANCH   3  11
ATOM     11  C   UNL     1       3.938   6.426 -10.733  0.00  0.00    +0.260 C 
ATOM     12  N   UNL     1       4.293   6.631 -11.942  0.00  0.00    -0.198 NA
ATOM     13  O   UNL     1       4.499   7.200  -9.937  0.00  0.00    -0.272 OA
BRANCH  12  14
ATOM     14  C   UNL     1       5.730   6.726 -12.558  0.00  0.00    +0.161 C 
BRANCH  14  15
ATOM     15  C   UNL     1       5.450   6.011 -13.992  0.00  0.00    +0.249 C 
ATOM     16  O   UNL     1       4.243   6.159 -14.386  0.00  0.00    -0.285 OA
BRANCH  15  17
ATOM     17  C   UNL     1       6.252   6.886 -14.884  0.00  0.00    +0.321 C 
ATOM     18  O   UNL     1       6.196   8.127 -14.858  0.00  0.00    -0.263 OA
ATOM     19  N   UNL     1       6.995   6.286 -15.956  0.00  0.00    -0.081 NA
ENDBRANCH  15  17
ENDBRANCH  14  15
BRANCH  14  20
ATOM     20  C   UNL     1       6.343   5.353 -11.892  0.00  0.00    +0.030 C 
BRANCH  20  21
ATOM     21  C   UNL     1       7.607   5.571 -11.278  0.00  0.00    +0.002 C 
ATOM     22  C   UNL     1       7.962   5.087  -9.912  0.00  0.00    +0.000 C 
ATOM     23  C   UNL     1       7.725   6.494  -9.380  0.00  0.00    +0.000 C 
ATOM     24  C   UNL     1       7.732   7.005 -10.809  0.00  0.00    +0.000 C 
ENDBRANCH  20  21
ENDBRANCH  14  20
ENDBRANCH  12  14
ENDBRANCH   3  11
BRANCH   1  25
ATOM     25  C   UNL     1       2.374   6.225  -6.457  0.00  0.00    +0.173 C 
BRANCH  25  28
ATOM     26  N   UNL     1      -0.325   5.985  -3.893  0.00  0.00    -0.191 NA
ATOM     27  C   UNL     1       0.287   5.673  -5.137  0.00  0.00    +0.340 C 
ATOM     28  N   UNL     1       1.649   5.369  -5.344  0.00  0.00    -0.180 NA
ATOM     29  O   UNL     1      -0.424   5.750  -6.182  0.00  0.00    -0.249 OA
BRANCH  26  31
ATOM     30  C   UNL     1      -1.423   7.020  -3.620  0.00  0.00    +0.022 C 
ATOM     31  C   UNL     1      -1.444   6.910  -3.910  0.00  0.00    +0.080 C 
ATOM     32  C   UNL     1      -2.779   6.253  -3.956  0.00  0.00    +0.022 C 
ATOM     33  C   UNL     1      -1.260   8.091  -4.801  0.00  0.00    +0.022 C 
ENDBRANCH  26  31
ENDBRANCH  25  28
BRANCH  25  34
ATOM     34  C   UNL     1       3.855   5.801  -5.885  0.00  0.00    +0.027 C 
ATOM     35  C   UNL     1       3.657   4.652  -4.953  0.00  0.00    +0.002 C 
ATOM     36  C   UNL     1       4.336   7.011  -5.118  0.00  0.00    +0.002 C 
ATOM     37  C   UNL     1       4.691   5.490  -7.077  0.00  0.00    +0.002 C 
ENDBRANCH  25  34
ENDBRANCH   1  25
TORSDOF 10
ENDMDL
MODEL 3
REMARK VINA RESULT:      -8.5      2.038      8.571
REMARK  Name = 
REMARK  10 active torsions:
REMARK  status: ('A' for Active; 'I' for Inactive)
REMARK    1  A    between atoms: C_2  and  N_5
REMARK    2  A    between atoms: N_8  and  C_9
REMARK    3  A    between atoms: C_9  and  C_10
REMARK    4  A    between atoms: C_9  and  C_34
REMARK    5  A    between atoms: C_16  and  C_17
REMARK    6  A    between atoms: N_19  and  C_20
REMARK    7  A    between atoms: C_20  and  C_21
REMARK    8  A    between atoms: C_20  and  C_26
REMARK    9  A    between atoms: C_21  and  C_22
REMARK   10  A    between atoms: C_26  and  C_28
REMARK                            x       y       z     vdW  Elec       q    Type
REMARK                         _______ _______ _______ _____ _____    ______ ____
ROOT
ATOM      1  C   UNL     1       2.365   5.061  -7.348  0.00  0.00    +0.246 C 
ATOM      2  N   UNL     1       2.162   5.783  -6.126  0.00  0.00    -0.272 N 
ATOM      3  C   UNL     1       1.465   5.140  -4.892  0.00  0.00    +0.153 C 
ATOM      4  C   UNL     1       2.825   5.173  -3.859  0.00  0.00    +0.029 C 
ATOM      5  C   UNL     1       4.123   5.152  -4.977  0.00  0.00    +0.004 C 
ATOM      6  C   UNL     1       5.415   5.711  -4.469  0.00  0.00    +0.000 C 
ATOM      7  C   UNL     1       4.504   3.951  -4.247  0.00  0.00    +0.000 C 
ATOM      8  C   UNL     1       3.499   6.605  -4.358  0.00  0.00    +0.022 C 
ATOM      9  C   UNL     1       2.507   6.943  -5.618  0.00  0.00    +0.094 C 
ATOM     10  O   UNL     1       2.914   4.003  -7.516  0.00  0.00    -0.273 OA
ENDROOT
BRANCH   3  11
ATOM     11  C   UNL     1       0.737   6.451  -4.283  0.00  0.00    +0.260 C 
ATOM     12  N   UNL     1       0.317   6.662  -3.096  0.00  0.00    -0.198 NA
ATOM     13  O   UNL     1       0.224   7.225  -5.111  0.00  0.00    -0.272 OA
BRANCH  12  14
ATOM     14  C   UNL     1      -1.152   6.765  -2.561  0.00  0.00    +0.161 C 
BRANCH  14  15
ATOM     15  C   UNL     1      -0.936   6.142  -1.075  0.00  0.00    +0.249 C 
ATOM     16  O   UNL     1       0.188   5.544  -0.952  0.00  0.00    -0.285 OA
BRANCH  15  17
ATOM     17  C   UNL     1      -0.792   7.390  -0.284  0.00  0.00    +0.321 C 
ATOM     18  O   UNL     1      -1.562   8.360  -0.388  0.00  0.00    -0.263 OA
ATOM     19  N   UNL     1       0.390   7.574   0.510  0.00  0.00    -0.081 NA
ENDBRANCH  15  17
ENDBRANCH  14  15
BRANCH  14  20
ATOM     20  C   UNL     1      -1.706   5.344  -3.174  0.00  0.00    +0.030 C 
BRANCH  20  21
ATOM     21  C   UNL     1      -2.826   5.527  -4.032  0.00  0.00    +0.002 C 
ATOM     22  C   UNL     1      -2.778   5.347  -5.512  0.00  0.00    +0.000 C 
ATOM     23  C   UNL     1      -2.707   6.860  -5.668  0.00  0.00    +0.000 C 
ATOM     24  C   UNL     1      -3.121   7.001  -4.214  0.00  0.00    +0.000 C 
ENDBRANCH  20  21
ENDBRANCH  14  20
ENDBRANCH  12  14
ENDBRANCH   3  11
BRANCH   1  25
ATOM     25  C   UNL     1       2.392   6.174  -8.520  0.00  0.00    +0.173 C 
BRANCH  25  28
ATOM     26  N   UNL     1       5.319   5.968 -10.824  0.00  0.00    -0.191 NA
ATOM     27  C   UNL     1       4.595   5.642  -9.646  0.00  0.00    +0.340 C 
ATOM     28  N   UNL     1       3.220   5.332  -9.569  0.00  0.00    -0.180 NA
ATOM     29  O   UNL     1       5.205   5.709  -8.538  0.00  0.00    -0.249 OA
BRANCH  26  31
ATOM     30  C   UNL     1       6.378   6.995 -10.403  0.00  0.00    +0.022 C 
ATOM     31  C   UNL     1       6.428   6.897 -10.694  0.00  0.00    +0.080 C 
ATOM     32  C   UNL     1       6.296   8.126 -11.523  0.00  0.00    +0.022 C 
ATOM     33  C   UNL     1       7.774   6.257 -10.675  0.00  0.00    +0.022 C 
ENDBRANCH  26  31
ENDBRANCH  25  28
BRANCH  25  34
ATOM     34  C   UNL     1       0.968   5.664  -9.164  0.00  0.00    +0.027 C 
ATOM     35  C   UNL     1       1.237   4.370  -9.858  0.00  0.00    +0.002 C 
ATOM     36  C   UNL     1       0.596   6.725 -10.172  0.00  0.00    +0.002 C 
ATOM     37  C   UNL     1       0.008   5.567  -8.030  0.00  0.00    +0.002 C 
ENDBRANCH  25  34
ENDBRANCH   1  25
TORSDOF 10
ENDMDL
MODEL 4
REMARK VINA RESULT:      -8.3      1.384      2.338
REMARK  Name = 
REMARK  10 active torsions:
REMARK  status: ('A' for Active; 'I' for Inactive)
REMARK    1  A    between atoms: C_2  and  N_5
REMARK    2  A    between atoms: N_8  and  C_9
REMARK    3  A    between atoms: C_9  and  C_10
REMARK    4  A    between atoms: C_9  and  C_34
REMARK    5  A    between atoms: C_16  and  C_17
REMARK    6  A    between atoms: N_19  and  C_20
REMARK    7  A    between atoms: C_20  and  C_21
REMARK    8  A    between atoms: C_20  and  C_26
REMARK    9  A    between atoms: C_21  and  C_22
REMARK   10  A    between atoms: C_26  and  C_28
REMARK                            x       y       z     vdW  Elec       q    Type
REMARK                         _______ _______ _______ _____ _____    ______ ____
ROOT
ATOM      1  C   UNL     1       1.024   5.360  -2.666  0.00  0.00    +0.246 C 
ATOM      2  N   UNL     1       0.865   5.982  -3.948  0.00  0.00    -0.272 N 
ATOM      3  C   UNL     1       0.648   5.154  -5.248  0.00  0.00    +0.153 C 
ATOM      4  C   UNL     1      -0.935   5.708  -5.571  0.00  0.00    +0.029 C 
ATOM      5  C   UNL     1      -1.487   6.143  -4.009  0.00  0.00    +0.004 C 
ATOM      6  C   UNL     1      -2.594   7.150  -3.978  0.00  0.00    +0.000 C 
ATOM      7  C   UNL     1      -2.542   5.183  -4.303  0.00  0.00    +0.000 C 
ATOM      8  C   UNL     1      -0.775   7.277  -5.053  0.00  0.00    +0.022 C 
ATOM      9  C   UNL     1       0.736   7.198  -4.425  0.00  0.00    +0.094 C 
ATOM     10  O   UNL     1       0.297   4.575  -2.114  0.00  0.00    -0.273 OA
ENDROOT
BRANCH   3  11
ATOM     11  C   UNL     1       1.402   6.118  -6.308  0.00  0.00    +0.260 C 
ATOM     12  N   UNL     1       1.121   6.345  -7.532  0.00  0.00    -0.198 NA
ATOM     13  O   UNL     1       2.572   6.430  -6.025  0.00  0.00    -0.272 OA
BRANCH  12  14
ATOM     14  C   UNL     1       1.884   5.910  -8.828  0.00  0.00    +0.161 C 
BRANCH  14  15
ATOM     15  C   UNL     1       0.676   5.141  -9.600  0.00  0.00    +0.249 C 
ATOM     16  O   UNL     1      -0.461   5.338  -9.049  0.00  0.00    -0.285 OA
BRANCH  15  17
ATOM     17  C   UNL     1       0.630   5.922 -10.862  0.00  0.00    +0.321 C 
ATOM     18  O   UNL     1       1.160   5.546 -11.921  0.00  0.00    -0.263 OA
ATOM     19  N   UNL     1       0.110   7.260 -10.829  0.00  0.00    -0.081 NA
ENDBRANCH  15  17
ENDBRANCH  14  15
BRANCH  14  20
ATOM     20  C   UNL     1       2.522   4.511  -8.245  0.00  0.00    +0.030 C 
BRANCH  20  21
ATOM     21  C   UNL     1       3.863   4.311  -8.674  0.00  0.00    +0.002 C 
ATOM     22  C   UNL     1       5.039   5.012  -8.082  0.00  0.00    +0.000 C 
ATOM     23  C   UNL     1       5.046   5.956  -9.276  0.00  0.00    +0.000 C 
ATOM     24  C   UNL     1       4.108   5.005  -9.998  0.00  0.00    +0.000 C 
ENDBRANCH  20  21
ENDBRANCH  14  20
ENDBRANCH  12  14
ENDBRANCH   3  11
BRANCH   1  25
ATOM     25  C   UNL     1       1.920   6.379  -1.787  0.00  0.00    +0.173 C 
BRANCH  25  28
ATOM     26  N   UNL     1       0.794   7.408   1.617  0.00  0.00    -0.191 NA
ATOM     27  C   UNL     1       0.590   6.934   0.294  0.00  0.00    +0.340 C 
ATOM     28  N   UNL     1       1.362   5.956  -0.371  0.00  0.00    -0.180 NA
ATOM     29  O   UNL     1      -0.314   7.485  -0.401  0.00  0.00    -0.249 OA
BRANCH  26  31
ATOM     30  C   UNL     1       0.566   8.816   2.180  0.00  0.00    +0.022 C 
ATOM     31  C   UNL     1       0.448   8.791   1.894  0.00  0.00    +0.080 C 
ATOM     32  C   UNL     1      -1.010   9.030   2.081  0.00  0.00    +0.022 C 
ATOM     33  C   UNL     1       1.178   9.792   1.065  0.00  0.00    +0.022 C 
ENDBRANCH  26  31
ENDBRANCH  25  28
BRANCH  25  34
ATOM     34  C   UNL     1       3.170   5.319  -1.664  0.00  0.00    +0.027 C 
ATOM     35  C   UNL     1       2.644   4.094  -0.993  0.00  0.00    +0.002 C 
ATOM     36  C   UNL     1       4.175   6.007  -0.771  0.00  0.00    +0.002 C 
ATOM     37  C   UNL     1       3.668   5.098  -3.049  0.00  0.00    +0.002 C 
ENDBRANCH  25  34
ENDBRANCH   1  25
TORSDOF 10
ENDMDL
MODEL 5
REMARK VINA RESULT:      -7.8      3.860     11.427
REMARK  Name = 
REMARK  10 active torsions:
REMARK  status: ('A' for Active; 'I' for Inactive)
REMARK    1  A    between atoms: C_2  and  N_5
REMARK    2  A    between atoms: N_8  and  C_9
REMARK    3  A    between atoms: C_9  and  C_10
REMARK    4  A    between atoms: C_9  and  C_34
REMARK    5  A    between atoms: C_16  and  C_17
REMARK    6  A    between atoms: N_19  and  C_20
REMARK    7  A    between atoms: C_20  and  C_21
REMARK    8  A    between atoms: C_20  and  C_26
REMARK    9  A    between atoms: C_21  and  C_22
REMARK   10  A    between atoms: C_26  and  C_28
REMARK                            x       y       z     vdW  Elec       q    Type
REMARK                         _______ _______ _______ _____ _____    ______ ____
ROOT
ATOM      1  C   UNL     1       4.148   5.368 -12.785  0.00  0.00    +0.246 C 
ATOM      2  N   UNL     1       4.155   5.892 -11.451  0.00  0.00    -0.272 N 
ATOM      3  C   UNL     1       4.303   4.972 -10.203  0.00  0.00    +0.153 C 
ATOM      4  C   UNL     1       5.815   5.580  -9.690  0.00  0.00    +0.029 C 
ATOM      5  C   UNL     1       6.478   6.169 -11.156  0.00  0.00    +0.004 C 
ATOM      6  C   UNL     1       7.522   7.231 -11.006  0.00  0.00    +0.000 C 
ATOM      7  C   UNL     1       7.557   5.244 -10.838  0.00  0.00    +0.000 C 
ATOM      8  C   UNL     1       5.610   7.175 -10.100  0.00  0.00    +0.022 C 
ATOM      9  C   UNL     1       4.169   7.070 -10.872  0.00  0.00    +0.094 C 
ATOM     10  O   UNL     1       4.968   4.670 -13.325  0.00  0.00    -0.273 OA
ENDROOT
BRANCH   3  11
ATOM     11  C   UNL     1       3.401   5.806  -9.148  0.00  0.00    +0.260 C 
ATOM     12  N   UNL     1       3.717   6.255  -7.996  0.00  0.00    -0.198 NA
ATOM     13  O   UNL     1       2.170   5.734  -9.307  0.00  0.00    -0.272 OA
BRANCH  12  14
ATOM     14  C   UNL     1       3.245   5.786  -6.578  0.00  0.00    +0.161 C 
BRANCH  14  15
ATOM     15  C   UNL     1       2.394   7.099  -6.134  0.00  0.00    +0.249 C 
ATOM     16  O   UNL     1       2.201   7.909  -7.105  0.00  0.00    -0.285 OA
BRANCH  15  17
ATOM     17  C   UNL     1       1.068   6.482  -5.882  0.00  0.00    +0.321 C 
ATOM     18  O   UNL     1       0.145   7.061  -5.285  0.00  0.00    -0.263 OA
ATOM     19  N   UNL     1       0.886   5.088  -6.173  0.00  0.00    -0.081 NA
ENDBRANCH  15  17
ENDBRANCH  14  15
BRANCH  14  20
ATOM     20  C   UNL     1       4.578   6.254  -5.739  0.00  0.00    +0.030 C 
BRANCH  20  21
ATOM     21  C   UNL     1       4.823   5.424  -4.610  0.00  0.00    +0.002 C 
ATOM     22  C   UNL     1       3.826   4.467  -4.050  0.00  0.00    +0.000 C 
ATOM     23  C   UNL     1       3.517   5.473  -2.949  0.00  0.00    +0.000 C 
ATOM     24  C   UNL     1       4.773   6.235  -3.332  0.00  0.00    +0.000 C 
ENDBRANCH  20  21
ENDBRANCH  14  20
ENDBRANCH  12  14
ENDBRANCH   3  11
BRANCH   1  25
ATOM     25  C   UNL     1       3.277   6.408 -13.664  0.00  0.00    +0.173 C 
BRANCH  25  28
ATOM     26  N   UNL     1       4.301   7.360 -17.122  0.00  0.00    -0.191 NA
ATOM     27  C   UNL     1       4.545   6.925 -15.792  0.00  0.00    +0.340 C 
ATOM     28  N   UNL     1       3.806   5.955 -15.082  0.00  0.00    -0.180 NA
ATOM     29  O   UNL     1       5.457   7.509 -15.136  0.00  0.00    -0.249 OA
BRANCH  26  31
ATOM     30  C   UNL     1       4.541   8.741 -17.746  0.00  0.00    +0.022 C 
ATOM     31  C   UNL     1       4.618   8.740 -17.445  0.00  0.00    +0.080 C 
ATOM     32  C   UNL     1       6.075   9.048 -17.443  0.00  0.00    +0.022 C 
ATOM     33  C   UNL     1       3.731   9.749 -16.799  0.00  0.00    +0.022 C 
ENDBRANCH  26  31
ENDBRANCH  25  28
BRANCH  25  34
ATOM     34  C   UNL     1       1.992   5.388 -13.765  0.00  0.00    +0.027 C 
ATOM     35  C   UNL     1       2.518   4.058 -14.194  0.00  0.00    +0.002 C 
ATOM     36  C   UNL     1       1.116   5.971 -14.848  0.00  0.00    +0.002 C 
ATOM     37  C   UNL     1       1.349   5.391 -12.422  0.00  0.00    +0.002 C 
ENDBRANCH  25  34
ENDBRANCH   1  25
TORSDOF 10
ENDMDL
MODEL 6
REMARK VINA RESULT:      -7.5      3.889     11.247
REMARK  Name = 
REMARK  10 active torsions:
REMARK  status: ('A' for Active; 'I' for Inactive)
REMARK    1  A    between atoms: C_2  and  N_5
REMARK    2  A    between atoms: N_8  and  C_9
REMARK    3  A    between atoms: C_9  and  C_10
REMARK    4  A    between atoms: C_9  and  C_34
REMARK    5  A    between atoms: C_16  and  C_17
REMARK    6  A    between atoms: N_19  and  C_20
REMARK    7  A    between atoms: C_20  and  C_21
REMARK    8  A    between atoms: C_20  and  C_26
REMARK    9  A    between atoms: C_21  and  C_22
REMARK   10  A    between atoms: C_26  and  C_28
REMARK                            x       y       z     vdW  Elec       q    Type
REMARK                         _______ _______ _______ _____ _____    ______ ____
ROOT
ATOM      1  C   UNL     1       4.191   5.422 -12.642  0.00  0.00    +0.246 C 
ATOM      2  N   UNL     1       4.439   6.078 -11.392  0.00  0.00    -0.272 N 
ATOM      3  C   UNL     1       4.578   5.288 -10.057  0.00  0.00    +0.153 C 
ATOM      4  C   UNL     1       6.219   5.667  -9.774  0.00  0.00    +0.029 C 
ATOM      5  C   UNL     1       6.795   5.966 -11.359  0.00  0.00    +0.004 C 
ATOM      6  C   UNL     1       8.010   6.835 -11.446  0.00  0.00    +0.000 C 
ATOM      7  C   UNL     1       7.735   4.903 -11.032  0.00  0.00    +0.000 C 
ATOM      8  C   UNL     1       6.234   7.220 -10.361  0.00  0.00    +0.022 C 
ATOM      9  C   UNL     1       4.716   7.290 -10.972  0.00  0.00    +0.094 C 
ATOM     10  O   UNL     1       4.814   4.535 -13.165  0.00  0.00    -0.273 OA
ENDROOT
BRANCH   3  11
ATOM     11  C   UNL     1       3.956   6.379  -9.036  0.00  0.00    +0.260 C 
ATOM     12  N   UNL     1       4.100   6.472  -7.771  0.00  0.00    -0.198 NA
ATOM     13  O   UNL     1       2.966   7.010  -9.447  0.00  0.00    -0.272 OA
BRANCH  12  14
ATOM     14  C   UNL     1       3.063   6.211  -6.626  0.00  0.00    +0.161 C 
BRANCH  14  15
ATOM     15  C   UNL     1       4.084   5.774  -5.439  0.00  0.00    +0.249 C 
ATOM     16  O   UNL     1       5.069   6.581  -5.318  0.00  0.00    -0.285 OA
BRANCH  15  17
ATOM     17  C   UNL     1       3.233   6.031  -4.250  0.00  0.00    +0.321 C 
ATOM     18  O   UNL     1       2.447   6.989  -4.164  0.00  0.00    -0.263 OA
ATOM     19  N   UNL     1       3.449   5.252  -3.063  0.00  0.00    -0.081 NA
ENDBRANCH  15  17
ENDBRANCH  14  15
BRANCH  14  20
ATOM     20  C   UNL     1       2.702   4.654  -7.012  0.00  0.00    +0.030 C 
BRANCH  20  21
ATOM     21  C   UNL     1       1.311   4.464  -7.237  0.00  0.00    +0.002 C 
ATOM     22  C   UNL     1       0.412   5.503  -7.818  0.00  0.00    +0.000 C 
ATOM     23  C   UNL     1      -0.095   5.812  -6.416  0.00  0.00    +0.000 C 
ATOM     24  C   UNL     1       0.547   4.525  -5.931  0.00  0.00    +0.000 C 
ENDBRANCH  20  21
ENDBRANCH  14  20
ENDBRANCH  12  14
ENDBRANCH   3  11
BRANCH   1  25
ATOM     25  C   UNL     1       3.407   6.499 -13.558  0.00  0.00    +0.173 C 
BRANCH  25  28
ATOM     26  N   UNL     1       4.453   7.245 -17.061  0.00  0.00    -0.191 NA
ATOM     27  C   UNL     1       4.684   6.854 -15.715  0.00  0.00    +0.340 C 
ATOM     28  N   UNL     1       3.898   5.957 -14.959  0.00  0.00    -0.180 NA
ATOM     29  O   UNL     1       5.632   7.414 -15.089  0.00  0.00    -0.249 OA
BRANCH  26  31
ATOM     30  C   UNL     1       4.774   8.578 -17.747  0.00  0.00    +0.022 C 
ATOM     31  C   UNL     1       4.843   8.590 -17.445  0.00  0.00    +0.080 C 
ATOM     32  C   UNL     1       6.312   8.830 -17.417  0.00  0.00    +0.022 C 
ATOM     33  C   UNL     1       3.988   9.670 -16.876  0.00  0.00    +0.022 C 
ENDBRANCH  26  31
ENDBRANCH  25  28
BRANCH  25  34
ATOM     34  C   UNL     1       2.044   5.584 -13.629  0.00  0.00    +0.027 C 
ATOM     35  C   UNL     1       2.432   4.258 -14.194  0.00  0.00    +0.002 C 
ATOM     36  C   UNL     1       1.137   6.312 -14.593  0.00  0.00    +0.002 C 
ATOM     37  C   UNL     1       1.504   5.529 -12.243  0.00  0.00    +0.002 C 
ENDBRANCH  25  34
ENDBRANCH   1  25
TORSDOF 10
ENDMDL
MODEL 7
REMARK VINA RESULT:      -7.0      2.033      9.383
REMARK  Name = 
REMARK  10 active torsions:
REMARK  status: ('A' for Active; 'I' for Inactive)
REMARK    1  A    between atoms: C_2  and  N_5
REMARK    2  A    between atoms: N_8  and  C_9
REMARK    3  A    between atoms: C_9  and  C_10
REMARK    4  A    between atoms: C_9  and  C_34
REMARK    5  A    between atoms: C_16  and  C_17
REMARK    6  A    between atoms: N_19  and  C_20
REMARK    7  A    between atoms: C_20  and  C_21
REMARK    8  A    between atoms: C_20  and  C_26
REMARK    9  A    between atoms: C_21  and  C_22
REMARK   10  A    between atoms: C_26  and  C_28
REMARK                            x       y       z     vdW  Elec       q    Type
REMARK                         _______ _______ _______ _____ _____    ______ ____
ROOT
ATOM      1  C   UNL     1       1.012   5.313  -4.872  0.00  0.00    +0.246 C 
ATOM      2  N   UNL     1       1.690   6.072  -3.862  0.00  0.00    -0.272 N 
ATOM      3  C   UNL     1       2.007   5.480  -2.457  0.00  0.00    +0.153 C 
ATOM      4  C   UNL     1       3.708   5.503  -2.614  0.00  0.00    +0.029 C 
ATOM      5  C   UNL     1       3.910   5.418  -4.314  0.00  0.00    +0.004 C 
ATOM      6  C   UNL     1       5.207   5.955  -4.832  0.00  0.00    +0.000 C 
ATOM      7  C   UNL     1       4.681   4.226  -3.988  0.00  0.00    +0.000 C 
ATOM      8  C   UNL     1       3.872   6.903  -3.491  0.00  0.00    +0.022 C 
ATOM      9  C   UNL     1       2.291   7.234  -3.763  0.00  0.00    +0.094 C 
ATOM     10  O   UNL     1       1.301   4.236  -5.326  0.00  0.00    -0.273 OA
ENDROOT
BRANCH   3  11
ATOM     11  C   UNL     1       1.885   6.827  -1.566  0.00  0.00    +0.260 C 
ATOM     12  N   UNL     1       2.796   7.463  -0.937  0.00  0.00    -0.198 NA
ATOM     13  O   UNL     1       0.744   7.112  -1.163  0.00  0.00    -0.272 OA
BRANCH  12  14
ATOM     14  C   UNL     1       3.034   7.600   0.605  0.00  0.00    +0.161 C 
BRANCH  14  15
ATOM     15  C   UNL     1       2.881   9.212   0.753  0.00  0.00    +0.249 C 
ATOM     16  O   UNL     1       2.831   9.806  -0.379  0.00  0.00    -0.285 OA
BRANCH  15  17
ATOM     17  C   UNL     1       1.501   9.299   1.291  0.00  0.00    +0.321 C 
ATOM     18  O   UNL     1       0.646  10.091   0.860  0.00  0.00    -0.263 OA
ATOM     19  N   UNL     1       1.176   8.570   2.485  0.00  0.00    -0.081 NA
ENDBRANCH  15  17
ENDBRANCH  14  15
BRANCH  14  20
ATOM     20  C   UNL     1       4.676   7.668   0.566  0.00  0.00    +0.030 C 
BRANCH  20  21
ATOM     21  C   UNL     1       5.261   7.247   1.791  0.00  0.00    +0.002 C 
ATOM     22  C   UNL     1       4.633   7.456   3.128  0.00  0.00    +0.000 C 
ATOM     23  C   UNL     1       5.570   8.634   3.356  0.00  0.00    +0.000 C 
ATOM     24  C   UNL     1       6.403   8.163   2.179  0.00  0.00    +0.000 C 
ENDBRANCH  20  21
ENDBRANCH  14  20
ENDBRANCH  12  14
ENDBRANCH   3  11
BRANCH   1  25
ATOM     25  C   UNL     1       0.243   6.394  -5.796  0.00  0.00    +0.173 C 
BRANCH  25  28
ATOM     26  N   UNL     1      -0.140   5.741  -9.448  0.00  0.00    -0.191 NA
ATOM     27  C   UNL     1       0.478   5.578  -8.180  0.00  0.00    +0.340 C 
ATOM     28  N   UNL     1      -0.183   5.398  -6.946  0.00  0.00    -0.180 NA
ATOM     29  O   UNL     1       1.739   5.683  -8.117  0.00  0.00    -0.249 OA
BRANCH  26  31
ATOM     30  C   UNL     1       0.664   6.786 -10.232  0.00  0.00    +0.022 C 
ATOM     31  C   UNL     1       0.540   6.575 -10.423  0.00  0.00    +0.080 C 
ATOM     32  C   UNL     1      -0.373   7.367 -11.293  0.00  0.00    +0.022 C 
ATOM     33  C   UNL     1       1.693   5.920 -11.104  0.00  0.00    +0.022 C 
ENDBRANCH  26  31
ENDBRANCH  25  28
BRANCH  25  34
ATOM     34  C   UNL     1      -1.187   6.180  -5.016  0.00  0.00    +0.027 C 
ATOM     35  C   UNL     1      -2.138   5.576  -5.995  0.00  0.00    +0.002 C 
ATOM     36  C   UNL     1      -1.640   7.573  -4.647  0.00  0.00    +0.002 C 
ATOM     37  C   UNL     1      -0.895   5.325  -3.833  0.00  0.00    +0.002 C 
ENDBRANCH  25  34
ENDBRANCH   1  25
TORSDOF 10
ENDMDL
MODEL 8
REMARK VINA RESULT:      -6.8      1.824      3.532
REMARK  Name = 
REMARK  10 active torsions:
REMARK  status: ('A' for Active; 'I' for Inactive)
REMARK    1  A    between atoms: C_2  and  N_5
REMARK    2  A    between atoms: N_8  and  C_9
REMARK    3  A    between atoms: C_9  and  C_10
REMARK    4  A    between atoms: C_9  and  C_34
REMARK    5  A    between atoms: C_16  and  C_17
REMARK    6  A    between atoms: N_19  and  C_20
REMARK    7  A    between atoms: C_20  and  C_21
REMARK    8  A    between atoms: C_20  and  C_26
REMARK    9  A    between atoms: C_21  and  C_22
REMARK   10  A    between atoms: C_26  and  C_28
REMARK                            x       y       z     vdW  Elec       q    Type
REMARK                         _______ _______ _______ _____ _____    ______ ____
ROOT
ATOM      1  C   UNL     1       0.752   5.335  -2.216  0.00  0.00    +0.246 C 
ATOM      2  N   UNL     1       0.629   5.712  -3.594  0.00  0.00    -0.272 N 
ATOM      3  C   UNL     1       0.058   4.742  -4.669  0.00  0.00    +0.153 C 
ATOM      4  C   UNL     1      -1.342   5.652  -5.029  0.00  0.00    +0.029 C 
ATOM      5  C   UNL     1      -1.584   6.526  -3.575  0.00  0.00    +0.004 C 
ATOM      6  C   UNL     1      -2.368   7.793  -3.712  0.00  0.00    +0.000 C 
ATOM      7  C   UNL     1      -2.885   5.870  -3.601  0.00  0.00    +0.000 C 
ATOM      8  C   UNL     1      -0.710   7.179  -4.875  0.00  0.00    +0.022 C 
ATOM      9  C   UNL     1       0.782   6.795  -4.318  0.00  0.00    +0.094 C 
ATOM     10  O   UNL     1      -0.097   4.916  -1.471  0.00  0.00    -0.273 OA
ENDROOT
BRANCH   3  11
ATOM     11  C   UNL     1       0.925   5.222  -5.949  0.00  0.00    +0.260 C 
ATOM     12  N   UNL     1       2.181   5.432  -6.039  0.00  0.00    -0.198 NA
ATOM     13  O   UNL     1       0.287   5.767  -6.867  0.00  0.00    -0.272 OA
BRANCH  12  14
ATOM     14  C   UNL     1       2.957   6.783  -6.201  0.00  0.00    +0.161 C 
BRANCH  14  15
ATOM     15  C   UNL     1       3.580   6.553  -7.686  0.00  0.00    +0.249 C 
ATOM     16  O   UNL     1       3.449   5.346  -8.090  0.00  0.00    -0.285 OA
BRANCH  15  17
ATOM     17  C   UNL     1       2.616   7.335  -8.500  0.00  0.00    +0.321 C 
ATOM     18  O   UNL     1       2.109   8.404  -8.122  0.00  0.00    -0.263 OA
ATOM     19  N   UNL     1       2.095   6.752  -9.704  0.00  0.00    -0.081 NA
ENDBRANCH  15  17
ENDBRANCH  14  15
BRANCH  14  20
ATOM     20  C   UNL     1       4.347   6.326  -5.450  0.00  0.00    +0.030 C 
BRANCH  20  21
ATOM     21  C   UNL     1       5.037   7.430  -4.878  0.00  0.00    +0.002 C 
ATOM     22  C   UNL     1       6.231   7.295  -3.992  0.00  0.00    +0.000 C 
ATOM     23  C   UNL     1       5.332   7.534  -2.787  0.00  0.00    +0.000 C 
ATOM     24  C   UNL     1       4.244   8.017  -3.729  0.00  0.00    +0.000 C 
ENDBRANCH  20  21
ENDBRANCH  14  20
ENDBRANCH  12  14
ENDBRANCH   3  11
BRANCH   1  25
ATOM     25  C   UNL     1       1.978   6.206  -1.625  0.00  0.00    +0.173 C 
BRANCH  25  28
ATOM     26  N   UNL     1       1.663   7.856   1.705  0.00  0.00    -0.191 NA
ATOM     27  C   UNL     1       1.152   7.291   0.507  0.00  0.00    +0.340 C 
ATOM     28  N   UNL     1       1.582   6.091  -0.100  0.00  0.00    -0.180 NA
ATOM     29  O   UNL     1       0.284   7.951  -0.137  0.00  0.00    -0.249 OA
BRANCH  26  31
ATOM     30  C   UNL     1       1.840   9.335   2.070  0.00  0.00    +0.022 C 
ATOM     31  C   UNL     1       1.666   9.304   1.815  0.00  0.00    +0.080 C 
ATOM     32  C   UNL     1       0.352   9.889   2.199  0.00  0.00    +0.022 C 
ATOM     33  C   UNL     1       2.408  10.008   0.731  0.00  0.00    +0.022 C 
ENDBRANCH  26  31
ENDBRANCH  25  28
BRANCH  25  34
ATOM     34  C   UNL     1       2.972   4.902  -1.515  0.00  0.00    +0.027 C 
ATOM     35  C   UNL     1       2.208   3.822  -0.821  0.00  0.00    +0.002 C 
ATOM     36  C   UNL     1       4.120   5.360  -0.647  0.00  0.00    +0.002 C 
ATOM     37  C   UNL     1       3.382   4.569  -2.906  0.00  0.00    +0.002 C 
ENDBRANCH  25  34
ENDBRANCH   1  25
TORSDOF 10
ENDMDL
MODEL 9
REMARK VINA RESULT:      -6.3      2.196      8.932
REMARK  Name = 
REMARK  10 active torsions:
REMARK  status: ('A' for Active; 'I' for Inactive)
REMARK    1  A    between atoms: C_2  and  N_5
REMARK    2  A    between atoms: N_8  and  C_9
REMARK    3  A    between atoms: C_9  and  C_10
REMARK    4  A    between atoms: C_9  and  C_34
REMARK    5  A    between atoms: C_16  and  C_17
REMARK    6  A    between atoms: N_19  and  C_20
REMARK    7  A    between atoms: C_20  and  C_21
REMARK    8  A    between atoms: C_20  and  C_26
REMARK    9  A    between atoms: C_21  and  C_22
REMARK   10  A    between atoms: C_26  and  C_28
REMARK                            x       y       z     vdW  Elec       q    Type
REMARK                         _______ _______ _______ _____ _____    ______ ____
ROOT
ATOM      1  C   UNL     1       1.085   5.443  -4.924  0.00  0.00    +0.246 C 
ATOM      2  N   UNL     1       2.106   6.174  -4.232  0.00  0.00    -0.272 N 
ATOM      3  C   UNL     1       2.652   5.721  -2.846  0.00  0.00    +0.153 C 
ATOM      4  C   UNL     1       4.242   5.374  -3.365  0.00  0.00    +0.029 C 
ATOM      5  C   UNL     1       4.007   5.026  -5.027  0.00  0.00    +0.004 C 
ATOM      6  C   UNL     1       5.210   5.213  -5.896  0.00  0.00    +0.000 C 
ATOM      7  C   UNL     1       4.623   3.755  -4.669  0.00  0.00    +0.000 C 
ATOM      8  C   UNL     1       4.421   6.583  -4.489  0.00  0.00    +0.022 C 
ATOM      9  C   UNL     1       2.900   7.192  -4.470  0.00  0.00    +0.094 C 
ATOM     10  O   UNL     1       1.070   4.280  -5.234  0.00  0.00    -0.273 OA
ENDROOT
BRANCH   3  11
ATOM     11  C   UNL     1       2.979   7.169  -2.201  0.00  0.00    +0.260 C 
ATOM     12  N   UNL     1       3.320   7.461  -1.006  0.00  0.00    -0.198 NA
ATOM     13  O   UNL     1       2.543   8.154  -2.823  0.00  0.00    -0.272 OA
BRANCH  12  14
ATOM     14  C   UNL     1       2.509   8.203   0.110  0.00  0.00    +0.161 C 
BRANCH  14  15
ATOM     15  C   UNL     1       3.241   7.585   1.424  0.00  0.00    +0.249 C 
ATOM     16  O   UNL     1       4.241   6.846   1.125  0.00  0.00    -0.285 OA
BRANCH  15  17
ATOM     17  C   UNL     1       3.835   8.817   1.999  0.00  0.00    +0.321 C 
ATOM     18  O   UNL     1       4.675   9.515   1.407  0.00  0.00    -0.263 OA
ATOM     19  N   UNL     1       3.575   9.133   3.376  0.00  0.00    -0.081 NA
ENDBRANCH  15  17
ENDBRANCH  14  15
BRANCH  14  20
ATOM     20  C   UNL     1       1.252   7.147   0.203  0.00  0.00    +0.030 C 
BRANCH  20  21
ATOM     21  C   UNL     1       0.049   7.778   0.623  0.00  0.00    +0.002 C 
ATOM     22  C   UNL     1      -0.826   7.257   1.714  0.00  0.00    +0.000 C 
ATOM     23  C   UNL     1      -1.766   6.694   0.656  0.00  0.00    +0.000 C 
ATOM     24  C   UNL     1      -1.057   7.541  -0.385  0.00  0.00    +0.000 C 
ENDBRANCH  20  21
ENDBRANCH  14  20
ENDBRANCH  12  14
ENDBRANCH   3  11
BRANCH   1  25
ATOM     25  C   UNL     1       0.308   6.527  -5.838  0.00  0.00    +0.173 C 
BRANCH  25  28
ATOM     26  N   UNL     1      -0.201   5.778  -9.457  0.00  0.00    -0.191 NA
ATOM     27  C   UNL     1       0.438   5.622  -8.198  0.00  0.00    +0.340 C 
ATOM     28  N   UNL     1      -0.201   5.519  -6.943  0.00  0.00    -0.180 NA
ATOM     29  O   UNL     1       1.704   5.658  -8.167  0.00  0.00    -0.249 OA
BRANCH  26  31
ATOM     30  C   UNL     1       0.656   6.737 -10.292  0.00  0.00    +0.022 C 
ATOM     31  C   UNL     1       0.500   6.540 -10.474  0.00  0.00    +0.080 C 
ATOM     32  C   UNL     1      -0.379   7.421 -11.292  0.00  0.00    +0.022 C 
ATOM     33  C   UNL     1       1.539   5.774 -11.219  0.00  0.00    +0.022 C 
ENDBRANCH  26  31
ENDBRANCH  25  28
BRANCH  25  34
ATOM     34  C   UNL     1      -1.091   6.375  -4.989  0.00  0.00    +0.027 C 
ATOM     35  C   UNL     1      -2.075   5.691  -5.878  0.00  0.00    +0.002 C 
ATOM     36  C   UNL     1      -1.537   7.793  -4.719  0.00  0.00    +0.002 C 
ATOM     37  C   UNL     1      -0.750   5.621  -3.751  0.00  0.00    +0.002 C 
ENDBRANCH  25  34
ENDBRANCH   1  25
TORSDOF 10
ENDMDL
