MODEL 1
REMARK VINA RESULT:      -8.9      0.000      0.000
REMARK  Name = 
REMARK  11 active torsions:
REMARK  status: ('A' for Active; 'I' for Inactive)
REMARK    1  A    between atoms: C_2  and  C_3
REMARK    2  A    between atoms: C_3  and  N_5
REMARK    3  A    between atoms: N_8  and  C_9
REMARK    4  A    between atoms: C_12  and  N_13
REMARK    5  A    between atoms: N_16  and  C_17
REMARK    6  A    between atoms: C_20  and  O_21
REMARK    7  A    between atoms: O_21  and  C_22
REMARK    8  A    between atoms: C_22  and  C_23
REMARK    9  A    between atoms: C_26  and  C_27
REMARK   10  A    between atoms: C_26  and  C_33
REMARK   11  A    between atoms: C_27  and  N_28
REMARK                            x       y       z     vdW  Elec       q    Type
REMARK                         _______ _______ _______ _____ _____    ______ ____
ROOT
ATOM      1  C   UNL     1      -1.218   6.430  -3.896  0.00  0.00    +0.048 A 
ATOM      2  C   UNL     1      -1.139   5.464  -2.899  0.00  0.00    +0.018 A 
ATOM      3  C   UNL     1      -1.679   5.635  -1.639  0.00  0.00    +0.038 A 
ATOM      4  C   UNL     1      -1.909   6.929  -1.226  0.00  0.00    +0.139 A 
ATOM      5  C   UNL     1      -2.259   7.830  -2.212  0.00  0.00    +0.038 A 
ATOM      6  C   UNL     1      -1.950   7.558  -3.536  0.00  0.00    +0.018 A 
ENDROOT
BRANCH   1  10
ATOM      7  N   UNL     1       1.594   6.202  -5.671  0.00  0.00    -0.304 N 
ATOM      8  C   UNL     1       1.055   5.161  -4.783  0.00  0.00    +0.112 C 
ATOM      9  C   UNL     1      -0.283   4.848  -5.465  0.00  0.00    +0.112 C 
ATOM     10  N   UNL     1      -1.028   6.101  -5.283  0.00  0.00    -0.304 N 
ATOM     11  C   UNL     1      -0.471   7.195  -6.087  0.00  0.00    +0.112 C 
ATOM     12  C   UNL     1       0.890   7.471  -5.440  0.00  0.00    +0.112 C 
BRANCH   7  16
ATOM     13  C   UNL     1       3.006   5.228  -9.336  0.00  0.00    +0.070 A 
ATOM     14  C   UNL     1       2.472   4.180  -8.644  0.00  0.00    +0.019 A 
ATOM     15  C   UNL     1       1.830   4.496  -7.450  0.00  0.00    +0.016 A 
ATOM     16  C   UNL     1       1.618   5.811  -7.054  0.00  0.00    +0.048 A 
ATOM     17  C   UNL     1       1.709   6.735  -8.084  0.00  0.00    +0.016 A 
ATOM     18  C   UNL     1       2.289   6.415  -9.305  0.00  0.00    +0.019 A 
BRANCH  13  22
ATOM     19  N   UNL     1       6.069   5.881 -10.828  0.00  0.00    -0.202 N 
ATOM     20  C   UNL     1       5.325   5.610  -9.770  0.00  0.00    +0.352 A 
ATOM     21  O   UNL     1       5.903   5.125  -8.749  0.00  0.00    -0.244 OA
ATOM     22  N   UNL     1       4.136   5.124 -10.214  0.00  0.00    -0.240 N 
ATOM     23  C   UNL     1       4.138   5.292 -11.558  0.00  0.00    +0.207 A 
ATOM     24  N   UNL     1       5.311   5.864 -11.925  0.00  0.00    -0.144 NA
BRANCH  19  25
ATOM     25  C   UNL     1       7.326   6.840 -10.790  0.00  0.00    +0.110 C 
ATOM     26  C   UNL     1       6.482   8.160 -11.329  0.00  0.00    +0.027 C 
BRANCH  25  28
ATOM     27  C   UNL     1       9.151   5.823 -11.996  0.00  0.00    +0.002 C 
ATOM     28  C   UNL     1       7.819   6.453 -12.325  0.00  0.00    +0.025 C 
ENDBRANCH  25  28
ENDBRANCH  19  25
ENDBRANCH  13  22
ENDBRANCH   7  16
ENDBRANCH   1  10
BRANCH   4  29
ATOM     29  O   UNL     1      -1.511   7.409   0.025  0.00  0.00    -0.473 OA
BRANCH  29  30
ATOM     30  C   UNL     1      -0.156   7.427   0.383  0.00  0.00    +0.237 C 
BRANCH  30  31
ATOM     31  C   UNL     1      -0.055   8.590   1.575  0.00  0.00    +0.191 C 
ATOM     32  O   UNL     1       1.061   9.353   0.859  0.00  0.00    -0.325 OA
ATOM     33  C   UNL     1       2.035   8.460   0.698  0.00  0.00    +0.231 C 
ATOM     34  O   UNL     1       1.880   7.340   1.458  0.00  0.00    -0.327 OA
ATOM     35  C   UNL     1       1.047   7.716   2.470  0.00  0.00    +0.178 C 
BRANCH  33  36
ATOM     36  C   UNL     1       3.417   8.952   1.006  0.00  0.00    +0.041 A 
ATOM     37  C   UNL     1       3.821  10.196   0.533  0.00  0.00    +0.059 A 
ATOM     38 CL   UNL     1       3.583  10.341  -1.206  0.00  0.00    -0.082 Cl
ATOM     39  C   UNL     1       4.769  10.941   1.224  0.00  0.00    +0.023 A 
ATOM     40  C   UNL     1       5.002  10.589   2.550  0.00  0.00    +0.058 A 
ATOM     41 CL   UNL     1       5.540  11.749   3.750  0.00  0.00    -0.082 Cl
ATOM     42  C   UNL     1       4.991   9.228   2.832  0.00  0.00    +0.011 A 
ATOM     43  C   UNL     1       4.180   8.429   2.036  0.00  0.00    +0.002 A 
ENDBRANCH  33  36
BRANCH  33  44
ATOM     44  C   UNL     1       2.137   8.016  -0.761  0.00  0.00    +0.190 C 
BRANCH  44  45
ATOM     45  N   UNL     1       2.906   6.792  -0.867  0.00  0.00    -0.225 N 
ATOM     46  N   UNL     1       4.172   6.706  -1.285  0.00  0.00    -0.145 NA
ATOM     47  C   UNL     1       4.625   5.584  -0.671  0.00  0.00    +0.221 A 
ATOM     48  N   UNL     1       3.554   4.754  -0.725  0.00  0.00    -0.201 NA
ATOM     49  C   UNL     1       2.466   5.515  -0.985  0.00  0.00    +0.197 A 
ENDBRANCH  44  45
ENDBRANCH  33  44
ENDBRANCH  30  31
ENDBRANCH  29  30
ENDBRANCH   4  29
TORSDOF 11
ENDMDL
MODEL 2
REMARK VINA RESULT:      -8.7      1.651      2.216
REMARK  Name = 
REMARK  11 active torsions:
REMARK  status: ('A' for Active; 'I' for Inactive)
REMARK    1  A    between atoms: C_2  and  C_3
REMARK    2  A    between atoms: C_3  and  N_5
REMARK    3  A    between atoms: N_8  and  C_9
REMARK    4  A    between atoms: C_12  and  N_13
REMARK    5  A    between atoms: N_16  and  C_17
REMARK    6  A    between atoms: C_20  and  O_21
REMARK    7  A    between atoms: O_21  and  C_22
REMARK    8  A    between atoms: C_22  and  C_23
REMARK    9  A    between atoms: C_26  and  C_27
REMARK   10  A    between atoms: C_26  and  C_33
REMARK   11  A    between atoms: C_27  and  N_28
REMARK                            x       y       z     vdW  Elec       q    Type
REMARK                         _______ _______ _______ _____ _____    ______ ____
ROOT
ATOM      1  C   UNL     1      -0.923   6.165  -3.381  0.00  0.00    +0.048 A 
ATOM      2  C   UNL     1      -0.552   5.635  -2.151  0.00  0.00    +0.018 A 
ATOM      3  C   UNL     1      -1.102   6.051  -0.954  0.00  0.00    +0.038 A 
ATOM      4  C   UNL     1      -1.695   7.294  -0.935  0.00  0.00    +0.139 A 
ATOM      5  C   UNL     1      -2.306   7.695  -2.106  0.00  0.00    +0.038 A 
ATOM      6  C   UNL     1      -1.949   7.103  -3.308  0.00  0.00    +0.018 A 
ENDROOT
BRANCH   1  10
ATOM      7  N   UNL     1       1.426   6.703  -5.684  0.00  0.00    -0.304 N 
ATOM      8  C   UNL     1       1.614   5.969  -4.424  0.00  0.00    +0.112 C 
ATOM      9  C   UNL     1       0.643   4.797  -4.612  0.00  0.00    +0.112 C 
ATOM     10  N   UNL     1      -0.663   5.469  -4.613  0.00  0.00    -0.304 N 
ATOM     11  C   UNL     1      -0.861   6.286  -5.815  0.00  0.00    +0.112 C 
ATOM     12  C   UNL     1       0.148   7.428  -5.656  0.00  0.00    +0.112 C 
BRANCH   7  16
ATOM     13  C   UNL     1       3.044   5.083  -9.020  0.00  0.00    +0.070 A 
ATOM     14  C   UNL     1       3.007   4.239  -7.948  0.00  0.00    +0.019 A 
ATOM     15  C   UNL     1       2.316   4.697  -6.830  0.00  0.00    +0.016 A 
ATOM     16  C   UNL     1       1.584   5.878  -6.850  0.00  0.00    +0.048 A 
ATOM     17  C   UNL     1       1.262   6.324  -8.122  0.00  0.00    +0.016 A 
ATOM     18  C   UNL     1       1.899   5.831  -9.254  0.00  0.00    +0.019 A 
BRANCH  13  22
ATOM     19  N   UNL     1       5.933   6.010 -10.702  0.00  0.00    -0.202 N 
ATOM     20  C   UNL     1       5.297   5.620  -9.611  0.00  0.00    +0.352 A 
ATOM     21  O   UNL     1       5.982   5.090  -8.683  0.00  0.00    -0.244 OA
ATOM     22  N   UNL     1       4.098   5.107  -9.993  0.00  0.00    -0.240 N 
ATOM     23  C   UNL     1       3.976   5.377 -11.316  0.00  0.00    +0.207 A 
ATOM     24  N   UNL     1       5.085   6.037 -11.730  0.00  0.00    -0.144 NA
BRANCH  19  25
ATOM     25  C   UNL     1       7.143   7.029 -10.689  0.00  0.00    +0.110 C 
ATOM     26  C   UNL     1       6.277   8.247 -11.404  0.00  0.00    +0.027 C 
BRANCH  25  28
ATOM     27  C   UNL     1       8.617   5.386 -11.665  0.00  0.00    +0.002 C 
ATOM     28  C   UNL     1       7.744   6.518 -12.149  0.00  0.00    +0.025 C 
ENDBRANCH  25  28
ENDBRANCH  19  25
ENDBRANCH  13  22
ENDBRANCH   7  16
ENDBRANCH   1  10
BRANCH   4  29
ATOM     29  O   UNL     1      -1.439   8.243   0.059  0.00  0.00    -0.473 OA
BRANCH  29  30
ATOM     30  C   UNL     1      -0.122   8.584   0.396  0.00  0.00    +0.237 C 
BRANCH  30  31
ATOM     31  C   UNL     1      -0.100   8.563   2.065  0.00  0.00    +0.191 C 
ATOM     32  O   UNL     1       1.296   9.185   2.141  0.00  0.00    -0.325 OA
ATOM     33  C   UNL     1       2.074   8.362   1.442  0.00  0.00    +0.231 C 
ATOM     34  O   UNL     1       1.502   7.152   1.188  0.00  0.00    -0.327 OA
ATOM     35  C   UNL     1       0.528   7.020   2.135  0.00  0.00    +0.178 C 
BRANCH  33  36
ATOM     36  C   UNL     1       3.399   8.043   2.068  0.00  0.00    +0.041 A 
ATOM     37  C   UNL     1       4.490   7.760   1.253  0.00  0.00    +0.059 A 
ATOM     38 CL   UNL     1       4.127   6.480   0.099  0.00  0.00    -0.082 Cl
ATOM     39  C   UNL     1       5.783   8.039   1.680  0.00  0.00    +0.023 A 
ATOM     40  C   UNL     1       5.916   8.928   2.742  0.00  0.00    +0.058 A 
ATOM     41 CL   UNL     1       7.335   9.939   2.948  0.00  0.00    -0.082 Cl
ATOM     42  C   UNL     1       4.964   8.826   3.749  0.00  0.00    +0.011 A 
ATOM     43  C   UNL     1       3.703   8.378   3.377  0.00  0.00    +0.002 A 
ENDBRANCH  33  36
BRANCH  33  44
ATOM     44  C   UNL     1       2.460   8.981   0.099  0.00  0.00    +0.190 C 
BRANCH  44  45
ATOM     45  N   UNL     1       3.077  10.277   0.294  0.00  0.00    -0.225 N 
ATOM     46  N   UNL     1       2.791  11.130   1.281  0.00  0.00    -0.145 NA
ATOM     47  C   UNL     1       3.939  11.841   1.418  0.00  0.00    +0.221 A 
ATOM     48  N   UNL     1       4.362  11.985   0.138  0.00  0.00    -0.201 NA
ATOM     49  C   UNL     1       3.707  11.067  -0.610  0.00  0.00    +0.197 A 
ENDBRANCH  44  45
ENDBRANCH  33  44
ENDBRANCH  30  31
ENDBRANCH  29  30
ENDBRANCH   4  29
TORSDOF 11
ENDMDL
MODEL 3
REMARK VINA RESULT:      -8.5      2.758      4.300
REMARK  Name = 
REMARK  11 active torsions:
REMARK  status: ('A' for Active; 'I' for Inactive)
REMARK    1  A    between atoms: C_2  and  C_3
REMARK    2  A    between atoms: C_3  and  N_5
REMARK    3  A    between atoms: N_8  and  C_9
REMARK    4  A    between atoms: C_12  and  N_13
REMARK    5  A    between atoms: N_16  and  C_17
REMARK    6  A    between atoms: C_20  and  O_21
REMARK    7  A    between atoms: O_21  and  C_22
REMARK    8  A    between atoms: C_22  and  C_23
REMARK    9  A    between atoms: C_26  and  C_27
REMARK   10  A    between atoms: C_26  and  C_33
REMARK   11  A    between atoms: C_27  and  N_28
REMARK                            x       y       z     vdW  Elec       q    Type
REMARK                         _______ _______ _______ _____ _____    ______ ____
ROOT
ATOM      1  C   UNL     1      -0.657   6.581  -5.543  0.00  0.00    +0.048 A 
ATOM      2  C   UNL     1      -1.641   5.611  -5.393  0.00  0.00    +0.018 A 
ATOM      3  C   UNL     1      -2.798   5.818  -4.666  0.00  0.00    +0.038 A 
ATOM      4  C   UNL     1      -2.776   6.825  -3.726  0.00  0.00    +0.139 A 
ATOM      5  C   UNL     1      -1.992   7.920  -4.026  0.00  0.00    +0.038 A 
ATOM      6  C   UNL     1      -0.970   7.803  -4.957  0.00  0.00    +0.018 A 
ENDROOT
BRANCH   1  10
ATOM      7  N   UNL     1       2.204   4.879  -5.712  0.00  0.00    -0.304 N 
ATOM      8  C   UNL     1       0.864   4.330  -5.969  0.00  0.00    +0.112 C 
ATOM      9  C   UNL     1       0.424   5.166  -7.177  0.00  0.00    +0.112 C 
ATOM     10  N   UNL     1       0.314   6.513  -6.603  0.00  0.00    -0.304 N 
ATOM     11  C   UNL     1       1.625   7.069  -6.249  0.00  0.00    +0.112 C 
ATOM     12  C   UNL     1       2.091   6.200  -5.078  0.00  0.00    +0.112 C 
BRANCH   7  16
ATOM     13  C   UNL     1       3.530   5.611  -9.464  0.00  0.00    +0.070 A 
ATOM     14  C   UNL     1       4.209   6.283  -8.489  0.00  0.00    +0.019 A 
ATOM     15  C   UNL     1       3.895   5.940  -7.177  0.00  0.00    +0.016 A 
ATOM     16  C   UNL     1       3.049   4.880  -6.875  0.00  0.00    +0.048 A 
ATOM     17  C   UNL     1       2.888   3.971  -7.909  0.00  0.00    +0.016 A 
ATOM     18  C   UNL     1       3.255   4.274  -9.214  0.00  0.00    +0.019 A 
BRANCH  13  22
ATOM     19  N   UNL     1       1.947   6.210 -12.493  0.00  0.00    -0.202 N 
ATOM     20  C   UNL     1       1.957   6.179 -11.172  0.00  0.00    +0.352 A 
ATOM     21  O   UNL     1       1.088   6.871 -10.557  0.00  0.00    -0.244 OA
ATOM     22  N   UNL     1       3.254   6.143 -10.768  0.00  0.00    -0.240 N 
ATOM     23  C   UNL     1       3.994   5.967 -11.890  0.00  0.00    +0.207 A 
ATOM     24  N   UNL     1       3.160   5.905 -12.957  0.00  0.00    -0.144 NA
BRANCH  19  25
ATOM     25  C   UNL     1       0.684   5.832 -13.366  0.00  0.00    +0.110 C 
ATOM     26  C   UNL     1       1.301   4.369 -13.839  0.00  0.00    +0.027 C 
BRANCH  25  28
ATOM     27  C   UNL     1       0.175   7.623 -14.901  0.00  0.00    +0.002 C 
ATOM     28  C   UNL     1       1.254   6.582 -14.732  0.00  0.00    +0.025 C 
ENDBRANCH  25  28
ENDBRANCH  19  25
ENDBRANCH  13  22
ENDBRANCH   7  16
ENDBRANCH   1  10
BRANCH   4  29
ATOM     29  O   UNL     1      -3.232   6.651  -2.416  0.00  0.00    -0.473 OA
BRANCH  29  30
ATOM     30  C   UNL     1      -2.458   7.082  -1.330  0.00  0.00    +0.237 C 
BRANCH  30  31
ATOM     31  C   UNL     1      -2.065   5.680  -0.515  0.00  0.00    +0.191 C 
ATOM     32  O   UNL     1      -1.635   6.430   0.747  0.00  0.00    -0.325 OA
ATOM     33  C   UNL     1      -0.684   7.267   0.339  0.00  0.00    +0.231 C 
ATOM     34  O   UNL     1      -0.196   6.977  -0.900  0.00  0.00    -0.327 OA
ATOM     35  C   UNL     1      -0.503   5.663  -1.098  0.00  0.00    +0.178 C 
BRANCH  33  36
ATOM     36  C   UNL     1       0.524   7.350   1.224  0.00  0.00    +0.041 A 
ATOM     37  C   UNL     1       1.693   7.920   0.732  0.00  0.00    +0.059 A 
ATOM     38 CL   UNL     1       2.196   7.175  -0.782  0.00  0.00    -0.082 Cl
ATOM     39  C   UNL     1       2.587   8.550   1.590  0.00  0.00    +0.023 A 
ATOM     40  C   UNL     1       2.106   8.914   2.844  0.00  0.00    +0.058 A 
ATOM     41 CL   UNL     1       2.751  10.277   3.740  0.00  0.00    -0.082 Cl
ATOM     42  C   UNL     1       1.230   8.019   3.447  0.00  0.00    +0.011 A 
ATOM     43  C   UNL     1       0.444   7.245   2.602  0.00  0.00    +0.002 A 
ENDBRANCH  33  36
BRANCH  33  44
ATOM     44  C   UNL     1      -1.196   8.707   0.307  0.00  0.00    +0.190 C 
BRANCH  44  45
ATOM     45  N   UNL     1      -1.903   9.022   1.532  0.00  0.00    -0.225 N 
ATOM     46  N   UNL     1      -3.078   8.509   1.903  0.00  0.00    -0.145 NA
ATOM     47  C   UNL     1      -3.039   8.590   3.256  0.00  0.00    +0.221 A 
ATOM     48  N   UNL     1      -2.416   9.774   3.473  0.00  0.00    -0.201 NA
ATOM     49  C   UNL     1      -1.794  10.119   2.321  0.00  0.00    +0.197 A 
ENDBRANCH  44  45
ENDBRANCH  33  44
ENDBRANCH  30  31
ENDBRANCH  29  30
ENDBRANCH   4  29
TORSDOF 11
ENDMDL
MODEL 4
REMARK VINA RESULT:      -8.5      2.531      4.258
REMARK  Name = 
REMARK  11 active torsions:
REMARK  status: ('A' for Active; 'I' for Inactive)
REMARK    1  A    between atoms: C_2  and  C_3
REMARK    2  A    between atoms: C_3  and  N_5
REMARK    3  A    between atoms: N_8  and  C_9
REMARK    4  A    between atoms: C_12  and  N_13
REMARK    5  A    between atoms: N_16  and  C_17
REMARK    6  A    between atoms: C_20  and  O_21
REMARK    7  A    between atoms: O_21  and  C_22
REMARK    8  A    between atoms: C_22  and  C_23
REMARK    9  A    between atoms: C_26  and  C_27
REMARK   10  A    between atoms: C_26  and  C_33
REMARK   11  A    between atoms: C_27  and  N_28
REMARK                            x       y       z     vdW  Elec       q    Type
REMARK                         _______ _______ _______ _____ _____    ______ ____
ROOT
ATOM      1  C   UNL     1       3.773   5.975  -6.172  0.00  0.00    +0.048 A 
ATOM      2  C   UNL     1       3.938   7.155  -5.456  0.00  0.00    +0.018 A 
ATOM      3  C   UNL     1       4.608   7.217  -4.249  0.00  0.00    +0.038 A 
ATOM      4  C   UNL     1       4.731   6.044  -3.539  0.00  0.00    +0.139 A 
ATOM      5  C   UNL     1       4.843   4.888  -4.287  0.00  0.00    +0.038 A 
ATOM      6  C   UNL     1       4.404   4.873  -5.603  0.00  0.00    +0.018 A 
ENDROOT
BRANCH   1  10
ATOM      7  N   UNL     1       0.813   5.726  -7.683  0.00  0.00    -0.304 N 
ATOM      8  C   UNL     1       1.376   6.953  -7.100  0.00  0.00    +0.112 C 
ATOM      9  C   UNL     1       2.634   7.141  -7.956  0.00  0.00    +0.112 C 
ATOM     10  N   UNL     1       3.450   5.981  -7.574  0.00  0.00    -0.304 N 
ATOM     11  C   UNL     1       2.879   4.722  -8.062  0.00  0.00    +0.112 C 
ATOM     12  C   UNL     1       1.592   4.559  -7.247  0.00  0.00    +0.112 C 
BRANCH   7  16
ATOM     13  C   UNL     1       1.668   5.531 -11.633  0.00  0.00    +0.070 A 
ATOM     14  C   UNL     1       0.821   4.556 -11.195  0.00  0.00    +0.019 A 
ATOM     15  C   UNL     1       0.372   4.677  -9.883  0.00  0.00    +0.016 A 
ATOM     16  C   UNL     1       0.652   5.798  -9.110  0.00  0.00    +0.048 A 
ATOM     17  C   UNL     1       1.030   6.912  -9.843  0.00  0.00    +0.016 A 
ATOM     18  C   UNL     1       1.419   6.816 -11.173  0.00  0.00    +0.019 A 
BRANCH  13  22
ATOM     19  N   UNL     1       4.517   5.983 -13.562  0.00  0.00    -0.202 N 
ATOM     20  C   UNL     1       3.918   5.788 -12.401  0.00  0.00    +0.352 A 
ATOM     21  O   UNL     1       4.612   5.316 -11.448  0.00  0.00    -0.244 OA
ATOM     22  N   UNL     1       2.659   5.341 -12.654  0.00  0.00    -0.240 N 
ATOM     23  C   UNL     1       2.480   5.458 -13.992  0.00  0.00    +0.207 A 
ATOM     24  N   UNL     1       3.612   5.960 -14.542  0.00  0.00    -0.144 NA
BRANCH  19  25
ATOM     25  C   UNL     1       5.804   6.884 -13.740  0.00  0.00    +0.110 C 
ATOM     26  C   UNL     1       5.470   7.255 -15.320  0.00  0.00    +0.027 C 
BRANCH  25  28
ATOM     27  C   UNL     1       7.169   6.083 -15.562  0.00  0.00    +0.002 C 
ATOM     28  C   UNL     1       6.778   5.615 -14.182  0.00  0.00    +0.025 C 
ENDBRANCH  25  28
ENDBRANCH  19  25
ENDBRANCH  13  22
ENDBRANCH   7  16
ENDBRANCH   1  10
BRANCH   4  29
ATOM     29  O   UNL     1       4.440   5.946  -2.176  0.00  0.00    -0.473 OA
BRANCH  29  30
ATOM     30  C   UNL     1       4.469   7.084  -1.358  0.00  0.00    +0.237 C 
BRANCH  30  31
ATOM     31  C   UNL     1       4.634   6.482   0.190  0.00  0.00    +0.191 C 
ATOM     32  O   UNL     1       3.130   6.533   0.464  0.00  0.00    -0.325 OA
ATOM     33  C   UNL     1       2.790   7.804   0.263  0.00  0.00    +0.231 C 
ATOM     34  O   UNL     1       3.855   8.653   0.214  0.00  0.00    -0.327 OA
ATOM     35  C   UNL     1       4.859   7.992   0.858  0.00  0.00    +0.178 C 
BRANCH  33  36
ATOM     36  C   UNL     1       1.869   8.394   1.289  0.00  0.00    +0.041 A 
ATOM     37  C   UNL     1       1.254   9.615   1.033  0.00  0.00    +0.059 A 
ATOM     38 CL   UNL     1       2.425  10.856   0.598  0.00  0.00    -0.082 Cl
ATOM     39  C   UNL     1       0.018   9.915   1.594  0.00  0.00    +0.023 A 
ATOM     40  C   UNL     1      -0.728   8.847   2.082  0.00  0.00    +0.058 A 
ATOM     41 CL   UNL     1      -2.480   8.871   2.136  0.00  0.00    -0.082 Cl
ATOM     42  C   UNL     1      -0.011   7.842   2.720  0.00  0.00    +0.011 A 
ATOM     43  C   UNL     1       1.296   7.637   2.296  0.00  0.00    +0.002 A 
ENDBRANCH  33  36
BRANCH  33  44
ATOM     44  C   UNL     1       2.012   7.965  -1.043  0.00  0.00    +0.190 C 
BRANCH  44  45
ATOM     45  N   UNL     1       1.139   6.829  -1.258  0.00  0.00    -0.225 N 
ATOM     46  N   UNL     1       1.269   5.926  -2.233  0.00  0.00    -0.145 NA
ATOM     47  C   UNL     1       0.684   4.819  -1.710  0.00  0.00    +0.221 A 
ATOM     48  N   UNL     1      -0.371   5.326  -1.026  0.00  0.00    -0.201 NA
ATOM     49  C   UNL     1      -0.141   6.648  -0.851  0.00  0.00    +0.197 A 
ENDBRANCH  44  45
ENDBRANCH  33  44
ENDBRANCH  30  31
ENDBRANCH  29  30
ENDBRANCH   4  29
TORSDOF 11
ENDMDL
MODEL 5
REMARK VINA RESULT:      -8.5      3.163     10.995
REMARK  Name = 
REMARK  11 active torsions:
REMARK  status: ('A' for Active; 'I' for Inactive)
REMARK    1  A    between atoms: C_2  and  C_3
REMARK    2  A    between atoms: C_3  and  N_5
REMARK    3  A    between atoms: N_8  and  C_9
REMARK    4  A    between atoms: C_12  and  N_13
REMARK    5  A    between atoms: N_16  and  C_17
REMARK    6  A    between atoms: C_20  and  O_21
REMARK    7  A    between atoms: O_21  and  C_22
REMARK    8  A    between atoms: C_22  and  C_23
REMARK    9  A    between atoms: C_26  and  C_27
REMARK   10  A    between atoms: C_26  and  C_33
REMARK   11  A    between atoms: C_27  and  N_28
REMARK                            x       y       z     vdW  Elec       q    Type
REMARK                         _______ _______ _______ _____ _____    ______ ____
ROOT
ATOM      1  C   UNL     1       1.222   5.905  -5.013  0.00  0.00    +0.048 A 
ATOM      2  C   UNL     1       0.206   6.589  -5.671  0.00  0.00    +0.018 A 
ATOM      3  C   UNL     1      -0.455   6.079  -6.772  0.00  0.00    +0.038 A 
ATOM      4  C   UNL     1       0.186   5.092  -7.487  0.00  0.00    +0.139 A 
ATOM      5  C   UNL     1       0.992   4.239  -6.759  0.00  0.00    +0.038 A 
ATOM      6  C   UNL     1       1.467   4.632  -5.517  0.00  0.00    +0.018 A 
ENDROOT
BRANCH   1  10
ATOM      7  N   UNL     1       4.259   6.364  -3.719  0.00  0.00    -0.304 N 
ATOM      8  C   UNL     1       3.495   7.360  -4.485  0.00  0.00    +0.112 C 
ATOM      9  C   UNL     1       2.267   7.552  -3.586  0.00  0.00    +0.112 C 
ATOM     10  N   UNL     1       1.610   6.241  -3.669  0.00  0.00    -0.304 N 
ATOM     11  C   UNL     1       2.382   5.194  -2.990  0.00  0.00    +0.112 C 
ATOM     12  C   UNL     1       3.636   5.040  -3.857  0.00  0.00    +0.112 C 
BRANCH   7  16
ATOM     13  C   UNL     1       3.513   7.338   0.137  0.00  0.00    +0.070 A 
ATOM     14  C   UNL     1       4.111   6.122  -0.029  0.00  0.00    +0.019 A 
ATOM     15  C   UNL     1       4.531   5.816  -1.320  0.00  0.00    +0.016 A 
ATOM     16  C   UNL     1       4.479   6.746  -2.351  0.00  0.00    +0.048 A 
ATOM     17  C   UNL     1       4.380   8.061  -1.924  0.00  0.00    +0.016 A 
ATOM     18  C   UNL     1       4.023   8.383  -0.621  0.00  0.00    +0.019 A 
BRANCH  13  22
ATOM     19  N   UNL     1       0.553   8.326   1.651  0.00  0.00    -0.202 N 
ATOM     20  C   UNL     1       1.228   7.580   0.796  0.00  0.00    +0.352 A 
ATOM     21  O   UNL     1       0.687   6.505   0.392  0.00  0.00    -0.244 OA
ATOM     22  N   UNL     1       2.540   7.628   1.150  0.00  0.00    -0.240 N 
ATOM     23  C   UNL     1       2.634   8.568   2.121  0.00  0.00    +0.207 A 
ATOM     24  N   UNL     1       1.399   9.077   2.357  0.00  0.00    -0.144 NA
BRANCH  19  25
ATOM     25  C   UNL     1      -0.899   8.885   1.366  0.00  0.00    +0.110 C 
ATOM     26  C   UNL     1      -0.676  10.257   2.268  0.00  0.00    +0.027 C 
BRANCH  25  28
ATOM     27  C   UNL     1      -3.014   8.029   2.150  0.00  0.00    +0.002 C 
ATOM     28  C   UNL     1      -1.589   8.084   2.645  0.00  0.00    +0.025 C 
ENDBRANCH  25  28
ENDBRANCH  19  25
ENDBRANCH  13  22
ENDBRANCH   7  16
ENDBRANCH   1  10
BRANCH   4  29
ATOM     29  O   UNL     1       0.303   5.116  -8.879  0.00  0.00    -0.473 OA
BRANCH  29  30
ATOM     30  C   UNL     1       1.546   5.345  -9.486  0.00  0.00    +0.237 C 
BRANCH  30  31
ATOM     31  C   UNL     1       1.793   6.987  -9.325  0.00  0.00    +0.191 C 
ATOM     32  O   UNL     1       2.863   7.022 -10.418  0.00  0.00    -0.325 OA
ATOM     33  C   UNL     1       3.788   6.154 -10.017  0.00  0.00    +0.231 C 
ATOM     34  O   UNL     1       3.669   5.793  -8.709  0.00  0.00    -0.327 OA
ATOM     35  C   UNL     1       2.944   6.796  -8.134  0.00  0.00    +0.178 C 
BRANCH  33  36
ATOM     36  C   UNL     1       5.208   6.612 -10.166  0.00  0.00    +0.041 A 
ATOM     37  C   UNL     1       6.245   5.750  -9.821  0.00  0.00    +0.059 A 
ATOM     38 CL   UNL     1       6.058   5.129  -8.184  0.00  0.00    -0.082 Cl
ATOM     39  C   UNL     1       7.480   5.843 -10.451  0.00  0.00    +0.023 A 
ATOM     40  C   UNL     1       7.522   6.538 -11.656  0.00  0.00    +0.058 A 
ATOM     41 CL   UNL     1       8.693   6.177 -12.909  0.00  0.00    -0.082 Cl
ATOM     42  C   UNL     1       6.725   7.675 -11.734  0.00  0.00    +0.011 A 
ATOM     43  C   UNL     1       5.564   7.680 -10.972  0.00  0.00    +0.002 A 
ENDBRANCH  33  36
BRANCH  33  44
ATOM     44  C   UNL     1       3.742   4.876 -10.854  0.00  0.00    +0.190 C 
BRANCH  44  45
ATOM     45  N   UNL     1       3.624   5.194 -12.262  0.00  0.00    -0.225 N 
ATOM     46  N   UNL     1       2.477   5.308 -12.938  0.00  0.00    -0.145 NA
ATOM     47  C   UNL     1       2.796   6.155 -13.949  0.00  0.00    +0.221 A 
ATOM     48  N   UNL     1       4.054   5.774 -14.280  0.00  0.00    -0.201 NA
ATOM     49  C   UNL     1       4.539   5.042 -13.251  0.00  0.00    +0.197 A 
ENDBRANCH  44  45
ENDBRANCH  33  44
ENDBRANCH  30  31
ENDBRANCH  29  30
ENDBRANCH   4  29
TORSDOF 11
ENDMDL
MODEL 6
REMARK VINA RESULT:      -8.4      2.642      3.915
REMARK  Name = 
REMARK  11 active torsions:
REMARK  status: ('A' for Active; 'I' for Inactive)
REMARK    1  A    between atoms: C_2  and  C_3
REMARK    2  A    between atoms: C_3  and  N_5
REMARK    3  A    between atoms: N_8  and  C_9
REMARK    4  A    between atoms: C_12  and  N_13
REMARK    5  A    between atoms: N_16  and  C_17
REMARK    6  A    between atoms: C_20  and  O_21
REMARK    7  A    between atoms: O_21  and  C_22
REMARK    8  A    between atoms: C_22  and  C_23
REMARK    9  A    between atoms: C_26  and  C_27
REMARK   10  A    between atoms: C_26  and  C_33
REMARK   11  A    between atoms: C_27  and  N_28
REMARK                            x       y       z     vdW  Elec       q    Type
REMARK                         _______ _______ _______ _____ _____    ______ ____
ROOT
ATOM      1  C   UNL     1       3.397   5.725  -5.969  0.00  0.00    +0.048 A 
ATOM      2  C   UNL     1       3.203   6.807  -5.119  0.00  0.00    +0.018 A 
ATOM      3  C   UNL     1       3.707   6.854  -3.833  0.00  0.00    +0.038 A 
ATOM      4  C   UNL     1       4.025   5.653  -3.239  0.00  0.00    +0.139 A 
ATOM      5  C   UNL     1       4.485   4.660  -4.082  0.00  0.00    +0.038 A 
ATOM      6  C   UNL     1       4.205   4.724  -5.439  0.00  0.00    +0.018 A 
ENDROOT
BRANCH   1  10
ATOM      7  N   UNL     1       0.630   5.578  -7.822  0.00  0.00    -0.304 N 
ATOM      8  C   UNL     1       1.102   6.756  -7.080  0.00  0.00    +0.112 C 
ATOM      9  C   UNL     1       2.444   7.026  -7.769  0.00  0.00    +0.112 C 
ATOM     10  N   UNL     1       3.234   5.846  -7.394  0.00  0.00    -0.304 N 
ATOM     11  C   UNL     1       2.743   4.626  -8.045  0.00  0.00    +0.112 C 
ATOM     12  C   UNL     1       1.376   4.385  -7.397  0.00  0.00    +0.112 C 
BRANCH   7  16
ATOM     13  C   UNL     1       1.895   5.625 -11.665  0.00  0.00    +0.070 A 
ATOM     14  C   UNL     1       0.951   4.677 -11.397  0.00  0.00    +0.019 A 
ATOM     15  C   UNL     1       0.370   4.729 -10.133  0.00  0.00    +0.016 A 
ATOM     16  C   UNL     1       0.629   5.767  -9.246  0.00  0.00    +0.048 A 
ATOM     17  C   UNL     1       1.147   6.906  -9.843  0.00  0.00    +0.016 A 
ATOM     18  C   UNL     1       1.672   6.885 -11.129  0.00  0.00    +0.019 A 
BRANCH  13  22
ATOM     19  N   UNL     1       4.959   6.028 -13.242  0.00  0.00    -0.202 N 
ATOM     20  C   UNL     1       4.226   5.785 -12.170  0.00  0.00    +0.352 A 
ATOM     21  O   UNL     1       4.783   5.193 -11.194  0.00  0.00    -0.244 OA
ATOM     22  N   UNL     1       2.978   5.447 -12.589  0.00  0.00    -0.240 N 
ATOM     23  C   UNL     1       2.953   5.681 -13.924  0.00  0.00    +0.207 A 
ATOM     24  N   UNL     1       4.167   6.145 -14.309  0.00  0.00    -0.144 NA
BRANCH  19  25
ATOM     25  C   UNL     1       6.310   6.849 -13.208  0.00  0.00    +0.110 C 
ATOM     26  C   UNL     1       6.284   7.185 -14.830  0.00  0.00    +0.027 C 
BRANCH  25  28
ATOM     27  C   UNL     1       8.368   5.836 -12.459  0.00  0.00    +0.002 C 
ATOM     28  C   UNL     1       7.267   5.513 -13.440  0.00  0.00    +0.025 C 
ENDBRANCH  25  28
ENDBRANCH  19  25
ENDBRANCH  13  22
ENDBRANCH   7  16
ENDBRANCH   1  10
BRANCH   4  29
ATOM     29  O   UNL     1       3.621   5.315  -1.945  0.00  0.00    -0.473 OA
BRANCH  29  30
ATOM     30  C   UNL     1       3.211   6.307  -1.044  0.00  0.00    +0.237 C 
BRANCH  30  31
ATOM     31  C   UNL     1       4.412   6.342   0.114  0.00  0.00    +0.191 C 
ATOM     32  O   UNL     1       3.615   7.261   1.040  0.00  0.00    -0.325 OA
ATOM     33  C   UNL     1       3.350   8.339   0.304  0.00  0.00    +0.231 C 
ATOM     34  O   UNL     1       4.099   8.423  -0.831  0.00  0.00    -0.327 OA
ATOM     35  C   UNL     1       5.189   7.638  -0.590  0.00  0.00    +0.178 C 
BRANCH  33  36
ATOM     36  C   UNL     1       3.544   9.654   0.997  0.00  0.00    +0.041 A 
ATOM     37  C   UNL     1       4.265   9.701   2.186  0.00  0.00    +0.059 A 
ATOM     38 CL   UNL     1       3.638   8.564   3.375  0.00  0.00    -0.082 Cl
ATOM     39  C   UNL     1       4.966  10.847   2.542  0.00  0.00    +0.023 A 
ATOM     40  C   UNL     1       5.227  11.766   1.530  0.00  0.00    +0.058 A 
ATOM     41 CL   UNL     1       6.625  12.825   1.560  0.00  0.00    -0.082 Cl
ATOM     42  C   UNL     1       4.214  11.952   0.597  0.00  0.00    +0.011 A 
ATOM     43  C   UNL     1       3.383  10.867   0.349  0.00  0.00    +0.002 A 
ENDBRANCH  33  36
BRANCH  33  44
ATOM     44  C   UNL     1       1.880   8.373  -0.110  0.00  0.00    +0.190 C 
BRANCH  44  45
ATOM     45  N   UNL     1       1.021   8.257   1.051  0.00  0.00    -0.225 N 
ATOM     46  N   UNL     1       0.519   7.117   1.534  0.00  0.00    -0.145 NA
ATOM     47  C   UNL     1       0.333   7.393   2.849  0.00  0.00    +0.221 A 
ATOM     48  N   UNL     1      -0.093   8.679   2.833  0.00  0.00    -0.201 NA
ATOM     49  C   UNL     1       0.231   9.197   1.625  0.00  0.00    +0.197 A 
ENDBRANCH  44  45
ENDBRANCH  33  44
ENDBRANCH  30  31
ENDBRANCH  29  30
ENDBRANCH   4  29
TORSDOF 11
ENDMDL
MODEL 7
REMARK VINA RESULT:      -8.4      1.176      1.427
REMARK  Name = 
REMARK  11 active torsions:
REMARK  status: ('A' for Active; 'I' for Inactive)
REMARK    1  A    between atoms: C_2  and  C_3
REMARK    2  A    between atoms: C_3  and  N_5
REMARK    3  A    between atoms: N_8  and  C_9
REMARK    4  A    between atoms: C_12  and  N_13
REMARK    5  A    between atoms: N_16  and  C_17
REMARK    6  A    between atoms: C_20  and  O_21
REMARK    7  A    between atoms: O_21  and  C_22
REMARK    8  A    between atoms: C_22  and  C_23
REMARK    9  A    between atoms: C_26  and  C_27
REMARK   10  A    between atoms: C_26  and  C_33
REMARK   11  A    between atoms: C_27  and  N_28
REMARK                            x       y       z     vdW  Elec       q    Type
REMARK                         _______ _______ _______ _____ _____    ______ ____
ROOT
ATOM      1  C   UNL     1      -0.777   6.012  -3.473  0.00  0.00    +0.048 A 
ATOM      2  C   UNL     1      -0.422   5.396  -2.279  0.00  0.00    +0.018 A 
ATOM      3  C   UNL     1      -0.944   5.767  -1.055  0.00  0.00    +0.038 A 
ATOM      4  C   UNL     1      -1.480   7.032  -0.960  0.00  0.00    +0.139 A 
ATOM      5  C   UNL     1      -2.080   7.527  -2.101  0.00  0.00    +0.038 A 
ATOM      6  C   UNL     1      -1.758   6.989  -3.338  0.00  0.00    +0.018 A 
ENDROOT
BRANCH   1  10
ATOM      7  N   UNL     1       1.497   6.662  -5.822  0.00  0.00    -0.304 N 
ATOM      8  C   UNL     1       1.725   5.867  -4.606  0.00  0.00    +0.112 C 
ATOM      9  C   UNL     1       0.747   4.705  -4.819  0.00  0.00    +0.112 C 
ATOM     10  N   UNL     1      -0.558   5.376  -4.745  0.00  0.00    -0.304 N 
ATOM     11  C   UNL     1      -0.793   6.250  -5.900  0.00  0.00    +0.112 C 
ATOM     12  C   UNL     1       0.221   7.384  -5.718  0.00  0.00    +0.112 C 
BRANCH   7  16
ATOM     13  C   UNL     1       3.072   5.081  -9.198  0.00  0.00    +0.070 A 
ATOM     14  C   UNL     1       2.909   4.184  -8.182  0.00  0.00    +0.019 A 
ATOM     15  C   UNL     1       2.224   4.645  -7.061  0.00  0.00    +0.016 A 
ATOM     16  C   UNL     1       1.616   5.894  -7.032  0.00  0.00    +0.048 A 
ATOM     17  C   UNL     1       1.391   6.445  -8.284  0.00  0.00    +0.016 A 
ATOM     18  C   UNL     1       2.018   5.955  -9.423  0.00  0.00    +0.019 A 
BRANCH  13  22
ATOM     19  N   UNL     1       6.030   5.906 -10.811  0.00  0.00    -0.202 N 
ATOM     20  C   UNL     1       5.351   5.568  -9.729  0.00  0.00    +0.352 A 
ATOM     21  O   UNL     1       5.996   5.069  -8.756  0.00  0.00    -0.244 OA
ATOM     22  N   UNL     1       4.159   5.053 -10.133  0.00  0.00    -0.240 N 
ATOM     23  C   UNL     1       4.088   5.271 -11.468  0.00  0.00    +0.207 A 
ATOM     24  N   UNL     1       5.220   5.900 -11.870  0.00  0.00    -0.144 NA
BRANCH  19  25
ATOM     25  C   UNL     1       7.251   6.911 -10.797  0.00  0.00    +0.110 C 
ATOM     26  C   UNL     1       6.353   8.194 -11.337  0.00  0.00    +0.027 C 
BRANCH  25  28
ATOM     27  C   UNL     1       9.021   5.803 -12.005  0.00  0.00    +0.002 C 
ATOM     28  C   UNL     1       7.740   6.528 -12.335  0.00  0.00    +0.025 C 
ENDBRANCH  25  28
ENDBRANCH  19  25
ENDBRANCH  13  22
ENDBRANCH   7  16
ENDBRANCH   1  10
BRANCH   4  29
ATOM     29  O   UNL     1      -1.174   7.911   0.083  0.00  0.00    -0.473 OA
BRANCH  29  30
ATOM     30  C   UNL     1      -0.080   7.663   0.925  0.00  0.00    +0.237 C 
BRANCH  30  31
ATOM     31  C   UNL     1      -0.488   8.400   2.366  0.00  0.00    +0.191 C 
ATOM     32  O   UNL     1       0.433   9.596   2.116  0.00  0.00    -0.325 OA
ATOM     33  C   UNL     1       1.641   9.065   1.943  0.00  0.00    +0.231 C 
ATOM     34  O   UNL     1       1.731   7.767   2.347  0.00  0.00    -0.327 OA
ATOM     35  C   UNL     1       0.698   7.600   3.223  0.00  0.00    +0.178 C 
BRANCH  33  36
ATOM     36  C   UNL     1       2.760   9.770   2.649  0.00  0.00    +0.041 A 
ATOM     37  C   UNL     1       3.990   9.134   2.787  0.00  0.00    +0.059 A 
ATOM     38 CL   UNL     1       3.822   7.542   3.520  0.00  0.00    -0.082 Cl
ATOM     39  C   UNL     1       5.164   9.874   2.865  0.00  0.00    +0.023 A 
ATOM     40  C   UNL     1       5.106  11.194   2.429  0.00  0.00    +0.058 A 
ATOM     41 CL   UNL     1       6.500  12.029   1.770  0.00  0.00    -0.082 Cl
ATOM     42  C   UNL     1       3.941  11.888   2.735  0.00  0.00    +0.011 A 
ATOM     43  C   UNL     1       2.774  11.142   2.837  0.00  0.00    +0.002 A 
ENDBRANCH  33  36
BRANCH  33  44
ATOM     44  C   UNL     1       2.061   9.122   0.475  0.00  0.00    +0.190 C 
BRANCH  44  45
ATOM     45  N   UNL     1       2.917   8.000   0.147  0.00  0.00    -0.225 N 
ATOM     46  N   UNL     1       4.210   8.079  -0.176  0.00  0.00    -0.145 NA
ATOM     47  C   UNL     1       4.697   6.868   0.192  0.00  0.00    +0.221 A 
ATOM     48  N   UNL     1       3.691   6.022  -0.139  0.00  0.00    -0.201 NA
ATOM     49  C   UNL     1       2.573   6.767  -0.300  0.00  0.00    +0.197 A 
ENDBRANCH  44  45
ENDBRANCH  33  44
ENDBRANCH  30  31
ENDBRANCH  29  30
ENDBRANCH   4  29
TORSDOF 11
ENDMDL
MODEL 8
REMARK VINA RESULT:      -8.2      4.057      5.743
REMARK  Name = 
REMARK  11 active torsions:
REMARK  status: ('A' for Active; 'I' for Inactive)
REMARK    1  A    between atoms: C_2  and  C_3
REMARK    2  A    between atoms: C_3  and  N_5
REMARK    3  A    between atoms: N_8  and  C_9
REMARK    4  A    between atoms: C_12  and  N_13
REMARK    5  A    between atoms: N_16  and  C_17
REMARK    6  A    between atoms: C_20  and  O_21
REMARK    7  A    between atoms: O_21  and  C_22
REMARK    8  A    between atoms: C_22  and  C_23
REMARK    9  A    between atoms: C_26  and  C_27
REMARK   10  A    between atoms: C_26  and  C_33
REMARK   11  A    between atoms: C_27  and  N_28
REMARK                            x       y       z     vdW  Elec       q    Type
REMARK                         _______ _______ _______ _____ _____    ______ ____
ROOT
ATOM      1  C   UNL     1       2.955   4.768  -7.628  0.00  0.00    +0.048 A 
ATOM      2  C   UNL     1       4.130   5.338  -7.153  0.00  0.00    +0.018 A 
ATOM      3  C   UNL     1       4.445   5.407  -5.809  0.00  0.00    +0.038 A 
ATOM      4  C   UNL     1       3.402   5.312  -4.915  0.00  0.00    +0.139 A 
ATOM      5  C   UNL     1       2.346   4.507  -5.295  0.00  0.00    +0.038 A 
ATOM      6  C   UNL     1       2.154   4.209  -6.636  0.00  0.00    +0.018 A 
ENDROOT
BRANCH   1  10
ATOM      7  N   UNL     1       2.022   6.486 -10.327  0.00  0.00    -0.304 N 
ATOM      8  C   UNL     1       3.367   6.490  -9.732  0.00  0.00    +0.112 C 
ATOM      9  C   UNL     1       3.768   5.018  -9.890  0.00  0.00    +0.112 C 
ATOM     10  N   UNL     1       2.823   4.338  -8.994  0.00  0.00    -0.304 N 
ATOM     11  C   UNL     1       1.449   4.384  -9.506  0.00  0.00    +0.112 C 
ATOM     12  C   UNL     1       1.065   5.864  -9.401  0.00  0.00    +0.112 C 
BRANCH   7  16
ATOM     13  C   UNL     1       1.553   6.166 -14.333  0.00  0.00    +0.070 A 
ATOM     14  C   UNL     1       2.850   6.096 -13.913  0.00  0.00    +0.019 A 
ATOM     15  C   UNL     1       3.046   6.039 -12.537  0.00  0.00    +0.016 A 
ATOM     16  C   UNL     1       1.986   5.916 -11.646  0.00  0.00    +0.048 A 
ATOM     17  C   UNL     1       0.814   5.451 -12.221  0.00  0.00    +0.016 A 
ATOM     18  C   UNL     1       0.627   5.441 -13.597  0.00  0.00    +0.019 A 
BRANCH  13  22
ATOM     19  N   UNL     1       1.159   8.516 -16.855  0.00  0.00    -0.202 N 
ATOM     20  C   UNL     1       1.915   7.772 -16.067  0.00  0.00    +0.352 A 
ATOM     21  O   UNL     1       3.113   7.557 -16.426  0.00  0.00    -0.244 OA
ATOM     22  N   UNL     1       1.134   6.781 -15.560  0.00  0.00    -0.240 N 
ATOM     23  C   UNL     1      -0.136   7.077 -15.928  0.00  0.00    +0.207 A 
ATOM     24  N   UNL     1      -0.126   8.223 -16.652  0.00  0.00    -0.144 NA
BRANCH  19  25
ATOM     25  C   UNL     1       1.541   9.986 -17.297  0.00  0.00    +0.110 C 
ATOM     26  C   UNL     1       1.394  10.610 -15.770  0.00  0.00    +0.027 C 
BRANCH  25  28
ATOM     27  C   UNL     1      -0.108  11.709 -16.931  0.00  0.00    +0.002 C 
ATOM     28  C   UNL     1      -0.018  10.403 -17.682  0.00  0.00    +0.025 C 
ENDBRANCH  25  28
ENDBRANCH  19  25
ENDBRANCH  13  22
ENDBRANCH   7  16
ENDBRANCH   1  10
BRANCH   4  29
ATOM     29  O   UNL     1       3.233   6.197  -3.847  0.00  0.00    -0.473 OA
BRANCH  29  30
ATOM     30  C   UNL     1       3.926   6.003  -2.645  0.00  0.00    +0.237 C 
BRANCH  30  31
ATOM     31  C   UNL     1       5.090   7.199  -2.637  0.00  0.00    +0.191 C 
ATOM     32  O   UNL     1       5.088   7.314  -1.112  0.00  0.00    -0.325 OA
ATOM     33  C   UNL     1       3.826   7.594  -0.793  0.00  0.00    +0.231 C 
ATOM     34  O   UNL     1       3.070   7.992  -1.855  0.00  0.00    -0.327 OA
ATOM     35  C   UNL     1       3.971   8.426  -2.783  0.00  0.00    +0.178 C 
BRANCH  33  36
ATOM     36  C   UNL     1       3.645   8.667   0.238  0.00  0.00    +0.041 A 
ATOM     37  C   UNL     1       4.602   8.825   1.236  0.00  0.00    +0.059 A 
ATOM     38 CL   UNL     1       4.908   7.315   2.090  0.00  0.00    -0.082 Cl
ATOM     39  C   UNL     1       4.824  10.070   1.812  0.00  0.00    +0.023 A 
ATOM     40  C   UNL     1       4.352  11.178   1.116  0.00  0.00    +0.058 A 
ATOM     41 CL   UNL     1       5.106  12.757   1.239  0.00  0.00    -0.082 Cl
ATOM     42  C   UNL     1       3.125  11.025   0.481  0.00  0.00    +0.011 A 
ATOM     43  C   UNL     1       2.799   9.746   0.048  0.00  0.00    +0.002 A 
ENDBRANCH  33  36
BRANCH  33  44
ATOM     44  C   UNL     1       3.137   6.383  -0.165  0.00  0.00    +0.190 C 
BRANCH  44  45
ATOM     45  N   UNL     1       1.699   6.558  -0.168  0.00  0.00    -0.225 N 
ATOM     46  N   UNL     1       0.957   6.896   0.890  0.00  0.00    -0.145 NA
ATOM     47  C   UNL     1      -0.118   7.506   0.333  0.00  0.00    +0.221 A 
ATOM     48  N   UNL     1      -0.344   6.768  -0.781  0.00  0.00    -0.201 NA
ATOM     49  C   UNL     1       0.780   6.055  -1.028  0.00  0.00    +0.197 A 
ENDBRANCH  44  45
ENDBRANCH  33  44
ENDBRANCH  30  31
ENDBRANCH  29  30
ENDBRANCH   4  29
TORSDOF 11
ENDMDL
MODEL 9
REMARK VINA RESULT:      -8.1      3.484      4.842
REMARK  Name = 
REMARK  11 active torsions:
REMARK  status: ('A' for Active; 'I' for Inactive)
REMARK    1  A    between atoms: C_2  and  C_3
REMARK    2  A    between atoms: C_3  and  N_5
REMARK    3  A    between atoms: N_8  and  C_9
REMARK    4  A    between atoms: C_12  and  N_13
REMARK    5  A    between atoms: N_16  and  C_17
REMARK    6  A    between atoms: C_20  and  O_21
REMARK    7  A    between atoms: O_21  and  C_22
REMARK    8  A    between atoms: C_22  and  C_23
REMARK    9  A    between atoms: C_26  and  C_27
REMARK   10  A    between atoms: C_26  and  C_33
REMARK   11  A    between atoms: C_27  and  N_28
REMARK                            x       y       z     vdW  Elec       q    Type
REMARK                         _______ _______ _______ _____ _____    ______ ____
ROOT
ATOM      1  C   UNL     1       2.169   4.563  -5.900  0.00  0.00    +0.048 A 
ATOM      2  C   UNL     1       1.317   5.204  -5.008  0.00  0.00    +0.018 A 
ATOM      3  C   UNL     1       1.762   5.841  -3.866  0.00  0.00    +0.038 A 
ATOM      4  C   UNL     1       2.994   5.465  -3.378  0.00  0.00    +0.139 A 
ATOM      5  C   UNL     1       3.931   5.085  -4.318  0.00  0.00    +0.038 A 
ATOM      6  C   UNL     1       3.518   4.679  -5.578  0.00  0.00    +0.018 A 
ENDROOT
BRANCH   1  10
ATOM      7  N   UNL     1       2.207   6.507  -8.606  0.00  0.00    -0.304 N 
ATOM      8  C   UNL     1       3.362   5.781  -8.057  0.00  0.00    +0.112 C 
ATOM      9  C   UNL     1       2.894   4.328  -8.193  0.00  0.00    +0.112 C 
ATOM     10  N   UNL     1       1.769   4.271  -7.250  0.00  0.00    -0.304 N 
ATOM     11  C   UNL     1       0.620   5.055  -7.717  0.00  0.00    +0.112 C 
ATOM     12  C   UNL     1       1.105   6.506  -7.634  0.00  0.00    +0.112 C 
BRANCH   7  16
ATOM     13  C   UNL     1       1.073   6.558 -12.490  0.00  0.00    +0.070 A 
ATOM     14  C   UNL     1       2.343   6.105 -12.283  0.00  0.00    +0.019 A 
ATOM     15  C   UNL     1       2.719   5.918 -10.956  0.00  0.00    +0.016 A 
ATOM     16  C   UNL     1       1.814   6.045  -9.909  0.00  0.00    +0.048 A 
ATOM     17  C   UNL     1       0.486   5.958 -10.295  0.00  0.00    +0.016 A 
ATOM     18  C   UNL     1       0.100   6.079 -11.624  0.00  0.00    +0.019 A 
BRANCH  13  22
ATOM     19  N   UNL     1       1.083   8.008 -15.641  0.00  0.00    -0.202 N 
ATOM     20  C   UNL     1       1.132   6.954 -14.847  0.00  0.00    +0.352 A 
ATOM     21  O   UNL     1       0.845   5.822 -15.346  0.00  0.00    -0.244 OA
ATOM     22  N   UNL     1       0.667   7.333 -13.627  0.00  0.00    -0.240 N 
ATOM     23  C   UNL     1       0.520   8.679 -13.681  0.00  0.00    +0.207 A 
ATOM     24  N   UNL     1       0.883   9.109 -14.915  0.00  0.00    -0.144 NA
BRANCH  19  25
ATOM     25  C   UNL     1       1.907   8.128 -16.986  0.00  0.00    +0.110 C 
ATOM     26  C   UNL     1       3.365   7.830 -16.257  0.00  0.00    +0.027 C 
BRANCH  25  28
ATOM     27  C   UNL     1       3.613   9.834 -16.979  0.00  0.00    +0.002 C 
ATOM     28  C   UNL     1       2.110   9.769 -16.857  0.00  0.00    +0.025 C 
ENDBRANCH  25  28
ENDBRANCH  19  25
ENDBRANCH  13  22
ENDBRANCH   7  16
ENDBRANCH   1  10
BRANCH   4  29
ATOM     29  O   UNL     1       3.218   5.160  -2.032  0.00  0.00    -0.473 OA
BRANCH  29  30
ATOM     30  C   UNL     1       2.875   6.076  -1.028  0.00  0.00    +0.237 C 
BRANCH  30  31
ATOM     31  C   UNL     1       4.282   6.286  -0.155  0.00  0.00    +0.191 C 
ATOM     32  O   UNL     1       3.611   7.194   0.876  0.00  0.00    -0.325 OA
ATOM     33  C   UNL     1       3.097   8.196   0.166  0.00  0.00    +0.231 C 
ATOM     34  O   UNL     1       3.582   8.268  -1.106  0.00  0.00    -0.327 OA
ATOM     35  C   UNL     1       4.768   7.594  -1.067  0.00  0.00    +0.178 C 
BRANCH  33  36
ATOM     36  C   UNL     1       3.305   9.565   0.740  0.00  0.00    +0.041 A 
ATOM     37  C   UNL     1       4.229   9.743   1.765  0.00  0.00    +0.059 A 
ATOM     38 CL   UNL     1       3.932   8.645   3.109  0.00  0.00    -0.082 Cl
ATOM     39  C   UNL     1       4.884  10.959   1.922  0.00  0.00    +0.023 A 
ATOM     40  C   UNL     1       4.874  11.824   0.833  0.00  0.00    +0.058 A 
ATOM     41 CL   UNL     1       6.158  12.983   0.541  0.00  0.00    -0.082 Cl
ATOM     42  C   UNL     1       3.693  11.873   0.102  0.00  0.00    +0.011 A 
ATOM     43  C   UNL     1       2.924  10.717   0.073  0.00  0.00    +0.002 A 
ENDBRANCH  33  36
BRANCH  33  44
ATOM     44  C   UNL     1       1.576   8.080   0.073  0.00  0.00    +0.190 C 
BRANCH  44  45
ATOM     45  N   UNL     1       0.982   8.115   1.394  0.00  0.00    -0.225 N 
ATOM     46  N   UNL     1       0.651   7.047   2.123  0.00  0.00    -0.145 NA
ATOM     47  C   UNL     1       0.724   7.507   3.398  0.00  0.00    +0.221 A 
ATOM     48  N   UNL     1       0.238   8.768   3.295  0.00  0.00    -0.201 NA
ATOM     49  C   UNL     1       0.279   9.111   1.986  0.00  0.00    +0.197 A 
ENDBRANCH  44  45
ENDBRANCH  33  44
ENDBRANCH  30  31
ENDBRANCH  29  30
ENDBRANCH   4  29
TORSDOF 11
ENDMDL
