MODEL 1
REMARK VINA RESULT:      -8.6      0.000      0.000
REMARK  Name = 
REMARK  8 active torsions:
REMARK  status: ('A' for Active; 'I' for Inactive)
REMARK    1  A    between atoms: C_2  and  C_4
REMARK    2  A    between atoms: C_4  and  C_5
REMARK    3  A    between atoms: C_5  and  C_6
REMARK    4  A    between atoms: C_6  and  N_7
REMARK    5  A    between atoms: C_10  and  O_11
REMARK    6  A    between atoms: O_11  and  C_12
REMARK    7  A    between atoms: C_12  and  C_13
REMARK    8  A    between atoms: C_12  and  C_20
REMARK                            x       y       z     vdW  Elec       q    Type
REMARK                         _______ _______ _______ _____ _____    ______ ____
ROOT
ATOM      1  C   UNL     1       1.562   4.841  -6.371  0.00  0.00    +0.177 C 
ENDROOT
BRANCH   1   2
ATOM      2  C   UNL     1       2.388   5.419  -5.051  0.00  0.00    +0.010 A 
ATOM      3  C   UNL     1       2.671   6.776  -5.202  0.00  0.00    -0.001 A 
ATOM      4  C   UNL     1       3.631   7.283  -4.335  0.00  0.00    +0.011 A 
ATOM      5  C   UNL     1       4.753   6.503  -4.081  0.00  0.00    +0.058 A 
ATOM      6 CL   UNL     1       6.302   7.278  -3.770  0.00  0.00    -0.082 Cl
ATOM      7  C   UNL     1       4.692   5.157  -4.414  0.00  0.00    +0.011 A 
ATOM      8  C   UNL     1       3.537   4.631  -4.967  0.00  0.00    -0.001 A 
ENDBRANCH   1   2
BRANCH   1   9
ATOM      9  C   UNL     1       0.209   5.720  -5.979  0.00  0.00    +0.090 A 
ATOM     10  N   UNL     1      -0.206   5.440  -4.723  0.00  0.00    -0.245 NA
ATOM     11  C   UNL     1      -1.468   5.785  -4.404  0.00  0.00    +0.099 A 
ATOM     12  C   UNL     1      -2.473   5.727  -5.355  0.00  0.00    +0.021 A 
ATOM     13  C   UNL     1      -2.072   5.399  -6.642  0.00  0.00    +0.003 A 
ATOM     14  C   UNL     1      -0.721   5.401  -6.968  0.00  0.00    +0.018 A 
ENDBRANCH   1   9
BRANCH   1  15
ATOM     15  O   UNL     1       2.080   5.997  -7.275  0.00  0.00    -0.348 OA
BRANCH  15  19
ATOM     16  N   UNL     1       4.192   5.418 -10.584  0.00  0.00    -0.273 NA
ATOM     17  C   UNL     1       4.496   5.140  -9.208  0.00  0.00    +0.075 C 
ATOM     18  C   UNL     1       3.387   4.451  -8.464  0.00  0.00    +0.047 C 
ATOM     19  C   UNL     1       2.145   5.292  -8.478  0.00  0.00    +0.119 C 
ATOM     20  C   UNL     1       2.141   6.257  -9.633  0.00  0.00    +0.047 C 
ATOM     21  C   UNL     1       2.794   5.641 -10.841  0.00  0.00    +0.075 C 
BRANCH  16  22
ATOM     22  C   UNL     1       5.016   6.576 -10.932  0.00  0.00    +0.073 C 
BRANCH  22  23
ATOM     23  C   UNL     1       6.438   6.122 -10.609  0.00  0.00    +0.029 C 
BRANCH  23  24
ATOM     24  C   UNL     1       7.315   6.843 -11.629  0.00  0.00    +0.115 C 
BRANCH  24  26
ATOM     25  O   UNL     1       9.322   5.782 -12.036  0.00  0.00    -0.246 OA
ATOM     26  C   UNL     1       8.196   5.782 -12.212  0.00  0.00    +0.365 C 
ATOM     27  O   UNL     1       7.592   4.633 -12.680  0.00  0.00    -0.246 OA
ENDBRANCH  24  26
ENDBRANCH  23  24
ENDBRANCH  22  23
ENDBRANCH  16  22
ENDBRANCH  15  19
ENDBRANCH   1  15
TORSDOF 8
ENDMDL
MODEL 2
REMARK VINA RESULT:      -8.2      2.288      4.091
REMARK  Name = 
REMARK  8 active torsions:
REMARK  status: ('A' for Active; 'I' for Inactive)
REMARK    1  A    between atoms: C_2  and  C_4
REMARK    2  A    between atoms: C_4  and  C_5
REMARK    3  A    between atoms: C_5  and  C_6
REMARK    4  A    between atoms: C_6  and  N_7
REMARK    5  A    between atoms: C_10  and  O_11
REMARK    6  A    between atoms: O_11  and  C_12
REMARK    7  A    between atoms: C_12  and  C_13
REMARK    8  A    between atoms: C_12  and  C_20
REMARK                            x       y       z     vdW  Elec       q    Type
REMARK                         _______ _______ _______ _____ _____    ______ ____
ROOT
ATOM      1  C   UNL     1       1.499   6.227  -5.876  0.00  0.00    +0.177 C 
ENDROOT
BRANCH   1   2
ATOM      2  C   UNL     1       0.142   5.447  -5.321  0.00  0.00    +0.010 A 
ATOM      3  C   UNL     1      -1.008   5.997  -5.885  0.00  0.00    -0.001 A 
ATOM      4  C   UNL     1      -2.199   5.657  -5.256  0.00  0.00    +0.011 A 
ATOM      5  C   UNL     1      -2.216   5.633  -3.867  0.00  0.00    +0.058 A 
ATOM      6 CL   UNL     1      -3.687   6.065  -3.004  0.00  0.00    -0.082 Cl
ATOM      7  C   UNL     1      -0.994   5.602  -3.208  0.00  0.00    +0.011 A 
ATOM      8  C   UNL     1       0.185   5.583  -3.933  0.00  0.00    -0.001 A 
ENDBRANCH   1   2
BRANCH   1   9
ATOM      9  C   UNL     1       2.319   5.923  -4.464  0.00  0.00    +0.090 A 
ATOM     10  N   UNL     1       2.924   7.042  -4.003  0.00  0.00    -0.245 NA
ATOM     11  C   UNL     1       3.905   6.877  -3.095  0.00  0.00    +0.099 A 
ATOM     12  C   UNL     1       4.736   5.771  -3.152  0.00  0.00    +0.021 A 
ATOM     13  C   UNL     1       4.422   4.826  -4.119  0.00  0.00    +0.003 A 
ATOM     14  C   UNL     1       3.201   4.890  -4.780  0.00  0.00    +0.018 A 
ENDBRANCH   1   9
BRANCH   1  15
ATOM     15  O   UNL     1       2.061   4.921  -6.510  0.00  0.00    -0.348 OA
BRANCH  15  19
ATOM     16  N   UNL     1       4.165   5.454  -9.832  0.00  0.00    -0.273 NA
ATOM     17  C   UNL     1       3.858   4.264  -9.088  0.00  0.00    +0.075 C 
ATOM     18  C   UNL     1       2.412   4.144  -8.697  0.00  0.00    +0.047 C 
ATOM     19  C   UNL     1       2.000   5.311  -7.849  0.00  0.00    +0.119 C 
ATOM     20  C   UNL     1       2.891   6.503  -8.073  0.00  0.00    +0.047 C 
ATOM     21  C   UNL     1       3.324   6.577  -9.512  0.00  0.00    +0.075 C 
BRANCH  16  22
ATOM     22  C   UNL     1       5.579   5.720  -9.563  0.00  0.00    +0.073 C 
BRANCH  22  23
ATOM     23  C   UNL     1       6.218   5.735 -10.950  0.00  0.00    +0.029 C 
BRANCH  23  24
ATOM     24  C   UNL     1       7.713   5.891 -10.685  0.00  0.00    +0.115 C 
BRANCH  24  26
ATOM     25  O   UNL     1       9.456   5.862 -12.195  0.00  0.00    -0.246 OA
ATOM     26  C   UNL     1       8.381   5.550 -11.981  0.00  0.00    +0.365 C 
ATOM     27  O   UNL     1       7.796   4.578 -12.767  0.00  0.00    -0.246 OA
ENDBRANCH  24  26
ENDBRANCH  23  24
ENDBRANCH  22  23
ENDBRANCH  16  22
ENDBRANCH  15  19
ENDBRANCH   1  15
TORSDOF 8
ENDMDL
MODEL 3
REMARK VINA RESULT:      -8.1      2.901      7.542
REMARK  Name = 
REMARK  8 active torsions:
REMARK  status: ('A' for Active; 'I' for Inactive)
REMARK    1  A    between atoms: C_2  and  C_4
REMARK    2  A    between atoms: C_4  and  C_5
REMARK    3  A    between atoms: C_5  and  C_6
REMARK    4  A    between atoms: C_6  and  N_7
REMARK    5  A    between atoms: C_10  and  O_11
REMARK    6  A    between atoms: O_11  and  C_12
REMARK    7  A    between atoms: C_12  and  C_13
REMARK    8  A    between atoms: C_12  and  C_20
REMARK                            x       y       z     vdW  Elec       q    Type
REMARK                         _______ _______ _______ _____ _____    ______ ____
ROOT
ATOM      1  C   UNL     1       3.402   5.964  -8.922  0.00  0.00    +0.177 C 
ENDROOT
BRANCH   1   2
ATOM      2  C   UNL     1       4.757   5.244  -9.559  0.00  0.00    +0.010 A 
ATOM      3  C   UNL     1       5.907   5.708  -8.924  0.00  0.00    -0.001 A 
ATOM      4  C   UNL     1       7.100   5.436  -9.583  0.00  0.00    +0.011 A 
ATOM      5  C   UNL     1       7.127   5.582 -10.964  0.00  0.00    +0.058 A 
ATOM      6 CL   UNL     1       8.609   6.101 -11.758  0.00  0.00    -0.082 Cl
ATOM      7  C   UNL     1       5.911   5.645 -11.630  0.00  0.00    +0.011 A 
ATOM      8  C   UNL     1       4.726   5.550 -10.921  0.00  0.00    -0.001 A 
ENDBRANCH   1   2
BRANCH   1   9
ATOM      9  C   UNL     1       2.485   5.530 -10.236  0.00  0.00    +0.090 A 
ATOM     10  N   UNL     1       1.893   6.611 -10.794  0.00  0.00    -0.245 NA
ATOM     11  C   UNL     1       0.851   6.381 -11.616  0.00  0.00    +0.099 A 
ATOM     12  C   UNL     1      -0.014   5.328 -11.376  0.00  0.00    +0.021 A 
ATOM     13  C   UNL     1       0.325   4.493 -10.321  0.00  0.00    +0.003 A 
ATOM     14  C   UNL     1       1.587   4.582  -9.745  0.00  0.00    +0.018 A 
ENDBRANCH   1   9
BRANCH   1  15
ATOM     15  O   UNL     1       2.991   4.663  -8.175  0.00  0.00    -0.348 OA
BRANCH  15  19
ATOM     16  N   UNL     1       1.278   6.152  -4.920  0.00  0.00    -0.273 NA
ATOM     17  C   UNL     1       1.133   4.876  -5.566  0.00  0.00    +0.075 C 
ATOM     18  C   UNL     1       2.436   4.226  -5.935  0.00  0.00    +0.047 C 
ATOM     19  C   UNL     1       3.213   5.106  -6.870  0.00  0.00    +0.119 C 
ATOM     20  C   UNL     1       2.802   6.549  -6.746  0.00  0.00    +0.047 C 
ATOM     21  C   UNL     1       2.453   6.879  -5.320  0.00  0.00    +0.075 C 
BRANCH  16  22
ATOM     22  C   UNL     1       0.042   6.875  -5.218  0.00  0.00    +0.073 C 
BRANCH  22  23
ATOM     23  C   UNL     1      -1.013   5.775  -5.305  0.00  0.00    +0.029 C 
BRANCH  23  24
ATOM     24  C   UNL     1      -2.230   6.349  -4.584  0.00  0.00    +0.115 C 
BRANCH  24  26
ATOM     25  O   UNL     1      -3.409   4.956  -3.174  0.00  0.00    -0.246 OA
ATOM     26  C   UNL     1      -2.419   5.482  -3.378  0.00  0.00    +0.365 C 
ATOM     27  O   UNL     1      -1.289   5.067  -2.704  0.00  0.00    -0.246 OA
ENDBRANCH  24  26
ENDBRANCH  23  24
ENDBRANCH  22  23
ENDBRANCH  16  22
ENDBRANCH  15  19
ENDBRANCH   1  15
TORSDOF 8
ENDMDL
MODEL 4
REMARK VINA RESULT:      -7.8      2.974      7.615
REMARK  Name = 
REMARK  8 active torsions:
REMARK  status: ('A' for Active; 'I' for Inactive)
REMARK    1  A    between atoms: C_2  and  C_4
REMARK    2  A    between atoms: C_4  and  C_5
REMARK    3  A    between atoms: C_5  and  C_6
REMARK    4  A    between atoms: C_6  and  N_7
REMARK    5  A    between atoms: C_10  and  O_11
REMARK    6  A    between atoms: O_11  and  C_12
REMARK    7  A    between atoms: C_12  and  C_13
REMARK    8  A    between atoms: C_12  and  C_20
REMARK                            x       y       z     vdW  Elec       q    Type
REMARK                         _______ _______ _______ _____ _____    ______ ____
ROOT
ATOM      1  C   UNL     1       2.798   6.599  -6.685  0.00  0.00    +0.177 C 
ENDROOT
BRANCH   1   2
ATOM      2  C   UNL     1       3.858   6.134  -5.494  0.00  0.00    +0.010 A 
ATOM      3  C   UNL     1       3.349   5.053  -4.776  0.00  0.00    -0.001 A 
ATOM      4  C   UNL     1       3.980   4.794  -3.565  0.00  0.00    +0.011 A 
ATOM      5  C   UNL     1       4.326   5.879  -2.769  0.00  0.00    +0.058 A 
ATOM      6 CL   UNL     1       4.304   5.719  -1.017  0.00  0.00    -0.082 Cl
ATOM      7  C   UNL     1       4.347   7.135  -3.362  0.00  0.00    +0.011 A 
ATOM      8  C   UNL     1       4.041   7.271  -4.705  0.00  0.00    -0.001 A 
ENDBRANCH   1   2
BRANCH   1   9
ATOM      9  C   UNL     1       3.572   5.663  -7.817  0.00  0.00    +0.090 A 
ATOM     10  N   UNL     1       4.909   5.657  -7.611  0.00  0.00    -0.245 NA
ATOM     11  C   UNL     1       5.684   5.257  -8.636  0.00  0.00    +0.099 A 
ATOM     12  C   UNL     1       5.318   5.533  -9.943  0.00  0.00    +0.021 A 
ATOM     13  C   UNL     1       4.081   6.139 -10.110  0.00  0.00    +0.003 A 
ATOM     14  C   UNL     1       3.190   6.201  -9.045  0.00  0.00    +0.018 A 
ENDBRANCH   1   9
BRANCH   1  15
ATOM     15  O   UNL     1       1.822   5.433  -6.353  0.00  0.00    -0.348 OA
BRANCH  15  19
ATOM     16  N   UNL     1      -1.814   6.493  -5.171  0.00  0.00    -0.273 NA
ATOM     17  C   UNL     1      -0.515   6.928  -4.739  0.00  0.00    +0.075 C 
ATOM     18  C   UNL     1       0.426   7.256  -5.864  0.00  0.00    +0.047 C 
ATOM     19  C   UNL     1       0.634   6.054  -6.739  0.00  0.00    +0.119 C 
ATOM     20  C   UNL     1      -0.509   5.081  -6.627  0.00  0.00    +0.047 C 
ATOM     21  C   UNL     1      -1.811   5.812  -6.439  0.00  0.00    +0.075 C 
BRANCH  16  22
ATOM     22  C   UNL     1      -2.317   5.652  -4.085  0.00  0.00    +0.073 C 
BRANCH  22  23
ATOM     23  C   UNL     1      -2.319   6.582  -2.873  0.00  0.00    +0.029 C 
BRANCH  23  24
ATOM     24  C   UNL     1      -2.282   5.646  -1.668  0.00  0.00    +0.115 C 
BRANCH  24  26
ATOM     25  O   UNL     1      -0.143   4.791  -1.553  0.00  0.00    -0.246 OA
ATOM     26  C   UNL     1      -0.850   5.624  -1.230  0.00  0.00    +0.365 C 
ATOM     27  O   UNL     1      -0.322   6.788  -0.710  0.00  0.00    -0.246 OA
ENDBRANCH  24  26
ENDBRANCH  23  24
ENDBRANCH  22  23
ENDBRANCH  16  22
ENDBRANCH  15  19
ENDBRANCH   1  15
TORSDOF 8
ENDMDL
MODEL 5
REMARK VINA RESULT:      -7.7      2.908      7.541
REMARK  Name = 
REMARK  8 active torsions:
REMARK  status: ('A' for Active; 'I' for Inactive)
REMARK    1  A    between atoms: C_2  and  C_4
REMARK    2  A    between atoms: C_4  and  C_5
REMARK    3  A    between atoms: C_5  and  C_6
REMARK    4  A    between atoms: C_6  and  N_7
REMARK    5  A    between atoms: C_10  and  O_11
REMARK    6  A    between atoms: O_11  and  C_12
REMARK    7  A    between atoms: C_12  and  C_13
REMARK    8  A    between atoms: C_12  and  C_20
REMARK                            x       y       z     vdW  Elec       q    Type
REMARK                         _______ _______ _______ _____ _____    ______ ____
ROOT
ATOM      1  C   UNL     1       3.301   6.392  -9.985  0.00  0.00    +0.177 C 
ENDROOT
BRANCH   1   2
ATOM      2  C   UNL     1       4.355   6.530 -11.261  0.00  0.00    +0.010 A 
ATOM      3  C   UNL     1       4.926   5.295 -11.564  0.00  0.00    -0.001 A 
ATOM      4  C   UNL     1       6.052   5.346 -12.377  0.00  0.00    +0.011 A 
ATOM      5  C   UNL     1       6.984   6.347 -12.134  0.00  0.00    +0.058 A 
ATOM      6 CL   UNL     1       8.691   6.042 -12.432  0.00  0.00    -0.082 Cl
ATOM      7  C   UNL     1       6.586   7.423 -11.353  0.00  0.00    +0.011 A 
ATOM      8  C   UNL     1       5.295   7.479 -10.855  0.00  0.00    -0.001 A 
ENDBRANCH   1   2
BRANCH   1   9
ATOM      9  C   UNL     1       2.015   6.133 -11.002  0.00  0.00    +0.090 A 
ATOM     10  N   UNL     1       2.219   6.723 -12.203  0.00  0.00    -0.245 NA
ATOM     11  C   UNL     1       1.137   6.912 -12.983  0.00  0.00    +0.099 A 
ATOM     12  C   UNL     1      -0.095   7.196 -12.419  0.00  0.00    +0.021 A 
ATOM     13  C   UNL     1      -0.148   7.167 -11.033  0.00  0.00    +0.003 A 
ATOM     14  C   UNL     1       0.909   6.625 -10.310  0.00  0.00    +0.018 A 
ENDBRANCH   1   9
BRANCH   1  15
ATOM     15  O   UNL     1       3.549   4.860  -9.870  0.00  0.00    -0.348 OA
BRANCH  15  19
ATOM     16  N   UNL     1       1.977   5.577  -6.298  0.00  0.00    -0.273 NA
ATOM     17  C   UNL     1       1.604   4.645  -7.326  0.00  0.00    +0.075 C 
ATOM     18  C   UNL     1       2.756   3.868  -7.895  0.00  0.00    +0.047 C 
ATOM     19  C   UNL     1       3.770   4.798  -8.494  0.00  0.00    +0.119 C 
ATOM     20  C   UNL     1       3.675   6.179  -7.901  0.00  0.00    +0.047 C 
ATOM     21  C   UNL     1       3.308   6.106  -6.444  0.00  0.00    +0.075 C 
BRANCH  16  22
ATOM     22  C   UNL     1       0.953   6.621  -6.336  0.00  0.00    +0.073 C 
BRANCH  22  23
ATOM     23  C   UNL     1       0.109   6.350  -5.092  0.00  0.00    +0.029 C 
BRANCH  23  24
ATOM     24  C   UNL     1      -0.859   7.528  -5.018  0.00  0.00    +0.115 C 
BRANCH  24  26
ATOM     25  O   UNL     1      -2.554   6.348  -6.044  0.00  0.00    -0.246 OA
ATOM     26  C   UNL     1      -2.225   6.923  -5.117  0.00  0.00    +0.365 C 
ATOM     27  O   UNL     1      -2.952   6.788  -3.951  0.00  0.00    -0.246 OA
ENDBRANCH  24  26
ENDBRANCH  23  24
ENDBRANCH  22  23
ENDBRANCH  16  22
ENDBRANCH  15  19
ENDBRANCH   1  15
TORSDOF 8
ENDMDL
MODEL 6
REMARK VINA RESULT:      -7.7      3.260      4.799
REMARK  Name = 
REMARK  8 active torsions:
REMARK  status: ('A' for Active; 'I' for Inactive)
REMARK    1  A    between atoms: C_2  and  C_4
REMARK    2  A    between atoms: C_4  and  C_5
REMARK    3  A    between atoms: C_5  and  C_6
REMARK    4  A    between atoms: C_6  and  N_7
REMARK    5  A    between atoms: C_10  and  O_11
REMARK    6  A    between atoms: O_11  and  C_12
REMARK    7  A    between atoms: C_12  and  C_13
REMARK    8  A    between atoms: C_12  and  C_20
REMARK                            x       y       z     vdW  Elec       q    Type
REMARK                         _______ _______ _______ _____ _____    ______ ____
ROOT
ATOM      1  C   UNL     1       1.386   6.363  -8.149  0.00  0.00    +0.177 C 
ENDROOT
BRANCH   1   2
ATOM      2  C   UNL     1       0.444   5.774  -9.384  0.00  0.00    +0.010 A 
ATOM      3  C   UNL     1       0.950   4.563  -9.854  0.00  0.00    -0.001 A 
ATOM      4  C   UNL     1       0.452   4.149 -11.084  0.00  0.00    +0.011 A 
ATOM      5  C   UNL     1       0.290   5.109 -12.075  0.00  0.00    +0.058 A 
ATOM      6 CL   UNL     1       0.510   4.666 -13.763  0.00  0.00    -0.082 Cl
ATOM      7  C   UNL     1       0.295   6.443 -11.689  0.00  0.00    +0.011 A 
ATOM      8  C   UNL     1       0.446   6.777 -10.354  0.00  0.00    -0.001 A 
ENDBRANCH   1   2
BRANCH   1   9
ATOM      9  C   UNL     1       0.363   5.743  -6.998  0.00  0.00    +0.090 A 
ATOM     10  N   UNL     1      -0.888   5.592  -7.490  0.00  0.00    -0.245 NA
ATOM     11  C   UNL     1      -1.885   5.454  -6.596  0.00  0.00    +0.099 A 
ATOM     12  C   UNL     1      -1.836   6.116  -5.381  0.00  0.00    +0.021 A 
ATOM     13  C   UNL     1      -0.670   6.824  -5.124  0.00  0.00    +0.003 A 
ATOM     14  C   UNL     1       0.446   6.636  -5.929  0.00  0.00    +0.018 A 
ENDBRANCH   1   9
BRANCH   1  15
ATOM     15  O   UNL     1       2.250   5.069  -8.112  0.00  0.00    -0.348 OA
BRANCH  15  19
ATOM     16  N   UNL     1       5.461   6.311 -10.084  0.00  0.00    -0.273 NA
ATOM     17  C   UNL     1       4.098   6.762 -10.117  0.00  0.00    +0.075 C 
ATOM     18  C   UNL     1       3.484   6.958  -8.760  0.00  0.00    +0.047 C 
ATOM     19  C   UNL     1       3.502   5.672  -7.987  0.00  0.00    +0.119 C 
ATOM     20  C   UNL     1       4.569   4.737  -8.489  0.00  0.00    +0.047 C 
ATOM     21  C   UNL     1       5.783   5.507  -8.934  0.00  0.00    +0.075 C 
BRANCH  16  22
ATOM     22  C   UNL     1       5.659   5.592 -11.342  0.00  0.00    +0.073 C 
BRANCH  22  23
ATOM     23  C   UNL     1       4.296   5.673 -12.027  0.00  0.00    +0.029 C 
BRANCH  23  24
ATOM     24  C   UNL     1       4.492   4.965 -13.364  0.00  0.00    +0.115 C 
BRANCH  24  26
ATOM     25  O   UNL     1       5.414   6.534 -14.780  0.00  0.00    -0.246 OA
ATOM     26  C   UNL     1       4.458   6.051 -14.394  0.00  0.00    +0.365 C 
ATOM     27  O   UNL     1       3.287   6.223 -15.104  0.00  0.00    -0.246 OA
ENDBRANCH  24  26
ENDBRANCH  23  24
ENDBRANCH  22  23
ENDBRANCH  16  22
ENDBRANCH  15  19
ENDBRANCH   1  15
TORSDOF 8
ENDMDL
MODEL 7
REMARK VINA RESULT:      -7.6      3.137      8.550
REMARK  Name = 
REMARK  8 active torsions:
REMARK  status: ('A' for Active; 'I' for Inactive)
REMARK    1  A    between atoms: C_2  and  C_4
REMARK    2  A    between atoms: C_4  and  C_5
REMARK    3  A    between atoms: C_5  and  C_6
REMARK    4  A    between atoms: C_6  and  N_7
REMARK    5  A    between atoms: C_10  and  O_11
REMARK    6  A    between atoms: O_11  and  C_12
REMARK    7  A    between atoms: C_12  and  C_13
REMARK    8  A    between atoms: C_12  and  C_20
REMARK                            x       y       z     vdW  Elec       q    Type
REMARK                         _______ _______ _______ _____ _____    ______ ____
ROOT
ATOM      1  C   UNL     1       3.566   4.607  -9.072  0.00  0.00    +0.177 C 
ENDROOT
BRANCH   1   2
ATOM      2  C   UNL     1       2.566   5.018 -10.333  0.00  0.00    +0.010 A 
ATOM      3  C   UNL     1       2.519   6.401 -10.494  0.00  0.00    -0.001 A 
ATOM      4  C   UNL     1       1.477   6.872 -11.284  0.00  0.00    +0.011 A 
ATOM      5  C   UNL     1       0.227   6.286 -11.126  0.00  0.00    +0.058 A 
ATOM      6 CL   UNL     1      -1.225   7.252 -11.355  0.00  0.00    -0.082 Cl
ATOM      7  C   UNL     1       0.165   5.064 -10.469  0.00  0.00    +0.011 A 
ATOM      8  C   UNL     1       1.325   4.466 -10.008  0.00  0.00    -0.001 A 
ENDBRANCH   1   2
BRANCH   1   9
ATOM      9  C   UNL     1       4.782   5.579  -9.647  0.00  0.00    +0.090 A 
ATOM     10  N   UNL     1       5.107   5.251 -10.919  0.00  0.00    -0.245 NA
ATOM     11  C   UNL     1       6.294   5.690 -11.380  0.00  0.00    +0.099 A 
ATOM     12  C   UNL     1       7.382   5.793 -10.531  0.00  0.00    +0.021 A 
ATOM     13  C   UNL     1       7.136   5.520  -9.193  0.00  0.00    +0.003 A 
ATOM     14  C   UNL     1       5.827   5.418  -8.737  0.00  0.00    +0.018 A 
ENDBRANCH   1   9
BRANCH   1  15
ATOM     15  O   UNL     1       3.024   5.767  -8.188  0.00  0.00    -0.348 OA
BRANCH  15  19
ATOM     16  N   UNL     1       1.415   5.169  -4.610  0.00  0.00    -0.273 NA
ATOM     17  C   UNL     1       1.006   4.733  -5.916  0.00  0.00    +0.075 C 
ATOM     18  C   UNL     1       2.117   4.153  -6.744  0.00  0.00    +0.047 C 
ATOM     19  C   UNL     1       3.207   5.166  -6.941  0.00  0.00    +0.119 C 
ATOM     20  C   UNL     1       3.190   6.216  -5.863  0.00  0.00    +0.047 C 
ATOM     21  C   UNL     1       2.782   5.616  -4.545  0.00  0.00    +0.075 C 
BRANCH  16  22
ATOM     22  C   UNL     1       0.465   6.219  -4.241  0.00  0.00    +0.073 C 
BRANCH  22  23
ATOM     23  C   UNL     1      -0.900   5.565  -4.446  0.00  0.00    +0.029 C 
BRANCH  23  24
ATOM     24  C   UNL     1      -1.898   6.564  -3.867  0.00  0.00    +0.115 C 
BRANCH  24  26
ATOM     25  O   UNL     1      -2.573   4.747  -2.617  0.00  0.00    -0.246 OA
ATOM     26  C   UNL     1      -2.876   5.739  -3.089  0.00  0.00    +0.365 C 
ATOM     27  O   UNL     1      -4.042   6.350  -2.675  0.00  0.00    -0.246 OA
ENDBRANCH  24  26
ENDBRANCH  23  24
ENDBRANCH  22  23
ENDBRANCH  16  22
ENDBRANCH  15  19
ENDBRANCH   1  15
TORSDOF 8
ENDMDL
MODEL 8
REMARK VINA RESULT:      -7.5      3.609      8.725
REMARK  Name = 
REMARK  8 active torsions:
REMARK  status: ('A' for Active; 'I' for Inactive)
REMARK    1  A    between atoms: C_2  and  C_4
REMARK    2  A    between atoms: C_4  and  C_5
REMARK    3  A    between atoms: C_5  and  C_6
REMARK    4  A    between atoms: C_6  and  N_7
REMARK    5  A    between atoms: C_10  and  O_11
REMARK    6  A    between atoms: O_11  and  C_12
REMARK    7  A    between atoms: C_12  and  C_13
REMARK    8  A    between atoms: C_12  and  C_20
REMARK                            x       y       z     vdW  Elec       q    Type
REMARK                         _______ _______ _______ _____ _____    ______ ____
ROOT
ATOM      1  C   UNL     1       3.574   5.326 -10.376  0.00  0.00    +0.177 C 
ENDROOT
BRANCH   1   2
ATOM      2  C   UNL     1       3.032   6.263 -11.636  0.00  0.00    +0.010 A 
ATOM      3  C   UNL     1       1.652   6.445 -11.557  0.00  0.00    -0.001 A 
ATOM      4  C   UNL     1       1.048   6.921 -12.714  0.00  0.00    +0.011 A 
ATOM      5  C   UNL     1       1.474   6.400 -13.929  0.00  0.00    +0.058 A 
ATOM      6 CL   UNL     1       0.331   6.236 -15.257  0.00  0.00    -0.082 Cl
ATOM      7  C   UNL     1       2.683   5.717 -13.951  0.00  0.00    +0.011 A 
ATOM      8  C   UNL     1       3.425   5.585 -12.790  0.00  0.00    -0.001 A 
ENDBRANCH   1   2
BRANCH   1   9
ATOM      9  C   UNL     1       4.799   6.393 -10.035  0.00  0.00    +0.090 A 
ATOM     10  N   UNL     1       5.142   7.106 -11.133  0.00  0.00    -0.245 NA
ATOM     11  C   UNL     1       6.336   7.729 -11.108  0.00  0.00    +0.099 A 
ATOM     12  C   UNL     1       7.412   7.161 -10.448  0.00  0.00    +0.021 A 
ATOM     13  C   UNL     1       7.145   5.992  -9.749  0.00  0.00    +0.003 A 
ATOM     14  C   UNL     1       5.829   5.602  -9.528  0.00  0.00    +0.018 A 
ENDBRANCH   1   9
BRANCH   1  15
ATOM     15  O   UNL     1       2.635   6.042  -9.362  0.00  0.00    -0.348 OA
BRANCH  15  19
ATOM     16  N   UNL     1       0.856   4.638  -6.105  0.00  0.00    -0.273 NA
ATOM     17  C   UNL     1       0.418   5.594  -7.085  0.00  0.00    +0.075 C 
ATOM     18  C   UNL     1       0.637   5.157  -8.506  0.00  0.00    +0.047 C 
ATOM     19  C   UNL     1       2.094   4.906  -8.758  0.00  0.00    +0.119 C 
ATOM     20  C   UNL     1       2.835   4.607  -7.483  0.00  0.00    +0.047 C 
ATOM     21  C   UNL     1       1.965   3.828  -6.534  0.00  0.00    +0.075 C 
BRANCH  16  22
ATOM     22  C   UNL     1       1.167   5.427  -4.913  0.00  0.00    +0.073 C 
BRANCH  22  23
ATOM     23  C   UNL     1      -0.111   6.222  -4.657  0.00  0.00    +0.029 C 
BRANCH  23  24
ATOM     24  C   UNL     1      -0.537   5.824  -3.246  0.00  0.00    +0.115 C 
BRANCH  24  26
ATOM     25  O   UNL     1      -2.468   4.781  -2.539  0.00  0.00    -0.246 OA
ATOM     26  C   UNL     1      -1.951   5.349  -3.380  0.00  0.00    +0.365 C 
ATOM     27  O   UNL     1      -2.717   5.894  -4.390  0.00  0.00    -0.246 OA
ENDBRANCH  24  26
ENDBRANCH  23  24
ENDBRANCH  22  23
ENDBRANCH  16  22
ENDBRANCH  15  19
ENDBRANCH   1  15
TORSDOF 8
ENDMDL
MODEL 9
REMARK VINA RESULT:      -7.4      4.323      8.519
REMARK  Name = 
REMARK  8 active torsions:
REMARK  status: ('A' for Active; 'I' for Inactive)
REMARK    1  A    between atoms: C_2  and  C_4
REMARK    2  A    between atoms: C_4  and  C_5
REMARK    3  A    between atoms: C_5  and  C_6
REMARK    4  A    between atoms: C_6  and  N_7
REMARK    5  A    between atoms: C_10  and  O_11
REMARK    6  A    between atoms: O_11  and  C_12
REMARK    7  A    between atoms: C_12  and  C_13
REMARK    8  A    between atoms: C_12  and  C_20
REMARK                            x       y       z     vdW  Elec       q    Type
REMARK                         _______ _______ _______ _____ _____    ______ ____
ROOT
ATOM      1  C   UNL     1       1.058   5.460  -4.722  0.00  0.00    +0.177 C 
ENDROOT
BRANCH   1   2
ATOM      2  C   UNL     1       2.269   5.438  -5.859  0.00  0.00    +0.010 A 
ATOM      3  C   UNL     1       2.350   6.664  -6.517  0.00  0.00    -0.001 A 
ATOM      4  C   UNL     1       3.086   6.657  -7.696  0.00  0.00    +0.011 A 
ATOM      5  C   UNL     1       2.932   5.573  -8.551  0.00  0.00    +0.058 A 
ATOM      6 CL   UNL     1       3.070   5.807 -10.289  0.00  0.00    -0.082 Cl
ATOM      7  C   UNL     1       2.345   4.424  -8.038  0.00  0.00    +0.011 A 
ATOM      8  C   UNL     1       1.946   4.382  -6.713  0.00  0.00    -0.001 A 
ENDBRANCH   1   2
BRANCH   1   9
ATOM      9  C   UNL     1       2.116   5.906  -3.523  0.00  0.00    +0.090 A 
ATOM     10  N   UNL     1       3.209   5.110  -3.518  0.00  0.00    -0.245 NA
ATOM     11  C   UNL     1       3.962   5.111  -2.401  0.00  0.00    +0.099 A 
ATOM     12  C   UNL     1       3.373   5.264  -1.157  0.00  0.00    +0.021 A 
ATOM     13  C   UNL     1       2.008   5.515  -1.160  0.00  0.00    +0.003 A 
ATOM     14  C   UNL     1       1.367   5.848  -2.348  0.00  0.00    +0.018 A 
ENDBRANCH   1   9
BRANCH   1  15
ATOM     15  O   UNL     1       0.728   6.952  -5.018  0.00  0.00    -0.348 OA
BRANCH  15  19
ATOM     16  N   UNL     1      -2.919   6.510  -3.518  0.00  0.00    -0.273 NA
ATOM     17  C   UNL     1      -1.995   7.608  -3.450  0.00  0.00    +0.075 C 
ATOM     18  C   UNL     1      -1.374   7.967  -4.771  0.00  0.00    +0.047 C 
ATOM     19  C   UNL     1      -0.623   6.796  -5.332  0.00  0.00    +0.119 C 
ATOM     20  C   UNL     1      -1.128   5.493  -4.772  0.00  0.00    +0.047 C 
ATOM     21  C   UNL     1      -2.615   5.553  -4.548  0.00  0.00    +0.075 C 
BRANCH  16  22
ATOM     22  C   UNL     1      -2.906   5.916  -2.181  0.00  0.00    +0.073 C 
BRANCH  22  23
ATOM     23  C   UNL     1      -2.356   7.030  -1.292  0.00  0.00    +0.029 C 
BRANCH  23  24
ATOM     24  C   UNL     1      -1.641   6.301  -0.157  0.00  0.00    +0.115 C 
BRANCH  24  26
ATOM     25  O   UNL     1      -0.087   7.118   1.337  0.00  0.00    -0.246 OA
ATOM     26  C   UNL     1      -0.927   7.370   0.610  0.00  0.00    +0.365 C 
ATOM     27  O   UNL     1      -1.072   8.673   0.180  0.00  0.00    -0.246 OA
ENDBRANCH  24  26
ENDBRANCH  23  24
ENDBRANCH  22  23
ENDBRANCH  16  22
ENDBRANCH  15  19
ENDBRANCH   1  15
TORSDOF 8
ENDMDL
