MODEL 1
REMARK VINA RESULT:      -7.4      0.000      0.000
REMARK  Name = 
REMARK  2 active torsions:
REMARK  status: ('A' for Active; 'I' for Inactive)
REMARK    1  A    between atoms: C_8  and  N_9
REMARK    2  A    between atoms: C_10  and  C_12
REMARK                            x       y       z     vdW  Elec       q    Type
REMARK                         _______ _______ _______ _____ _____    ______ ____
ROOT
ATOM      1  N   UNL     1       4.887   5.238 -10.759  0.00  0.00    -0.179 NA
ATOM      2  C   UNL     1       4.349   6.264  -9.938  0.00  0.00    +0.260 C 
ATOM      3  O   UNL     1       4.310   7.409 -10.494  0.00  0.00    -0.272 OA
ENDROOT
BRANCH   1   6
ATOM      4  C   UNL     1       5.159   5.242 -13.341  0.00  0.00    +0.032 C 
ATOM      5  C   UNL     1       5.961   5.524 -12.869  0.00  0.00    -0.007 A 
ATOM      6  C   UNL     1       6.077   5.487 -11.484  0.00  0.00    +0.065 A 
ATOM      7  C   UNL     1       7.250   5.672 -10.805  0.00  0.00    -0.007 A 
ATOM      8  C   UNL     1       7.378   5.652  -9.332  0.00  0.00    +0.032 C 
ATOM      9  C   UNL     1       8.421   5.856 -11.514  0.00  0.00    -0.003 A 
ATOM     10  C   UNL     1       8.348   6.001 -12.872  0.00  0.00    -0.001 A 
ATOM     11  C   UNL     1       7.117   5.946 -13.518  0.00  0.00    -0.003 A 
ENDBRANCH   1   6
BRANCH   2  12
ATOM     12  C   UNL     1       2.837   6.016  -9.418  0.00  0.00    +0.137 C 
ATOM     13  N   UNL     1       3.276   5.045  -8.258  0.00  0.00    -0.265 NA
ATOM     14  C   UNL     1       4.110   5.703  -7.362  0.00  0.00    +0.090 C 
ATOM     15  C   UNL     1       2.028   4.673  -7.631  0.00  0.00    +0.073 C 
ATOM     16  C   UNL     1       1.082   5.844  -7.648  0.00  0.00    +0.017 C 
ATOM     17  C   UNL     1       1.796   7.152  -7.453  0.00  0.00    +0.003 C 
ATOM     18  C   UNL     1       2.877   7.364  -8.471  0.00  0.00    +0.025 C 
ENDBRANCH   2  12
TORSDOF 2
ENDMDL
MODEL 2
REMARK VINA RESULT:      -7.3      0.206      1.920
REMARK  Name = 
REMARK  2 active torsions:
REMARK  status: ('A' for Active; 'I' for Inactive)
REMARK    1  A    between atoms: C_8  and  N_9
REMARK    2  A    between atoms: C_10  and  C_12
REMARK                            x       y       z     vdW  Elec       q    Type
REMARK                         _______ _______ _______ _____ _____    ______ ____
ROOT
ATOM      1  N   UNL     1       5.020   5.223 -10.553  0.00  0.00    -0.179 NA
ATOM      2  C   UNL     1       4.387   6.283  -9.851  0.00  0.00    +0.260 C 
ATOM      3  O   UNL     1       4.283   7.362 -10.520  0.00  0.00    -0.272 OA
ENDROOT
BRANCH   1   6
ATOM      4  C   UNL     1       7.342   5.805  -9.551  0.00  0.00    +0.032 C 
ATOM      5  C   UNL     1       7.358   5.688 -10.516  0.00  0.00    -0.007 A 
ATOM      6  C   UNL     1       6.209   5.486 -11.273  0.00  0.00    +0.065 A 
ATOM      7  C   UNL     1       6.171   5.528 -12.640  0.00  0.00    -0.007 A 
ATOM      8  C   UNL     1       4.958   5.296 -13.452  0.00  0.00    +0.032 C 
ATOM      9  C   UNL     1       7.320   5.843 -13.340  0.00  0.00    -0.003 A 
ATOM     10  C   UNL     1       8.497   5.952 -12.651  0.00  0.00    -0.001 A 
ATOM     11  C   UNL     1       8.523   5.763 -11.273  0.00  0.00    -0.003 A 
ENDBRANCH   1   6
BRANCH   2  12
ATOM     12  C   UNL     1       2.881   5.978  -9.343  0.00  0.00    +0.137 C 
ATOM     13  N   UNL     1       3.349   5.057  -8.155  0.00  0.00    -0.265 NA
ATOM     14  C   UNL     1       4.141   5.773  -7.265  0.00  0.00    +0.090 C 
ATOM     15  C   UNL     1       2.112   4.642  -7.533  0.00  0.00    +0.073 C 
ATOM     16  C   UNL     1       1.113   5.767  -7.590  0.00  0.00    +0.017 C 
ATOM     17  C   UNL     1       1.764   7.112  -7.418  0.00  0.00    +0.003 C 
ATOM     18  C   UNL     1       2.847   7.349  -8.429  0.00  0.00    +0.025 C 
ENDBRANCH   2  12
TORSDOF 2
ENDMDL
MODEL 3
REMARK VINA RESULT:      -6.9      2.922      7.621
REMARK  Name = 
REMARK  2 active torsions:
REMARK  status: ('A' for Active; 'I' for Inactive)
REMARK    1  A    between atoms: C_8  and  N_9
REMARK    2  A    between atoms: C_10  and  C_12
REMARK                            x       y       z     vdW  Elec       q    Type
REMARK                         _______ _______ _______ _____ _____    ______ ____
ROOT
ATOM      1  N   UNL     1       1.040   5.319  -6.214  0.00  0.00    -0.179 NA
ATOM      2  C   UNL     1       1.570   6.205  -7.190  0.00  0.00    +0.260 C 
ATOM      3  O   UNL     1       1.562   7.430  -6.841  0.00  0.00    -0.272 OA
ENDROOT
BRANCH   1   6
ATOM      4  C   UNL     1      -1.332   5.295  -7.266  0.00  0.00    +0.032 C 
ATOM      5  C   UNL     1      -1.337   5.477  -6.312  0.00  0.00    -0.007 A 
ATOM      6  C   UNL     1      -0.174   5.650  -5.569  0.00  0.00    +0.065 A 
ATOM      7  C   UNL     1      -0.145   6.114  -4.282  0.00  0.00    -0.007 A 
ATOM      8  C   UNL     1       1.085   6.283  -3.479  0.00  0.00    +0.032 C 
ATOM      9  C   UNL     1      -1.325   6.494  -3.672  0.00  0.00    -0.003 A 
ATOM     10  C   UNL     1      -2.505   6.250  -4.320  0.00  0.00    -0.001 A 
ATOM     11  C   UNL     1      -2.504   5.647  -5.574  0.00  0.00    -0.003 A 
ENDBRANCH   1   6
BRANCH   2  12
ATOM     12  C   UNL     1       3.102   5.920  -7.627  0.00  0.00    +0.137 C 
ATOM     13  N   UNL     1       2.727   4.715  -8.569  0.00  0.00    -0.265 NA
ATOM     14  C   UNL     1       1.888   5.139  -9.592  0.00  0.00    +0.090 C 
ATOM     15  C   UNL     1       4.002   4.275  -9.089  0.00  0.00    +0.073 C 
ATOM     16  C   UNL     1       4.901   5.464  -9.300  0.00  0.00    +0.017 C 
ATOM     17  C   UNL     1       4.141   6.673  -9.770  0.00  0.00    +0.003 C 
ATOM     18  C   UNL     1       3.031   7.043  -8.832  0.00  0.00    +0.025 C 
ENDBRANCH   2  12
TORSDOF 2
ENDMDL
MODEL 4
REMARK VINA RESULT:      -6.9      3.765      8.597
REMARK  Name = 
REMARK  2 active torsions:
REMARK  status: ('A' for Active; 'I' for Inactive)
REMARK    1  A    between atoms: C_8  and  N_9
REMARK    2  A    between atoms: C_10  and  C_12
REMARK                            x       y       z     vdW  Elec       q    Type
REMARK                         _______ _______ _______ _____ _____    ______ ____
ROOT
ATOM      1  N   UNL     1       0.428   4.994  -5.202  0.00  0.00    -0.179 NA
ATOM      2  C   UNL     1       1.159   5.862  -6.056  0.00  0.00    +0.260 C 
ATOM      3  O   UNL     1       1.548   6.938  -5.496  0.00  0.00    -0.272 OA
ENDROOT
BRANCH   1   6
ATOM      4  C   UNL     1       0.489   5.247  -2.619  0.00  0.00    +0.032 C 
ATOM      5  C   UNL     1      -0.297   5.648  -3.026  0.00  0.00    -0.007 A 
ATOM      6  C   UNL     1      -0.591   5.531  -4.381  0.00  0.00    +0.065 A 
ATOM      7  C   UNL     1      -1.783   5.898  -4.944  0.00  0.00    -0.007 A 
ATOM      8  C   UNL     1      -2.096   5.794  -6.385  0.00  0.00    +0.032 C 
ATOM      9  C   UNL     1      -2.799   6.367  -4.134  0.00  0.00    -0.003 A 
ATOM     10  C   UNL     1      -2.529   6.596  -2.812  0.00  0.00    -0.001 A 
ATOM     11  C   UNL     1      -1.260   6.343  -2.301  0.00  0.00    -0.003 A 
ENDBRANCH   1   6
BRANCH   2  12
ATOM     12  C   UNL     1       2.504   5.232  -6.699  0.00  0.00    +0.137 C 
ATOM     13  N   UNL     1       1.747   4.562  -7.906  0.00  0.00    -0.265 NA
ATOM     14  C   UNL     1       1.115   5.527  -8.682  0.00  0.00    +0.090 C 
ATOM     15  C   UNL     1       2.799   3.904  -8.648  0.00  0.00    +0.073 C 
ATOM     16  C   UNL     1       4.054   4.734  -8.594  0.00  0.00    +0.017 C 
ATOM     17  C   UNL     1       3.761   6.208  -8.625  0.00  0.00    +0.003 C 
ATOM     18  C   UNL     1       2.835   6.623  -7.519  0.00  0.00    +0.025 C 
ENDBRANCH   2  12
TORSDOF 2
ENDMDL
MODEL 5
REMARK VINA RESULT:      -6.9      6.813      8.741
REMARK  Name = 
REMARK  2 active torsions:
REMARK  status: ('A' for Active; 'I' for Inactive)
REMARK    1  A    between atoms: C_8  and  N_9
REMARK    2  A    between atoms: C_10  and  C_12
REMARK                            x       y       z     vdW  Elec       q    Type
REMARK                         _______ _______ _______ _____ _____    ______ ____
ROOT
ATOM      1  N   UNL     1       0.425   5.399  -3.423  0.00  0.00    -0.179 NA
ATOM      2  C   UNL     1       1.692   6.042  -3.434  0.00  0.00    +0.260 C 
ATOM      3  O   UNL     1       1.662   7.244  -3.852  0.00  0.00    -0.272 OA
ENDROOT
BRANCH   1   6
ATOM      4  C   UNL     1      -1.957   6.428  -3.479  0.00  0.00    +0.032 C 
ATOM      5  C   UNL     1      -1.621   6.188  -4.359  0.00  0.00    -0.007 A 
ATOM      6  C   UNL     1      -0.418   5.518  -4.553  0.00  0.00    +0.065 A 
ATOM      7  C   UNL     1      -0.020   4.981  -5.747  0.00  0.00    -0.007 A 
ATOM      8  C   UNL     1       1.265   4.284  -5.966  0.00  0.00    +0.032 C 
ATOM      9  C   UNL     1      -0.869   5.045  -6.835  0.00  0.00    -0.003 A 
ATOM     10  C   UNL     1      -2.018   5.779  -6.726  0.00  0.00    -0.001 A 
ATOM     11  C   UNL     1      -2.324   6.430  -5.535  0.00  0.00    -0.003 A 
ENDBRANCH   1   6
BRANCH   2  12
ATOM     12  C   UNL     1       2.436   6.132  -2.000  0.00  0.00    +0.137 C 
ATOM     13  N   UNL     1       3.386   4.910  -2.290  0.00  0.00    -0.265 NA
ATOM     14  C   UNL     1       4.191   5.169  -3.393  0.00  0.00    +0.090 C 
ATOM     15  C   UNL     1       4.175   4.794  -1.085  0.00  0.00    +0.073 C 
ATOM     16  C   UNL     1       4.455   6.164  -0.527  0.00  0.00    +0.017 C 
ATOM     17  C   UNL     1       4.668   7.184  -1.611  0.00  0.00    +0.003 C 
ATOM     18  C   UNL     1       3.507   7.254  -2.559  0.00  0.00    +0.025 C 
ENDBRANCH   2  12
TORSDOF 2
ENDMDL
MODEL 6
REMARK VINA RESULT:      -6.8      1.316      2.578
REMARK  Name = 
REMARK  2 active torsions:
REMARK  status: ('A' for Active; 'I' for Inactive)
REMARK    1  A    between atoms: C_8  and  N_9
REMARK    2  A    between atoms: C_10  and  C_12
REMARK                            x       y       z     vdW  Elec       q    Type
REMARK                         _______ _______ _______ _____ _____    ______ ____
ROOT
ATOM      1  N   UNL     1       5.123   6.754 -10.214  0.00  0.00    -0.179 NA
ATOM      2  C   UNL     1       4.446   5.759  -9.459  0.00  0.00    +0.260 C 
ATOM      3  O   UNL     1       5.174   4.767  -9.132  0.00  0.00    -0.272 OA
ENDROOT
BRANCH   1   6
ATOM      4  C   UNL     1       7.705   6.974 -10.355  0.00  0.00    +0.032 C 
ATOM      5  C   UNL     1       7.319   6.493 -11.106  0.00  0.00    -0.007 A 
ATOM      6  C   UNL     1       5.948   6.358 -11.293  0.00  0.00    +0.065 A 
ATOM      7  C   UNL     1       5.371   5.876 -12.436  0.00  0.00    -0.007 A 
ATOM      8  C   UNL     1       3.916   5.711 -12.636  0.00  0.00    +0.032 C 
ATOM      9  C   UNL     1       6.173   5.545 -13.512  0.00  0.00    -0.003 A 
ATOM     10  C   UNL     1       7.531   5.564 -13.346  0.00  0.00    -0.001 A 
ATOM     11  C   UNL     1       8.083   5.926 -12.121  0.00  0.00    -0.003 A 
ENDBRANCH   1   6
BRANCH   2  12
ATOM     12  C   UNL     1       3.804   6.266  -8.063  0.00  0.00    +0.137 C 
ATOM     13  N   UNL     1       2.646   7.076  -8.759  0.00  0.00    -0.265 NA
ATOM     14  C   UNL     1       1.840   6.227  -9.508  0.00  0.00    +0.090 C 
ATOM     15  C   UNL     1       1.913   7.648  -7.653  0.00  0.00    +0.073 C 
ATOM     16  C   UNL     1       1.900   6.682  -6.498  0.00  0.00    +0.017 C 
ATOM     17  C   UNL     1       1.806   5.253  -6.956  0.00  0.00    +0.003 C 
ATOM     18  C   UNL     1       2.911   4.889  -7.904  0.00  0.00    +0.025 C 
ENDBRANCH   2  12
TORSDOF 2
ENDMDL
MODEL 7
REMARK VINA RESULT:      -6.8      4.453      9.083
REMARK  Name = 
REMARK  2 active torsions:
REMARK  status: ('A' for Active; 'I' for Inactive)
REMARK    1  A    between atoms: C_8  and  N_9
REMARK    2  A    between atoms: C_10  and  C_12
REMARK                            x       y       z     vdW  Elec       q    Type
REMARK                         _______ _______ _______ _____ _____    ______ ____
ROOT
ATOM      1  N   UNL     1       0.262   6.757  -4.478  0.00  0.00    -0.179 NA
ATOM      2  C   UNL     1       0.691   5.704  -5.330  0.00  0.00    +0.260 C 
ATOM      3  O   UNL     1      -0.250   5.140  -5.975  0.00  0.00    -0.272 OA
ENDROOT
BRANCH   1   6
ATOM      4  C   UNL     1      -2.065   7.879  -4.729  0.00  0.00    +0.032 C 
ATOM      5  C   UNL     1      -2.038   7.202  -4.033  0.00  0.00    -0.007 A 
ATOM      6  C   UNL     1      -0.867   6.557  -3.649  0.00  0.00    +0.065 A 
ATOM      7  C   UNL     1      -0.753   5.762  -2.541  0.00  0.00    -0.007 A 
ATOM      8  C   UNL     1       0.482   5.059  -2.138  0.00  0.00    +0.032 C 
ATOM      9  C   UNL     1      -1.840   5.615  -1.700  0.00  0.00    -0.003 A 
ATOM     10  C   UNL     1      -3.041   6.145  -2.083  0.00  0.00    -0.001 A 
ATOM     11  C   UNL     1      -3.153   6.830  -3.289  0.00  0.00    -0.003 A 
ENDBRANCH   1   6
BRANCH   2  12
ATOM     12  C   UNL     1       1.764   6.124  -6.466  0.00  0.00    +0.137 C 
ATOM     13  N   UNL     1       3.012   5.885  -5.535  0.00  0.00    -0.265 NA
ATOM     14  C   UNL     1       3.069   4.557  -5.128  0.00  0.00    +0.090 C 
ATOM     15  C   UNL     1       4.138   6.220  -6.377  0.00  0.00    +0.073 C 
ATOM     16  C   UNL     1       3.855   5.799  -7.795  0.00  0.00    +0.017 C 
ATOM     17  C   UNL     1       3.073   4.517  -7.860  0.00  0.00    +0.003 C 
ATOM     18  C   UNL     1       1.786   4.600  -7.094  0.00  0.00    +0.025 C 
ENDBRANCH   2  12
TORSDOF 2
ENDMDL
MODEL 8
REMARK VINA RESULT:      -6.7      4.326      8.946
REMARK  Name = 
REMARK  2 active torsions:
REMARK  status: ('A' for Active; 'I' for Inactive)
REMARK    1  A    between atoms: C_8  and  N_9
REMARK    2  A    between atoms: C_10  and  C_12
REMARK                            x       y       z     vdW  Elec       q    Type
REMARK                         _______ _______ _______ _____ _____    ______ ____
ROOT
ATOM      1  N   UNL     1       0.061   5.150  -4.634  0.00  0.00    -0.179 NA
ATOM      2  C   UNL     1       0.901   6.099  -5.277  0.00  0.00    +0.260 C 
ATOM      3  O   UNL     1       1.340   7.013  -4.506  0.00  0.00    -0.272 OA
ENDROOT
BRANCH   1   6
ATOM      4  C   UNL     1      -2.174   6.276  -5.321  0.00  0.00    +0.032 C 
ATOM      5  C   UNL     1      -2.110   6.099  -4.368  0.00  0.00    -0.007 A 
ATOM      6  C   UNL     1      -0.957   5.607  -3.765  0.00  0.00    +0.065 A 
ATOM      7  C   UNL     1      -0.762   5.547  -2.412  0.00  0.00    -0.007 A 
ATOM      8  C   UNL     1       0.452   5.009  -1.764  0.00  0.00    +0.032 C 
ATOM      9  C   UNL     1      -1.732   6.048  -1.565  0.00  0.00    -0.003 A 
ATOM     10  C   UNL     1      -2.925   6.450  -2.101  0.00  0.00    -0.001 A 
ATOM     11  C   UNL     1      -3.141   6.366  -3.473  0.00  0.00    -0.003 A 
ENDBRANCH   1   6
BRANCH   2  12
ATOM     12  C   UNL     1       2.227   5.490  -5.976  0.00  0.00    +0.137 C 
ATOM     13  N   UNL     1       1.433   4.829  -7.165  0.00  0.00    -0.265 NA
ATOM     14  C   UNL     1       0.765   5.798  -7.904  0.00  0.00    +0.090 C 
ATOM     15  C   UNL     1       2.462   4.190  -7.953  0.00  0.00    +0.073 C 
ATOM     16  C   UNL     1       3.711   5.031  -7.933  0.00  0.00    +0.017 C 
ATOM     17  C   UNL     1       3.404   6.503  -7.933  0.00  0.00    +0.003 C 
ATOM     18  C   UNL     1       2.516   6.895  -6.789  0.00  0.00    +0.025 C 
ENDBRANCH   2  12
TORSDOF 2
ENDMDL
MODEL 9
REMARK VINA RESULT:      -6.7      6.595      9.404
REMARK  Name = 
REMARK  2 active torsions:
REMARK  status: ('A' for Active; 'I' for Inactive)
REMARK    1  A    between atoms: C_8  and  N_9
REMARK    2  A    between atoms: C_10  and  C_12
REMARK                            x       y       z     vdW  Elec       q    Type
REMARK                         _______ _______ _______ _____ _____    ______ ____
ROOT
ATOM      1  N   UNL     1       0.346   6.872  -4.000  0.00  0.00    -0.179 NA
ATOM      2  C   UNL     1       1.468   6.010  -3.874  0.00  0.00    +0.260 C 
ATOM      3  O   UNL     1       1.318   4.875  -4.431  0.00  0.00    -0.272 OA
ENDROOT
BRANCH   1   6
ATOM      4  C   UNL     1      -1.505   6.417  -5.762  0.00  0.00    +0.032 C 
ATOM      5  C   UNL     1      -1.741   6.114  -4.870  0.00  0.00    -0.007 A 
ATOM      6  C   UNL     1      -0.949   6.358  -3.753  0.00  0.00    +0.065 A 
ATOM      7  C   UNL     1      -1.347   6.133  -2.463  0.00  0.00    -0.007 A 
ATOM      8  C   UNL     1      -0.505   6.372  -1.273  0.00  0.00    +0.032 C 
ATOM      9  C   UNL     1      -2.632   5.687  -2.219  0.00  0.00    -0.003 A 
ATOM     10  C   UNL     1      -3.416   5.337  -3.283  0.00  0.00    -0.001 A 
ATOM     11  C   UNL     1      -2.927   5.446  -4.581  0.00  0.00    -0.003 A 
ENDBRANCH   1   6
BRANCH   2  12
ATOM     12  C   UNL     1       2.852   6.581  -4.489  0.00  0.00    +0.137 C 
ATOM     13  N   UNL     1       3.265   7.325  -3.163  0.00  0.00    -0.265 NA
ATOM     14  C   UNL     1       3.409   6.418  -2.120  0.00  0.00    +0.090 C 
ATOM     15  C   UNL     1       4.529   7.942  -3.495  0.00  0.00    +0.073 C 
ATOM     16  C   UNL     1       5.307   7.042  -4.418  0.00  0.00    +0.017 C 
ATOM     17  C   UNL     1       5.110   5.588  -4.091  0.00  0.00    +0.003 C 
ATOM     18  C   UNL     1       3.662   5.196  -4.109  0.00  0.00    +0.025 C 
ENDBRANCH   2  12
TORSDOF 2
ENDMDL
