MODEL 1
REMARK VINA RESULT:      -9.0      0.000      0.000
REMARK  Name = 
REMARK  7 active torsions:
REMARK  status: ('A' for Active; 'I' for Inactive)
REMARK    1  A    between atoms: C_2  and  C_3
REMARK    2  A    between atoms: C_3  and  N_4
REMARK    3  A    between atoms: N_7  and  C_8
REMARK    4  A    between atoms: C_8  and  C_9
REMARK    5  A    between atoms: C_9  and  C_10
REMARK    6  A    between atoms: C_10  and  N_11
REMARK    7  A    between atoms: C_22  and  C_23
REMARK                            x       y       z     vdW  Elec       q    Type
REMARK                         _______ _______ _______ _____ _____    ______ ____
ROOT
ATOM      1  N   UNL     1       1.273   5.672  -5.190  0.00  0.00    -0.286 N 
ATOM      2  C   UNL     1       1.819   5.810  -3.875  0.00  0.00    +0.058 A 
ATOM      3  C   UNL     1       1.148   5.258  -2.789  0.00  0.00    +0.043 A 
ATOM      4  C   UNL     1       1.763   5.250  -1.568  0.00  0.00    +0.008 A 
ATOM      5  C   UNL     1       3.065   5.715  -1.423  0.00  0.00    +0.004 A 
ATOM      6  C   UNL     1       3.711   6.366  -2.466  0.00  0.00    +0.073 A 
ATOM      7  S   UNL     1      -0.637   5.467  -2.797  0.00  0.00    -0.084 S 
ATOM      8  C   UNL     1      -1.063   5.826  -4.506  0.00  0.00    +0.043 A 
ATOM      9  C   UNL     1      -2.314   6.274  -4.873  0.00  0.00    +0.008 A 
ATOM     10  C   UNL     1      -2.752   6.036  -6.165  0.00  0.00    +0.001 A 
ATOM     11  C   UNL     1      -1.873   5.492  -7.093  0.00  0.00    +0.001 A 
ATOM     12  C   UNL     1      -0.539   5.446  -6.753  0.00  0.00    +0.015 A 
ATOM     13  C   UNL     1       3.151   6.179  -3.724  0.00  0.00    +0.019 A 
ATOM     14  C   UNL     1      -0.106   5.432  -5.432  0.00  0.00    +0.058 A 
ENDROOT
BRANCH   6  15
ATOM     15  C   UNL     1       4.695   7.447  -2.189  0.00  0.00    +0.419 C 
ATOM     16  F   UNL     1       5.294   7.281  -0.948  0.00  0.00    -0.166 F 
ATOM     17  F   UNL     1       5.697   7.462  -3.140  0.00  0.00    -0.166 F 
ATOM     18  F   UNL     1       4.093   8.701  -2.157  0.00  0.00    -0.166 F 
ENDBRANCH   6  15
BRANCH   1  19
ATOM     19  C   UNL     1       2.194   5.495  -6.311  0.00  0.00    +0.097 C 
BRANCH  19  20
ATOM     20  C   UNL     1       2.400   4.042  -6.648  0.00  0.00    +0.039 C 
BRANCH  20  21
ATOM     21  C   UNL     1       2.647   3.940  -8.125  0.00  0.00    +0.074 C 
BRANCH  21  25
ATOM     22  N   UNL     1       5.066   5.338 -10.881  0.00  0.00    -0.268 NA
ATOM     23  C   UNL     1       3.695   5.715 -11.038  0.00  0.00    +0.090 C 
ATOM     24  C   UNL     1       2.853   5.642  -9.825  0.00  0.00    +0.090 C 
ATOM     25  N   UNL     1       3.390   5.022  -8.681  0.00  0.00    -0.270 NA
ATOM     26  C   UNL     1       4.801   4.937  -8.565  0.00  0.00    +0.090 C 
ATOM     27  C   UNL     1       5.536   5.775  -9.571  0.00  0.00    +0.090 C 
BRANCH  22  28
ATOM     28  C   UNL     1       5.882   5.845 -11.956  0.00  0.00    +0.108 C 
BRANCH  28  30
ATOM     29  O   UNL     1       7.703   4.583 -12.920  0.00  0.00    -0.219 OA
ATOM     30  C   UNL     1       7.295   5.343 -11.828  0.00  0.00    +0.199 C 
ENDBRANCH  28  30
ENDBRANCH  22  28
ENDBRANCH  21  25
ENDBRANCH  20  21
ENDBRANCH  19  20
ENDBRANCH   1  19
TORSDOF 7
ENDMDL
MODEL 2
REMARK VINA RESULT:      -8.9      3.976      7.678
REMARK  Name = 
REMARK  7 active torsions:
REMARK  status: ('A' for Active; 'I' for Inactive)
REMARK    1  A    between atoms: C_2  and  C_3
REMARK    2  A    between atoms: C_3  and  N_4
REMARK    3  A    between atoms: N_7  and  C_8
REMARK    4  A    between atoms: C_8  and  C_9
REMARK    5  A    between atoms: C_9  and  C_10
REMARK    6  A    between atoms: C_10  and  N_11
REMARK    7  A    between atoms: C_22  and  C_23
REMARK                            x       y       z     vdW  Elec       q    Type
REMARK                         _______ _______ _______ _____ _____    ______ ____
ROOT
ATOM      1  N   UNL     1       2.265   5.751  -6.446  0.00  0.00    -0.286 N 
ATOM      2  C   UNL     1       0.841   5.857  -6.539  0.00  0.00    +0.058 A 
ATOM      3  C   UNL     1       0.170   5.223  -7.579  0.00  0.00    +0.043 A 
ATOM      4  C   UNL     1      -1.196   5.192  -7.560  0.00  0.00    +0.008 A 
ATOM      5  C   UNL     1      -1.906   5.716  -6.486  0.00  0.00    +0.004 A 
ATOM      6  C   UNL     1      -1.265   6.446  -5.494  0.00  0.00    +0.073 A 
ATOM      7  S   UNL     1       0.957   5.340  -9.191  0.00  0.00    -0.084 S 
ATOM      8  C   UNL     1       2.672   5.753  -8.850  0.00  0.00    +0.043 A 
ATOM      9  C   UNL     1       3.543   6.152  -9.842  0.00  0.00    +0.008 A 
ATOM     10  C   UNL     1       4.900   5.950  -9.655  0.00  0.00    +0.001 A 
ATOM     11  C   UNL     1       5.358   5.495  -8.425  0.00  0.00    +0.001 A 
ATOM     12  C   UNL     1       4.468   5.502  -7.373  0.00  0.00    +0.015 A 
ATOM     13  C   UNL     1       0.114   6.287  -5.435  0.00  0.00    +0.019 A 
ATOM     14  C   UNL     1       3.092   5.451  -7.561  0.00  0.00    +0.058 A 
ENDROOT
BRANCH   6  15
ATOM     15  C   UNL     1      -1.964   7.562  -4.803  0.00  0.00    +0.419 C 
ATOM     16  F   UNL     1      -3.122   7.929  -5.477  0.00  0.00    -0.166 F 
ATOM     17  F   UNL     1      -2.322   7.205  -3.518  0.00  0.00    -0.166 F 
ATOM     18  F   UNL     1      -1.179   8.710  -4.744  0.00  0.00    -0.166 F 
ENDBRANCH   6  15
BRANCH   1  19
ATOM     19  C   UNL     1       2.871   5.672  -5.118  0.00  0.00    +0.097 C 
BRANCH  19  20
ATOM     20  C   UNL     1       3.637   6.921  -4.772  0.00  0.00    +0.039 C 
BRANCH  20  21
ATOM     21  C   UNL     1       4.698   6.552  -3.776  0.00  0.00    +0.074 C 
BRANCH  21  25
ATOM     22  N   UNL     1       1.836   6.422  -1.096  0.00  0.00    -0.268 NA
ATOM     23  C   UNL     1       2.616   5.228  -1.199  0.00  0.00    +0.090 C 
ATOM     24  C   UNL     1       3.957   5.372  -1.805  0.00  0.00    +0.090 C 
ATOM     25  N   UNL     1       4.281   6.599  -2.415  0.00  0.00    -0.270 NA
ATOM     26  C   UNL     1       3.557   7.754  -2.021  0.00  0.00    +0.090 C 
ATOM     27  C   UNL     1       2.717   7.546  -0.795  0.00  0.00    +0.090 C 
BRANCH  22  28
ATOM     28  C   UNL     1       0.775   6.281  -0.128  0.00  0.00    +0.108 C 
BRANCH  28  30
ATOM     29  O   UNL     1      -0.762   5.068  -1.543  0.00  0.00    -0.219 OA
ATOM     30  C   UNL     1      -0.562   6.238  -0.816  0.00  0.00    +0.199 C 
ENDBRANCH  28  30
ENDBRANCH  22  28
ENDBRANCH  21  25
ENDBRANCH  20  21
ENDBRANCH  19  20
ENDBRANCH   1  19
TORSDOF 7
ENDMDL
MODEL 3
REMARK VINA RESULT:      -8.9      1.667      2.489
REMARK  Name = 
REMARK  7 active torsions:
REMARK  status: ('A' for Active; 'I' for Inactive)
REMARK    1  A    between atoms: C_2  and  C_3
REMARK    2  A    between atoms: C_3  and  N_4
REMARK    3  A    between atoms: N_7  and  C_8
REMARK    4  A    between atoms: C_8  and  C_9
REMARK    5  A    between atoms: C_9  and  C_10
REMARK    6  A    between atoms: C_10  and  N_11
REMARK    7  A    between atoms: C_22  and  C_23
REMARK                            x       y       z     vdW  Elec       q    Type
REMARK                         _______ _______ _______ _____ _____    ______ ____
ROOT
ATOM      1  N   UNL     1       0.386   5.559  -3.941  0.00  0.00    -0.286 N 
ATOM      2  C   UNL     1       1.669   5.791  -3.352  0.00  0.00    +0.058 A 
ATOM      3  C   UNL     1       1.848   5.580  -1.989  0.00  0.00    +0.043 A 
ATOM      4  C   UNL     1       3.113   5.641  -1.474  0.00  0.00    +0.008 A 
ATOM      5  C   UNL     1       4.212   5.835  -2.303  0.00  0.00    +0.004 A 
ATOM      6  C   UNL     1       4.047   6.153  -3.645  0.00  0.00    +0.073 A 
ATOM      7  S   UNL     1       0.514   6.162  -0.936  0.00  0.00    -0.084 S 
ATOM      8  C   UNL     1      -0.910   6.319  -2.020  0.00  0.00    +0.043 A 
ATOM      9  C   UNL     1      -2.067   6.957  -1.627  0.00  0.00    +0.008 A 
ATOM     10  C   UNL     1      -3.259   6.610  -2.241  0.00  0.00    +0.001 A 
ATOM     11  C   UNL     1      -3.239   5.747  -3.328  0.00  0.00    +0.001 A 
ATOM     12  C   UNL     1      -2.016   5.473  -3.900  0.00  0.00    +0.015 A 
ATOM     13  C   UNL     1       2.789   5.886  -4.170  0.00  0.00    +0.019 A 
ATOM     14  C   UNL     1      -0.822   5.583  -3.195  0.00  0.00    +0.058 A 
ENDROOT
BRANCH   6  15
ATOM     15  C   UNL     1       5.028   7.028  -4.340  0.00  0.00    +0.419 C 
ATOM     16  F   UNL     1       5.133   6.702  -5.686  0.00  0.00    -0.166 F 
ATOM     17  F   UNL     1       4.654   8.355  -4.259  0.00  0.00    -0.166 F 
ATOM     18  F   UNL     1       6.309   6.893  -3.815  0.00  0.00    -0.166 F 
ENDBRANCH   6  15
BRANCH   1  19
ATOM     19  C   UNL     1       0.331   5.008  -5.294  0.00  0.00    +0.097 C 
BRANCH  19  20
ATOM     20  C   UNL     1       0.129   6.079  -6.333  0.00  0.00    +0.039 C 
BRANCH  20  21
ATOM     21  C   UNL     1       0.569   5.527  -7.658  0.00  0.00    +0.074 C 
BRANCH  21  25
ATOM     22  N   UNL     1       3.744   5.378  -9.958  0.00  0.00    -0.268 NA
ATOM     23  C   UNL     1       3.570   6.611  -9.254  0.00  0.00    +0.090 C 
ATOM     24  C   UNL     1       2.714   6.562  -8.050  0.00  0.00    +0.090 C 
ATOM     25  N   UNL     1       1.979   5.387  -7.806  0.00  0.00    -0.270 NA
ATOM     26  C   UNL     1       2.430   4.180  -8.399  0.00  0.00    +0.090 C 
ATOM     27  C   UNL     1       3.803   4.281  -8.996  0.00  0.00    +0.090 C 
BRANCH  22  28
ATOM     28  C   UNL     1       4.901   5.417 -10.819  0.00  0.00    +0.108 C 
BRANCH  28  30
ATOM     29  O   UNL     1       5.201   4.750 -13.122  0.00  0.00    -0.219 OA
ATOM     30  C   UNL     1       4.483   5.570 -12.256  0.00  0.00    +0.199 C 
ENDBRANCH  28  30
ENDBRANCH  22  28
ENDBRANCH  21  25
ENDBRANCH  20  21
ENDBRANCH  19  20
ENDBRANCH   1  19
TORSDOF 7
ENDMDL
MODEL 4
REMARK VINA RESULT:      -8.7      5.548      9.662
REMARK  Name = 
REMARK  7 active torsions:
REMARK  status: ('A' for Active; 'I' for Inactive)
REMARK    1  A    between atoms: C_2  and  C_3
REMARK    2  A    between atoms: C_3  and  N_4
REMARK    3  A    between atoms: N_7  and  C_8
REMARK    4  A    between atoms: C_8  and  C_9
REMARK    5  A    between atoms: C_9  and  C_10
REMARK    6  A    between atoms: C_10  and  N_11
REMARK    7  A    between atoms: C_22  and  C_23
REMARK                            x       y       z     vdW  Elec       q    Type
REMARK                         _______ _______ _______ _____ _____    ______ ____
ROOT
ATOM      1  N   UNL     1       3.931   5.792 -10.691  0.00  0.00    -0.286 N 
ATOM      2  C   UNL     1       3.305   5.962 -11.966  0.00  0.00    +0.058 A 
ATOM      3  C   UNL     1       3.934   5.484 -13.110  0.00  0.00    +0.043 A 
ATOM      4  C   UNL     1       3.251   5.502 -14.295  0.00  0.00    +0.008 A 
ATOM      5  C   UNL     1       1.926   5.918 -14.347  0.00  0.00    +0.004 A 
ATOM      6  C   UNL     1       1.315   6.498 -13.242  0.00  0.00    +0.073 A 
ATOM      7  S   UNL     1       5.707   5.767 -13.192  0.00  0.00    -0.084 S 
ATOM      8  C   UNL     1       6.215   6.072 -11.496  0.00  0.00    +0.043 A 
ATOM      9  C   UNL     1       7.467   6.555 -11.179  0.00  0.00    +0.008 A 
ATOM     10  C   UNL     1       7.987   6.282  -9.925  0.00  0.00    +0.001 A 
ATOM     11  C   UNL     1       7.185   5.664  -8.975  0.00  0.00    +0.001 A 
ATOM     12  C   UNL     1       5.836   5.576  -9.241  0.00  0.00    +0.015 A 
ATOM     13  C   UNL     1       1.954   6.281 -12.027  0.00  0.00    +0.019 A 
ATOM     14  C   UNL     1       5.329   5.599 -10.536  0.00  0.00    +0.058 A 
ENDROOT
BRANCH   6  15
ATOM     15  C   UNL     1       0.276   7.547 -13.416  0.00  0.00    +0.419 C 
ATOM     16  F   UNL     1       0.841   8.813 -13.495  0.00  0.00    -0.166 F 
ATOM     17  F   UNL     1      -0.451   7.339 -14.572  0.00  0.00    -0.166 F 
ATOM     18  F   UNL     1      -0.604   7.590 -12.339  0.00  0.00    -0.166 F 
ENDBRANCH   6  15
BRANCH   1  19
ATOM     19  C   UNL     1       3.083   5.530  -9.529  0.00  0.00    +0.097 C 
BRANCH  19  20
ATOM     20  C   UNL     1       2.764   6.789  -8.767  0.00  0.00    +0.039 C 
BRANCH  20  21
ATOM     21  C   UNL     1       1.282   6.823  -8.530  0.00  0.00    +0.074 C 
BRANCH  21  25
ATOM     22  N   UNL     1      -1.217   6.506  -5.522  0.00  0.00    -0.268 NA
ATOM     23  C   UNL     1      -1.428   5.565  -6.579  0.00  0.00    +0.090 C 
ATOM     24  C   UNL     1      -0.275   5.313  -7.470  0.00  0.00    +0.090 C 
ATOM     25  N   UNL     1       0.851   6.150  -7.351  0.00  0.00    -0.270 NA
ATOM     26  C   UNL     1       1.043   6.844  -6.128  0.00  0.00    +0.090 C 
ATOM     27  C   UNL     1       0.147   6.370  -5.022  0.00  0.00    +0.090 C 
BRANCH  22  28
ATOM     28  C   UNL     1      -2.203   6.361  -4.479  0.00  0.00    +0.108 C 
BRANCH  28  30
ATOM     29  O   UNL     1      -2.674   4.720  -2.770  0.00  0.00    -0.219 OA
ATOM     30  C   UNL     1      -1.679   5.480  -3.378  0.00  0.00    +0.199 C 
ENDBRANCH  28  30
ENDBRANCH  22  28
ENDBRANCH  21  25
ENDBRANCH  20  21
ENDBRANCH  19  20
ENDBRANCH   1  19
TORSDOF 7
ENDMDL
MODEL 5
REMARK VINA RESULT:      -8.7      4.400      8.138
REMARK  Name = 
REMARK  7 active torsions:
REMARK  status: ('A' for Active; 'I' for Inactive)
REMARK    1  A    between atoms: C_2  and  C_3
REMARK    2  A    between atoms: C_3  and  N_4
REMARK    3  A    between atoms: N_7  and  C_8
REMARK    4  A    between atoms: C_8  and  C_9
REMARK    5  A    between atoms: C_9  and  C_10
REMARK    6  A    between atoms: C_10  and  N_11
REMARK    7  A    between atoms: C_22  and  C_23
REMARK                            x       y       z     vdW  Elec       q    Type
REMARK                         _______ _______ _______ _____ _____    ______ ____
ROOT
ATOM      1  N   UNL     1       2.223   6.060  -6.332  0.00  0.00    -0.286 N 
ATOM      2  C   UNL     1       0.793   6.045  -6.379  0.00  0.00    +0.058 A 
ATOM      3  C   UNL     1       0.142   5.223  -7.292  0.00  0.00    +0.043 A 
ATOM      4  C   UNL     1      -1.216   5.093  -7.211  0.00  0.00    +0.008 A 
ATOM      5  C   UNL     1      -1.932   5.708  -6.190  0.00  0.00    +0.004 A 
ATOM      6  C   UNL     1      -1.319   6.616  -5.336  0.00  0.00    +0.073 A 
ATOM      7  S   UNL     1       0.866   5.171  -8.936  0.00  0.00    -0.084 S 
ATOM      8  C   UNL     1       2.552   5.755  -8.729  0.00  0.00    +0.043 A 
ATOM      9  C   UNL     1       3.357   6.075  -9.802  0.00  0.00    +0.008 A 
ATOM     10  C   UNL     1       4.731   6.004  -9.647  0.00  0.00    +0.001 A 
ATOM     11  C   UNL     1       5.262   5.761  -8.386  0.00  0.00    +0.001 A 
ATOM     12  C   UNL     1       4.409   5.849  -7.309  0.00  0.00    +0.015 A 
ATOM     13  C   UNL     1       0.069   6.570  -5.314  0.00  0.00    +0.019 A 
ATOM     14  C   UNL     1       3.035   5.669  -7.429  0.00  0.00    +0.058 A 
ENDROOT
BRANCH   6  15
ATOM     15  C   UNL     1      -2.084   7.762  -4.776  0.00  0.00    +0.419 C 
ATOM     16  F   UNL     1      -1.307   8.912  -4.723  0.00  0.00    -0.166 F 
ATOM     17  F   UNL     1      -3.195   8.042  -5.548  0.00  0.00    -0.166 F 
ATOM     18  F   UNL     1      -2.499   7.521  -3.470  0.00  0.00    -0.166 F 
ENDBRANCH   6  15
BRANCH   1  19
ATOM     19  C   UNL     1       2.875   6.213  -5.033  0.00  0.00    +0.097 C 
BRANCH  19  20
ATOM     20  C   UNL     1       3.045   4.894  -4.327  0.00  0.00    +0.039 C 
BRANCH  20  21
ATOM     21  C   UNL     1       3.157   5.169  -2.855  0.00  0.00    +0.074 C 
BRANCH  21  25
ATOM     22  N   UNL     1       1.117   6.642   0.155  0.00  0.00    -0.268 NA
ATOM     23  C   UNL     1       2.224   7.443  -0.268  0.00  0.00    +0.090 C 
ATOM     24  C   UNL     1       2.712   7.209  -1.645  0.00  0.00    +0.090 C 
ATOM     25  N   UNL     1       2.205   6.100  -2.349  0.00  0.00    -0.270 NA
ATOM     26  C   UNL     1       0.957   5.562  -1.942  0.00  0.00    +0.090 C 
ATOM     27  C   UNL     1       0.215   6.435  -0.973  0.00  0.00    +0.090 C 
BRANCH  22  28
ATOM     28  C   UNL     1       0.449   7.222   1.295  0.00  0.00    +0.108 C 
BRANCH  28  30
ATOM     29  O   UNL     1      -0.582   9.367   0.875  0.00  0.00    -0.219 OA
ATOM     30  C   UNL     1       0.584   8.721   1.278  0.00  0.00    +0.199 C 
ENDBRANCH  28  30
ENDBRANCH  22  28
ENDBRANCH  21  25
ENDBRANCH  20  21
ENDBRANCH  19  20
ENDBRANCH   1  19
TORSDOF 7
ENDMDL
MODEL 6
REMARK VINA RESULT:      -8.5      2.490      3.807
REMARK  Name = 
REMARK  7 active torsions:
REMARK  status: ('A' for Active; 'I' for Inactive)
REMARK    1  A    between atoms: C_2  and  C_3
REMARK    2  A    between atoms: C_3  and  N_4
REMARK    3  A    between atoms: N_7  and  C_8
REMARK    4  A    between atoms: C_8  and  C_9
REMARK    5  A    between atoms: C_9  and  C_10
REMARK    6  A    between atoms: C_10  and  N_11
REMARK    7  A    between atoms: C_22  and  C_23
REMARK                            x       y       z     vdW  Elec       q    Type
REMARK                         _______ _______ _______ _____ _____    ______ ____
ROOT
ATOM      1  N   UNL     1       3.403   5.936  -7.920  0.00  0.00    -0.286 N 
ATOM      2  C   UNL     1       3.640   5.750  -6.522  0.00  0.00    +0.058 A 
ATOM      3  C   UNL     1       3.003   4.714  -5.847  0.00  0.00    +0.043 A 
ATOM      4  C   UNL     1       3.367   4.446  -4.557  0.00  0.00    +0.008 A 
ATOM      5  C   UNL     1       4.407   5.141  -3.950  0.00  0.00    +0.004 A 
ATOM      6  C   UNL     1       4.982   6.246  -4.565  0.00  0.00    +0.073 A 
ATOM      7  S   UNL     1       1.275   4.464  -6.271  0.00  0.00    -0.084 S 
ATOM      8  C   UNL     1       1.059   5.264  -7.865  0.00  0.00    +0.043 A 
ATOM      9  C   UNL     1      -0.186   5.484  -8.415  0.00  0.00    +0.008 A 
ATOM     10  C   UNL     1      -0.295   5.599  -9.791  0.00  0.00    +0.001 A 
ATOM     11  C   UNL     1       0.859   5.638 -10.564  0.00  0.00    +0.001 A 
ATOM     12  C   UNL     1       2.058   5.812  -9.909  0.00  0.00    +0.015 A 
ATOM     13  C   UNL     1       4.737   6.363  -5.928  0.00  0.00    +0.019 A 
ATOM     14  C   UNL     1       2.237   5.458  -8.576  0.00  0.00    +0.058 A 
ENDROOT
BRANCH   6  15
ATOM     15  C   UNL     1       5.505   7.377  -3.753  0.00  0.00    +0.419 C 
ATOM     16  F   UNL     1       6.894   7.375  -3.718  0.00  0.00    -0.166 F 
ATOM     17  F   UNL     1       5.100   8.591  -4.272  0.00  0.00    -0.166 F 
ATOM     18  F   UNL     1       5.091   7.299  -2.427  0.00  0.00    -0.166 F 
ENDBRANCH   6  15
BRANCH   1  19
ATOM     19  C   UNL     1       4.512   6.383  -8.761  0.00  0.00    +0.097 C 
BRANCH  19  20
ATOM     20  C   UNL     1       5.530   5.296  -8.979  0.00  0.00    +0.039 C 
BRANCH  20  21
ATOM     21  C   UNL     1       6.620   5.851  -9.850  0.00  0.00    +0.074 C 
BRANCH  21  25
ATOM     22  N   UNL     1       6.798   6.500 -13.715  0.00  0.00    -0.268 NA
ATOM     23  C   UNL     1       8.007   6.006 -13.134  0.00  0.00    +0.090 C 
ATOM     24  C   UNL     1       7.872   5.303 -11.840  0.00  0.00    +0.090 C 
ATOM     25  N   UNL     1       6.627   5.353 -11.185  0.00  0.00    -0.270 NA
ATOM     26  C   UNL     1       5.472   5.628 -11.962  0.00  0.00    +0.090 C 
ATOM     27  C   UNL     1       5.715   5.561 -13.441  0.00  0.00    +0.090 C 
BRANCH  22  28
ATOM     28  C   UNL     1       6.955   6.762 -15.125  0.00  0.00    +0.108 C 
BRANCH  28  30
ATOM     29  O   UNL     1       5.785   8.639 -16.097  0.00  0.00    -0.219 OA
ATOM     30  C   UNL     1       5.679   7.308 -15.706  0.00  0.00    +0.199 C 
ENDBRANCH  28  30
ENDBRANCH  22  28
ENDBRANCH  21  25
ENDBRANCH  20  21
ENDBRANCH  19  20
ENDBRANCH   1  19
TORSDOF 7
ENDMDL
MODEL 7
REMARK VINA RESULT:      -8.5      5.019      9.191
REMARK  Name = 
REMARK  7 active torsions:
REMARK  status: ('A' for Active; 'I' for Inactive)
REMARK    1  A    between atoms: C_2  and  C_3
REMARK    2  A    between atoms: C_3  and  N_4
REMARK    3  A    between atoms: N_7  and  C_8
REMARK    4  A    between atoms: C_8  and  C_9
REMARK    5  A    between atoms: C_9  and  C_10
REMARK    6  A    between atoms: C_10  and  N_11
REMARK    7  A    between atoms: C_22  and  C_23
REMARK                            x       y       z     vdW  Elec       q    Type
REMARK                         _______ _______ _______ _____ _____    ______ ____
ROOT
ATOM      1  N   UNL     1       4.241   6.002 -10.874  0.00  0.00    -0.286 N 
ATOM      2  C   UNL     1       3.433   6.006 -12.055  0.00  0.00    +0.058 A 
ATOM      3  C   UNL     1       3.845   5.289 -13.173  0.00  0.00    +0.043 A 
ATOM      4  C   UNL     1       2.986   5.163 -14.229  0.00  0.00    +0.008 A 
ATOM      5  C   UNL     1       1.696   5.676 -14.163  0.00  0.00    +0.004 A 
ATOM      6  C   UNL     1       1.302   6.485 -13.104  0.00  0.00    +0.073 A 
ATOM      7  S   UNL     1       5.596   5.401 -13.560  0.00  0.00    -0.084 S 
ATOM      8  C   UNL     1       6.383   5.945 -12.039  0.00  0.00    +0.043 A 
ATOM      9  C   UNL     1       7.695   6.366 -11.999  0.00  0.00    +0.008 A 
ATOM     10  C   UNL     1       8.389   6.266 -10.805  0.00  0.00    +0.001 A 
ATOM     11  C   UNL     1       7.712   5.889  -9.653  0.00  0.00    +0.001 A 
ATOM     12  C   UNL     1       6.335   5.873  -9.701  0.00  0.00    +0.015 A 
ATOM     13  C   UNL     1       2.110   6.424 -11.976  0.00  0.00    +0.019 A 
ATOM     14  C   UNL     1       5.633   5.719 -10.891  0.00  0.00    +0.058 A 
ENDROOT
BRANCH   6  15
ATOM     15  C   UNL     1       0.311   7.574 -13.313  0.00  0.00    +0.419 C 
ATOM     16  F   UNL     1      -0.483   7.331 -14.425  0.00  0.00    -0.166 F 
ATOM     17  F   UNL     1      -0.524   7.701 -12.221  0.00  0.00    -0.166 F 
ATOM     18  F   UNL     1       0.928   8.799 -13.547  0.00  0.00    -0.166 F 
ENDBRANCH   6  15
BRANCH   1  19
ATOM     19  C   UNL     1       3.573   6.014  -9.574  0.00  0.00    +0.097 C 
BRANCH  19  20
ATOM     20  C   UNL     1       3.349   4.623  -9.041  0.00  0.00    +0.039 C 
BRANCH  20  21
ATOM     21  C   UNL     1       1.868   4.404  -8.928  0.00  0.00    +0.074 C 
BRANCH  21  25
ATOM     22  N   UNL     1       2.082   6.135  -5.413  0.00  0.00    -0.268 NA
ATOM     23  C   UNL     1       1.124   6.708  -6.306  0.00  0.00    +0.090 C 
ATOM     24  C   UNL     1       0.659   5.842  -7.412  0.00  0.00    +0.090 C 
ATOM     25  N   UNL     1       1.331   4.624  -7.627  0.00  0.00    -0.270 NA
ATOM     26  C   UNL     1       2.057   4.059  -6.546  0.00  0.00    +0.090 C 
ATOM     27  C   UNL     1       1.779   4.719  -5.227  0.00  0.00    +0.090 C 
BRANCH  22  28
ATOM     28  C   UNL     1       2.139   6.854  -4.164  0.00  0.00    +0.108 C 
BRANCH  28  30
ATOM     29  O   UNL     1       4.257   7.652  -5.010  0.00  0.00    -0.219 OA
ATOM     30  C   UNL     1       3.550   7.286  -3.868  0.00  0.00    +0.199 C 
ENDBRANCH  28  30
ENDBRANCH  22  28
ENDBRANCH  21  25
ENDBRANCH  20  21
ENDBRANCH  19  20
ENDBRANCH   1  19
TORSDOF 7
ENDMDL
MODEL 8
REMARK VINA RESULT:      -8.4      4.210      5.594
REMARK  Name = 
REMARK  7 active torsions:
REMARK  status: ('A' for Active; 'I' for Inactive)
REMARK    1  A    between atoms: C_2  and  C_3
REMARK    2  A    between atoms: C_3  and  N_4
REMARK    3  A    between atoms: N_7  and  C_8
REMARK    4  A    between atoms: C_8  and  C_9
REMARK    5  A    between atoms: C_9  and  C_10
REMARK    6  A    between atoms: C_10  and  N_11
REMARK    7  A    between atoms: C_22  and  C_23
REMARK                            x       y       z     vdW  Elec       q    Type
REMARK                         _______ _______ _______ _____ _____    ______ ____
ROOT
ATOM      1  N   UNL     1       0.819   5.403  -7.772  0.00  0.00    -0.286 N 
ATOM      2  C   UNL     1       2.241   5.556  -7.730  0.00  0.00    +0.058 A 
ATOM      3  C   UNL     1       2.904   5.494  -6.509  0.00  0.00    +0.043 A 
ATOM      4  C   UNL     1       4.271   5.473  -6.502  0.00  0.00    +0.008 A 
ATOM      5  C   UNL     1       4.990   5.438  -7.691  0.00  0.00    +0.004 A 
ATOM      6  C   UNL     1       4.355   5.607  -8.915  0.00  0.00    +0.073 A 
ATOM      7  S   UNL     1       2.099   6.348  -5.149  0.00  0.00    -0.084 S 
ATOM      8  C   UNL     1       0.385   6.533  -5.655  0.00  0.00    +0.043 A 
ATOM      9  C   UNL     1      -0.500   7.342  -4.974  0.00  0.00    +0.008 A 
ATOM     10  C   UNL     1      -1.854   7.061  -5.054  0.00  0.00    +0.001 A 
ATOM     11  C   UNL     1      -2.295   6.074  -5.927  0.00  0.00    +0.001 A 
ATOM     12  C   UNL     1      -1.393   5.596  -6.853  0.00  0.00    +0.015 A 
ATOM     13  C   UNL     1       2.977   5.423  -8.901  0.00  0.00    +0.019 A 
ATOM     14  C   UNL     1      -0.018   5.654  -6.653  0.00  0.00    +0.058 A 
ENDROOT
BRANCH   6  15
ATOM     15  C   UNL     1       5.055   6.275 -10.045  0.00  0.00    +0.419 C 
ATOM     16  F   UNL     1       6.412   6.415  -9.788  0.00  0.00    -0.166 F 
ATOM     17  F   UNL     1       4.922   5.547 -11.211  0.00  0.00    -0.166 F 
ATOM     18  F   UNL     1       4.574   7.562 -10.266  0.00  0.00    -0.166 F 
ENDBRANCH   6  15
BRANCH   1  19
ATOM     19  C   UNL     1       0.229   4.701  -8.910  0.00  0.00    +0.097 C 
BRANCH  19  20
ATOM     20  C   UNL     1      -0.126   5.641 -10.032  0.00  0.00    +0.039 C 
BRANCH  20  21
ATOM     21  C   UNL     1       0.093   4.917 -11.329  0.00  0.00    +0.074 C 
BRANCH  21  25
ATOM     22  N   UNL     1       0.553   6.880 -14.695  0.00  0.00    -0.268 NA
ATOM     23  C   UNL     1       0.571   7.694 -13.519  0.00  0.00    +0.090 C 
ATOM     24  C   UNL     1       0.887   7.003 -12.250  0.00  0.00    +0.090 C 
ATOM     25  N   UNL     1       0.936   5.596 -12.255  0.00  0.00    -0.270 NA
ATOM     26  C   UNL     1       1.165   4.939 -13.492  0.00  0.00    +0.090 C 
ATOM     27  C   UNL     1       1.595   5.864 -14.592  0.00  0.00    +0.090 C 
BRANCH  22  28
ATOM     28  C   UNL     1       0.676   7.676 -15.892  0.00  0.00    +0.108 C 
BRANCH  28  30
ATOM     29  O   UNL     1      -1.039   6.251 -16.822  0.00  0.00    -0.219 OA
ATOM     30  C   UNL     1      -0.565   7.557 -16.734  0.00  0.00    +0.199 C 
ENDBRANCH  28  30
ENDBRANCH  22  28
ENDBRANCH  21  25
ENDBRANCH  20  21
ENDBRANCH  19  20
ENDBRANCH   1  19
TORSDOF 7
ENDMDL
MODEL 9
REMARK VINA RESULT:      -8.3      1.839      2.400
REMARK  Name = 
REMARK  7 active torsions:
REMARK  status: ('A' for Active; 'I' for Inactive)
REMARK    1  A    between atoms: C_2  and  C_3
REMARK    2  A    between atoms: C_3  and  N_4
REMARK    3  A    between atoms: N_7  and  C_8
REMARK    4  A    between atoms: C_8  and  C_9
REMARK    5  A    between atoms: C_9  and  C_10
REMARK    6  A    between atoms: C_10  and  N_11
REMARK    7  A    between atoms: C_22  and  C_23
REMARK                            x       y       z     vdW  Elec       q    Type
REMARK                         _______ _______ _______ _____ _____    ______ ____
ROOT
ATOM      1  N   UNL     1       1.294   5.730  -5.151  0.00  0.00    -0.286 N 
ATOM      2  C   UNL     1       1.855   5.865  -3.842  0.00  0.00    +0.058 A 
ATOM      3  C   UNL     1       1.202   5.300  -2.752  0.00  0.00    +0.043 A 
ATOM      4  C   UNL     1       1.832   5.290  -1.539  0.00  0.00    +0.008 A 
ATOM      5  C   UNL     1       3.132   5.767  -1.407  0.00  0.00    +0.004 A 
ATOM      6  C   UNL     1       3.759   6.431  -2.453  0.00  0.00    +0.073 A 
ATOM      7  S   UNL     1      -0.584   5.492  -2.737  0.00  0.00    -0.084 S 
ATOM      8  C   UNL     1      -1.035   5.857  -4.437  0.00  0.00    +0.043 A 
ATOM      9  C   UNL     1      -2.295   6.295  -4.786  0.00  0.00    +0.008 A 
ATOM     10  C   UNL     1      -2.746   6.061  -6.075  0.00  0.00    +0.001 A 
ATOM     11  C   UNL     1      -1.873   5.531  -7.017  0.00  0.00    +0.001 A 
ATOM     12  C   UNL     1      -0.535   5.496  -6.694  0.00  0.00    +0.015 A 
ATOM     13  C   UNL     1       3.185   6.245  -3.705  0.00  0.00    +0.019 A 
ATOM     14  C   UNL     1      -0.085   5.478  -5.378  0.00  0.00    +0.058 A 
ENDROOT
BRANCH   6  15
ATOM     15  C   UNL     1       4.736   7.519  -2.182  0.00  0.00    +0.419 C 
ATOM     16  F   UNL     1       5.345   7.356  -0.944  0.00  0.00    -0.166 F 
ATOM     17  F   UNL     1       5.731   7.543  -3.139  0.00  0.00    -0.166 F 
ATOM     18  F   UNL     1       4.124   8.768  -2.144  0.00  0.00    -0.166 F 
ENDBRANCH   6  15
BRANCH   1  19
ATOM     19  C   UNL     1       2.203   5.568  -6.285  0.00  0.00    +0.097 C 
BRANCH  19  20
ATOM     20  C   UNL     1       2.827   6.874  -6.699  0.00  0.00    +0.039 C 
BRANCH  20  21
ATOM     21  C   UNL     1       2.245   7.264  -8.026  0.00  0.00    +0.074 C 
BRANCH  21  25
ATOM     22  N   UNL     1       2.365   6.237 -11.811  0.00  0.00    -0.268 NA
ATOM     23  C   UNL     1       3.621   6.166 -11.130  0.00  0.00    +0.090 C 
ATOM     24  C   UNL     1       3.561   6.065  -9.656  0.00  0.00    +0.090 C 
ATOM     25  N   UNL     1       2.315   6.254  -9.028  0.00  0.00    -0.270 NA
ATOM     26  C   UNL     1       1.141   6.050  -9.797  0.00  0.00    +0.090 C 
ATOM     27  C   UNL     1       1.396   5.391 -11.120  0.00  0.00    +0.090 C 
BRANCH  22  28
ATOM     28  C   UNL     1       2.498   5.894 -13.206  0.00  0.00    +0.108 C 
BRANCH  28  30
ATOM     29  O   UNL     1       0.927   5.611 -15.020  0.00  0.00    -0.219 OA
ATOM     30  C   UNL     1       1.237   5.248 -13.713  0.00  0.00    +0.199 C 
ENDBRANCH  28  30
ENDBRANCH  22  28
ENDBRANCH  21  25
ENDBRANCH  20  21
ENDBRANCH  19  20
ENDBRANCH   1  19
TORSDOF 7
ENDMDL
