MODEL 1
REMARK VINA RESULT:      -9.0      0.000      0.000
REMARK  Name = 
REMARK  2 active torsions:
REMARK  status: ('A' for Active; 'I' for Inactive)
REMARK    1  A    between atoms: N_17  and  C_18
REMARK    2  A    between atoms: C_18  and  C_19
REMARK                            x       y       z     vdW  Elec       q    Type
REMARK                         _______ _______ _______ _____ _____    ______ ____
ROOT
ATOM      1  O   UNL     1      -1.817   5.348  -5.773  0.00  0.00    -0.287 OA
ATOM      2  C   UNL     1      -0.717   5.863  -6.450  0.00  0.00    +0.195 A 
ATOM      3  C   UNL     1      -0.341   5.284  -7.657  0.00  0.00    +0.038 A 
ATOM      4  C   UNL     1       0.800   5.710  -8.283  0.00  0.00    -0.021 A 
ATOM      5  C   UNL     1       1.524   4.941  -9.350  0.00  0.00    +0.047 C 
ATOM      6  C   UNL     1       2.555   4.023  -8.803  0.00  0.00    +0.024 C 
ATOM      7  C   UNL     1       3.949   4.257  -9.117  0.00  0.00    +0.073 C 
ATOM      8  N   UNL     1       4.427   5.388  -9.736  0.00  0.00    -0.271 NA
ATOM      9  C   UNL     1       3.459   6.625  -9.492  0.00  0.00    +0.090 C 
ATOM     10  C   UNL     1       3.106   6.141  -7.943  0.00  0.00    +0.044 C 
ATOM     11  C   UNL     1       2.185   5.891 -10.235  0.00  0.00    +0.143 C 
ATOM     12  O   UNL     1       2.701   5.305 -11.384  0.00  0.00    -0.224 OA
ATOM     13  C   UNL     1       1.296   7.030 -10.730  0.00  0.00    +0.032 C 
ATOM     14  C   UNL     1       0.342   6.299 -11.672  0.00  0.00    +0.003 C 
ATOM     15  C   UNL     1      -0.374   5.188 -10.976  0.00  0.00    +0.000 C 
ATOM     16  C   UNL     1       0.501   4.251 -10.203  0.00  0.00    +0.007 C 
ATOM     17  C   UNL     1       1.698   6.612  -7.712  0.00  0.00    -0.024 A 
ATOM     18  C   UNL     1       1.363   7.055  -6.437  0.00  0.00    -0.001 A 
ATOM     19  C   UNL     1       0.180   6.705  -5.835  0.00  0.00    +0.042 A 
ENDROOT
BRANCH   8  20
ATOM     20  C   UNL     1       5.695   5.827  -9.183  0.00  0.00    +0.072 C 
BRANCH  20  21
ATOM     21  C   UNL     1       6.802   5.782 -10.227  0.00  0.00    +0.016 C 
ATOM     22  C   UNL     1       6.209   6.096 -11.593  0.00  0.00    +0.001 C 
ATOM     23  C   UNL     1       6.796   7.492 -11.445  0.00  0.00    +0.000 C 
ATOM     24  C   UNL     1       7.596   7.072 -10.218  0.00  0.00    +0.001 C 
ENDBRANCH  20  21
ENDBRANCH   8  20
TORSDOF 2
ENDMDL
MODEL 2
REMARK VINA RESULT:      -9.0      1.946      3.834
REMARK  Name = 
REMARK  2 active torsions:
REMARK  status: ('A' for Active; 'I' for Inactive)
REMARK    1  A    between atoms: N_17  and  C_18
REMARK    2  A    between atoms: C_18  and  C_19
REMARK                            x       y       z     vdW  Elec       q    Type
REMARK                         _______ _______ _______ _____ _____    ______ ____
ROOT
ATOM      1  O   UNL     1      -2.471   7.101  -4.417  0.00  0.00    -0.287 OA
ATOM      2  C   UNL     1      -1.581   6.424  -5.243  0.00  0.00    +0.195 A 
ATOM      3  C   UNL     1      -0.222   6.704  -5.138  0.00  0.00    +0.038 A 
ATOM      4  C   UNL     1       0.655   6.123  -6.014  0.00  0.00    -0.021 A 
ATOM      5  C   UNL     1       2.051   6.612  -6.271  0.00  0.00    +0.047 C 
ATOM      6  C   UNL     1       2.121   7.611  -7.367  0.00  0.00    +0.024 C 
ATOM      7  C   UNL     1       2.847   7.283  -8.577  0.00  0.00    +0.073 C 
ATOM      8  N   UNL     1       3.328   6.032  -8.880  0.00  0.00    -0.271 NA
ATOM      9  C   UNL     1       2.491   4.903  -8.137  0.00  0.00    +0.090 C 
ATOM     10  C   UNL     1       1.066   5.736  -8.316  0.00  0.00    +0.044 C 
ATOM     11  C   UNL     1       2.879   5.473  -6.640  0.00  0.00    +0.143 C 
ATOM     12  O   UNL     1       4.236   5.770  -6.686  0.00  0.00    -0.224 OA
ATOM     13  C   UNL     1       2.763   4.268  -5.709  0.00  0.00    +0.032 C 
ATOM     14  C   UNL     1       3.444   4.782  -4.442  0.00  0.00    +0.003 C 
ATOM     15  C   UNL     1       2.803   6.038  -3.945  0.00  0.00    +0.000 C 
ATOM     16  C   UNL     1       2.617   7.109  -4.974  0.00  0.00    +0.007 C 
ATOM     17  C   UNL     1       0.254   5.358  -7.109  0.00  0.00    -0.024 A 
ATOM     18  C   UNL     1      -1.122   5.225  -7.268  0.00  0.00    -0.001 A 
ATOM     19  C   UNL     1      -2.009   5.728  -6.349  0.00  0.00    +0.042 A 
ENDROOT
BRANCH   8  20
ATOM     20  C   UNL     1       3.177   5.706 -10.285  0.00  0.00    +0.072 C 
BRANCH  20  21
ATOM     21  C   UNL     1       4.508   5.316 -10.913  0.00  0.00    +0.016 C 
ATOM     22  C   UNL     1       4.766   6.204 -12.122  0.00  0.00    +0.001 C 
ATOM     23  C   UNL     1       5.733   6.988 -11.247  0.00  0.00    +0.000 C 
ATOM     24  C   UNL     1       5.660   5.934 -10.149  0.00  0.00    +0.001 C 
ENDBRANCH  20  21
ENDBRANCH   8  20
TORSDOF 2
ENDMDL
MODEL 3
REMARK VINA RESULT:      -8.9      2.739      6.971
REMARK  Name = 
REMARK  2 active torsions:
REMARK  status: ('A' for Active; 'I' for Inactive)
REMARK    1  A    between atoms: N_17  and  C_18
REMARK    2  A    between atoms: C_18  and  C_19
REMARK                            x       y       z     vdW  Elec       q    Type
REMARK                         _______ _______ _______ _____ _____    ______ ____
ROOT
ATOM      1  O   UNL     1       6.563   5.167  -9.433  0.00  0.00    -0.287 OA
ATOM      2  C   UNL     1       5.438   5.725  -8.836  0.00  0.00    +0.195 A 
ATOM      3  C   UNL     1       5.067   5.290  -7.568  0.00  0.00    +0.038 A 
ATOM      4  C   UNL     1       3.905   5.752  -7.011  0.00  0.00    -0.021 A 
ATOM      5  C   UNL     1       3.195   5.100  -5.860  0.00  0.00    +0.047 C 
ATOM      6  C   UNL     1       2.202   4.085  -6.294  0.00  0.00    +0.024 C 
ATOM      7  C   UNL     1       0.797   4.308  -6.023  0.00  0.00    +0.073 C 
ATOM      8  N   UNL     1       0.273   5.491  -5.557  0.00  0.00    -0.271 NA
ATOM      9  C   UNL     1       1.203   6.720  -5.948  0.00  0.00    +0.090 C 
ATOM     10  C   UNL     1       1.590   6.056  -7.420  0.00  0.00    +0.044 C 
ATOM     11  C   UNL     1       2.492   6.130  -5.108  0.00  0.00    +0.143 C 
ATOM     12  O   UNL     1       1.982   5.676  -3.898  0.00  0.00    -0.224 OA
ATOM     13  C   UNL     1       3.335   7.353  -4.754  0.00  0.00    +0.032 C 
ATOM     14  C   UNL     1       4.302   6.781  -3.719  0.00  0.00    +0.003 C 
ATOM     15  C   UNL     1       5.063   5.615  -4.264  0.00  0.00    +0.000 C 
ATOM     16  C   UNL     1       4.229   4.559  -4.919  0.00  0.00    +0.007 C 
ATOM     17  C   UNL     1       2.985   6.543  -7.698  0.00  0.00    -0.024 A 
ATOM     18  C   UNL     1       3.320   6.833  -9.017  0.00  0.00    -0.001 A 
ATOM     19  C   UNL     1       4.521   6.450  -9.560  0.00  0.00    +0.042 A 
ENDROOT
BRANCH   8  20
ATOM     20  C   UNL     1      -1.001   5.812  -6.170  0.00  0.00    +0.072 C 
BRANCH  20  21
ATOM     21  C   UNL     1      -2.088   6.011  -5.124  0.00  0.00    +0.016 C 
ATOM     22  C   UNL     1      -1.443   6.438  -3.813  0.00  0.00    +0.001 C 
ATOM     23  C   UNL     1      -1.895   7.854  -4.138  0.00  0.00    +0.000 C 
ATOM     24  C   UNL     1      -2.754   7.360  -5.295  0.00  0.00    +0.001 C 
ENDBRANCH  20  21
ENDBRANCH   8  20
TORSDOF 2
ENDMDL
MODEL 4
REMARK VINA RESULT:      -8.7      3.210      7.445
REMARK  Name = 
REMARK  2 active torsions:
REMARK  status: ('A' for Active; 'I' for Inactive)
REMARK    1  A    between atoms: N_17  and  C_18
REMARK    2  A    between atoms: C_18  and  C_19
REMARK                            x       y       z     vdW  Elec       q    Type
REMARK                         _______ _______ _______ _____ _____    ______ ____
ROOT
ATOM      1  O   UNL     1       5.126   5.213  -9.592  0.00  0.00    -0.287 OA
ATOM      2  C   UNL     1       4.309   5.888  -8.692  0.00  0.00    +0.195 A 
ATOM      3  C   UNL     1       4.134   5.360  -7.417  0.00  0.00    +0.038 A 
ATOM      4  C   UNL     1       3.252   5.955  -6.556  0.00  0.00    -0.021 A 
ATOM      5  C   UNL     1       2.681   5.298  -5.333  0.00  0.00    +0.047 C 
ATOM      6  C   UNL     1       1.419   4.566  -5.606  0.00  0.00    +0.024 C 
ATOM      7  C   UNL     1       0.191   5.017  -4.985  0.00  0.00    +0.073 C 
ATOM      8  N   UNL     1       0.055   6.202  -4.300  0.00  0.00    -0.271 NA
ATOM      9  C   UNL     1       1.127   7.269  -4.789  0.00  0.00    +0.090 C 
ATOM     10  C   UNL     1       1.029   6.757  -6.366  0.00  0.00    +0.044 C 
ATOM     11  C   UNL     1       2.404   6.329  -4.342  0.00  0.00    +0.143 C 
ATOM     12  O   UNL     1       2.080   5.818  -3.092  0.00  0.00    -0.224 OA
ATOM     13  C   UNL     1       3.553   7.303  -4.092  0.00  0.00    +0.032 C 
ATOM     14  C   UNL     1       4.569   6.415  -3.378  0.00  0.00    +0.003 C 
ATOM     15  C   UNL     1       4.917   5.213  -4.195  0.00  0.00    +0.000 C 
ATOM     16  C   UNL     1       3.749   4.440  -4.723  0.00  0.00    +0.007 C 
ATOM     17  C   UNL     1       2.403   6.998  -6.926  0.00  0.00    -0.024 A 
ATOM     18  C   UNL     1       2.500   7.400  -8.254  0.00  0.00    -0.001 A 
ATOM     19  C   UNL     1       3.440   6.872  -9.104  0.00  0.00    +0.042 A 
ENDROOT
BRANCH   8  20
ATOM     20  C   UNL     1      -1.218   6.846  -4.555  0.00  0.00    +0.072 C 
BRANCH  20  21
ATOM     21  C   UNL     1      -1.899   7.267  -3.261  0.00  0.00    +0.016 C 
ATOM     22  C   UNL     1      -3.220   6.522  -3.130  0.00  0.00    +0.001 C 
ATOM     23  C   UNL     1      -2.522   5.610  -2.132  0.00  0.00    +0.000 C 
ATOM     24  C   UNL     1      -1.307   6.526  -2.081  0.00  0.00    +0.001 C 
ENDBRANCH  20  21
ENDBRANCH   8  20
TORSDOF 2
ENDMDL
MODEL 5
REMARK VINA RESULT:      -8.7      2.666      5.763
REMARK  Name = 
REMARK  2 active torsions:
REMARK  status: ('A' for Active; 'I' for Inactive)
REMARK    1  A    between atoms: N_17  and  C_18
REMARK    2  A    between atoms: C_18  and  C_19
REMARK                            x       y       z     vdW  Elec       q    Type
REMARK                         _______ _______ _______ _____ _____    ______ ____
ROOT
ATOM      1  O   UNL     1       6.186   7.711 -11.679  0.00  0.00    -0.287 OA
ATOM      2  C   UNL     1       5.705   6.850 -10.700  0.00  0.00    +0.195 A 
ATOM      3  C   UNL     1       4.377   6.962 -10.302  0.00  0.00    +0.038 A 
ATOM      4  C   UNL     1       3.917   6.193  -9.267  0.00  0.00    -0.021 A 
ATOM      5  C   UNL     1       2.663   6.472  -8.491  0.00  0.00    +0.047 C 
ATOM      6  C   UNL     1       2.895   7.344  -7.311  0.00  0.00    +0.024 C 
ATOM      7  C   UNL     1       2.670   6.812  -5.983  0.00  0.00    +0.073 C 
ATOM      8  N   UNL     1       2.438   5.486  -5.705  0.00  0.00    -0.271 NA
ATOM      9  C   UNL     1       3.056   4.550  -6.832  0.00  0.00    +0.090 C 
ATOM     10  C   UNL     1       4.375   5.538  -7.035  0.00  0.00    +0.044 C 
ATOM     11  C   UNL     1       2.120   5.205  -8.019  0.00  0.00    +0.143 C 
ATOM     12  O   UNL     1       0.845   5.320  -7.479  0.00  0.00    -0.224 OA
ATOM     13  C   UNL     1       2.006   4.120  -9.087  0.00  0.00    +0.032 C 
ATOM     14  C   UNL     1       0.882   4.661  -9.968  0.00  0.00    +0.003 C 
ATOM     15  C   UNL     1       1.196   6.030 -10.480  0.00  0.00    +0.000 C 
ATOM     16  C   UNL     1       1.637   7.013  -9.441  0.00  0.00    +0.007 C 
ATOM     17  C   UNL     1       4.742   5.385  -8.484  0.00  0.00    -0.024 A 
ATOM     18  C   UNL     1       6.092   5.415  -8.819  0.00  0.00    -0.001 A 
ATOM     19  C   UNL     1       6.553   6.112  -9.907  0.00  0.00    +0.042 A 
ENDROOT
BRANCH   8  20
ATOM     20  C   UNL     1       3.099   5.050  -4.491  0.00  0.00    +0.072 C 
BRANCH  20  21
ATOM     21  C   UNL     1       3.073   6.134  -3.423  0.00  0.00    +0.016 C 
ATOM     22  C   UNL     1       2.579   5.530  -2.116  0.00  0.00    +0.001 C 
ATOM     23  C   UNL     1       4.030   5.516  -1.660  0.00  0.00    +0.000 C 
ATOM     24  C   UNL     1       4.458   6.358  -2.855  0.00  0.00    +0.001 C 
ENDBRANCH  20  21
ENDBRANCH   8  20
TORSDOF 2
ENDMDL
MODEL 6
REMARK VINA RESULT:      -8.4      1.978      5.966
REMARK  Name = 
REMARK  2 active torsions:
REMARK  status: ('A' for Active; 'I' for Inactive)
REMARK    1  A    between atoms: N_17  and  C_18
REMARK    2  A    between atoms: C_18  and  C_19
REMARK                            x       y       z     vdW  Elec       q    Type
REMARK                         _______ _______ _______ _____ _____    ______ ____
ROOT
ATOM      1  O   UNL     1       6.383   6.977 -11.488  0.00  0.00    -0.287 OA
ATOM      2  C   UNL     1       5.621   6.330 -10.522  0.00  0.00    +0.195 A 
ATOM      3  C   UNL     1       4.253   6.576 -10.471  0.00  0.00    +0.038 A 
ATOM      4  C   UNL     1       3.507   6.029  -9.461  0.00  0.00    -0.021 A 
ATOM      5  C   UNL     1       2.141   6.504  -9.058  0.00  0.00    +0.047 C 
ATOM      6  C   UNL     1       2.181   7.561  -8.017  0.00  0.00    +0.024 C 
ATOM      7  C   UNL     1       1.619   7.289  -6.710  0.00  0.00    +0.073 C 
ATOM      8  N   UNL     1       1.214   6.047  -6.281  0.00  0.00    -0.271 NA
ATOM      9  C   UNL     1       1.983   4.895  -7.061  0.00  0.00    +0.090 C 
ATOM     10  C   UNL     1       3.396   5.765  -7.108  0.00  0.00    +0.044 C 
ATOM     11  C   UNL     1       1.397   5.370  -8.526  0.00  0.00    +0.143 C 
ATOM     12  O   UNL     1       0.049   5.642  -8.327  0.00  0.00    -0.224 OA
ATOM     13  C   UNL     1       1.429   4.117  -9.398  0.00  0.00    +0.032 C 
ATOM     14  C   UNL     1       0.582   4.544 -10.595  0.00  0.00    +0.003 C 
ATOM     15  C   UNL     1       1.122   5.782 -11.236  0.00  0.00    +0.000 C 
ATOM     16  C   UNL     1       1.405   6.914 -10.298  0.00  0.00    +0.007 C 
ATOM     17  C   UNL     1       4.062   5.336  -8.385  0.00  0.00    -0.024 A 
ATOM     18  C   UNL     1       5.449   5.240  -8.393  0.00  0.00    -0.001 A 
ATOM     19  C   UNL     1       6.202   5.707  -9.442  0.00  0.00    +0.042 A 
ENDROOT
BRANCH   8  20
ATOM     20  C   UNL     1       1.547   5.806  -4.890  0.00  0.00    +0.072 C 
BRANCH  20  21
ATOM     21  C   UNL     1       0.375   5.195  -4.135  0.00  0.00    +0.016 C 
ATOM     22  C   UNL     1       0.142   5.987  -2.857  0.00  0.00    +0.001 C 
ATOM     23  C   UNL     1      -1.031   6.647  -3.568  0.00  0.00    +0.000 C 
ATOM     24  C   UNL     1      -0.940   5.659  -4.724  0.00  0.00    +0.001 C 
ENDBRANCH  20  21
ENDBRANCH   8  20
TORSDOF 2
ENDMDL
MODEL 7
REMARK VINA RESULT:      -8.1      3.458      6.439
REMARK  Name = 
REMARK  2 active torsions:
REMARK  status: ('A' for Active; 'I' for Inactive)
REMARK    1  A    between atoms: N_17  and  C_18
REMARK    2  A    between atoms: C_18  and  C_19
REMARK                            x       y       z     vdW  Elec       q    Type
REMARK                         _______ _______ _______ _____ _____    ______ ____
ROOT
ATOM      1  O   UNL     1       4.421   6.992 -10.895  0.00  0.00    -0.287 OA
ATOM      2  C   UNL     1       4.358   6.283  -9.701  0.00  0.00    +0.195 A 
ATOM      3  C   UNL     1       3.334   6.569  -8.804  0.00  0.00    +0.038 A 
ATOM      4  C   UNL     1       3.320   5.955  -7.581  0.00  0.00    -0.021 A 
ATOM      5  C   UNL     1       2.532   6.436  -6.396  0.00  0.00    +0.047 C 
ATOM      6  C   UNL     1       3.289   7.389  -5.547  0.00  0.00    +0.024 C 
ATOM      7  C   UNL     1       3.624   7.015  -4.189  0.00  0.00    +0.073 C 
ATOM      8  N   UNL     1       3.463   5.752  -3.668  0.00  0.00    -0.271 NA
ATOM      9  C   UNL     1       3.493   4.653  -4.816  0.00  0.00    +0.090 C 
ATOM     10  C   UNL     1       4.649   5.476  -5.678  0.00  0.00    +0.044 C 
ATOM     11  C   UNL     1       2.176   5.284  -5.580  0.00  0.00    +0.143 C 
ATOM     12  O   UNL     1       1.261   5.581  -4.578  0.00  0.00    -0.224 OA
ATOM     13  C   UNL     1       1.561   4.117  -6.351  0.00  0.00    +0.032 C 
ATOM     14  C   UNL     1       0.200   4.683  -6.746  0.00  0.00    +0.003 C 
ATOM     15  C   UNL     1       0.336   5.957  -7.517  0.00  0.00    +0.000 C 
ATOM     16  C   UNL     1       1.228   6.986  -6.895  0.00  0.00    +0.007 C 
ATOM     17  C   UNL     1       4.355   5.146  -7.115  0.00  0.00    -0.024 A 
ATOM     18  C   UNL     1       5.434   5.005  -7.981  0.00  0.00    -0.001 A 
ATOM     19  C   UNL     1       5.423   5.542  -9.244  0.00  0.00    +0.042 A 
ENDROOT
BRANCH   8  20
ATOM     20  C   UNL     1       4.555   5.370  -2.794  0.00  0.00    +0.072 C 
BRANCH  20  21
ATOM     21  C   UNL     1       4.055   5.012  -1.402  0.00  0.00    +0.016 C 
ATOM     22  C   UNL     1       4.451   6.118  -0.433  0.00  0.00    +0.001 C 
ATOM     23  C   UNL     1       3.011   6.603  -0.514  0.00  0.00    +0.000 C 
ATOM     24  C   UNL     1       2.585   5.345  -1.260  0.00  0.00    +0.001 C 
ENDBRANCH  20  21
ENDBRANCH   8  20
TORSDOF 2
ENDMDL
MODEL 8
REMARK VINA RESULT:      -8.0      3.230      5.141
REMARK  Name = 
REMARK  2 active torsions:
REMARK  status: ('A' for Active; 'I' for Inactive)
REMARK    1  A    between atoms: N_17  and  C_18
REMARK    2  A    between atoms: C_18  and  C_19
REMARK                            x       y       z     vdW  Elec       q    Type
REMARK                         _______ _______ _______ _____ _____    ______ ____
ROOT
ATOM      1  O   UNL     1      -3.173   5.360  -6.634  0.00  0.00    -0.287 OA
ATOM      2  C   UNL     1      -1.972   5.959  -6.272  0.00  0.00    +0.195 A 
ATOM      3  C   UNL     1      -0.792   5.498  -6.847  0.00  0.00    +0.038 A 
ATOM      4  C   UNL     1       0.407   6.005  -6.424  0.00  0.00    -0.021 A 
ATOM      5  C   UNL     1       1.738   5.351  -6.659  0.00  0.00    +0.047 C 
ATOM      6  C   UNL     1       2.121   4.414  -5.574  0.00  0.00    +0.024 C 
ATOM      7  C   UNL     1       3.284   4.708  -4.762  0.00  0.00    +0.073 C 
ATOM      8  N   UNL     1       3.968   5.901  -4.786  0.00  0.00    -0.271 NA
ATOM      9  C   UNL     1       3.028   7.087  -5.273  0.00  0.00    +0.090 C 
ATOM     10  C   UNL     1       1.704   6.460  -4.493  0.00  0.00    +0.044 C 
ATOM     11  C   UNL     1       2.755   6.391  -6.741  0.00  0.00    +0.143 C 
ATOM     12  O   UNL     1       3.988   5.922  -7.175  0.00  0.00    -0.224 OA
ATOM     13  C   UNL     1       2.414   7.548  -7.678  0.00  0.00    +0.032 C 
ATOM     14  C   UNL     1       2.504   6.881  -9.048  0.00  0.00    +0.003 C 
ATOM     15  C   UNL     1       1.598   5.695  -9.142  0.00  0.00    +0.000 C 
ATOM     16  C   UNL     1       1.713   4.715  -8.017  0.00  0.00    +0.007 C 
ATOM     17  C   UNL     1       0.534   6.874  -5.341  0.00  0.00    -0.024 A 
ATOM     18  C   UNL     1      -0.655   7.195  -4.695  0.00  0.00    -0.001 A 
ATOM     19  C   UNL     1      -1.872   6.764  -5.161  0.00  0.00    +0.042 A 
ENDROOT
BRANCH   8  20
ATOM     20  C   UNL     1       4.399   6.319  -3.466  0.00  0.00    +0.072 C 
BRANCH  20  21
ATOM     21  C   UNL     1       3.551   5.680  -2.375  0.00  0.00    +0.016 C 
ATOM     22  C   UNL     1       4.462   4.922  -1.420  0.00  0.00    +0.001 C 
ATOM     23  C   UNL     1       4.305   6.093  -0.460  0.00  0.00    +0.000 C 
ATOM     24  C   UNL     1       3.196   6.697  -1.311  0.00  0.00    +0.001 C 
ENDBRANCH  20  21
ENDBRANCH   8  20
TORSDOF 2
ENDMDL
MODEL 9
REMARK VINA RESULT:      -7.9      3.611      7.209
REMARK  Name = 
REMARK  2 active torsions:
REMARK  status: ('A' for Active; 'I' for Inactive)
REMARK    1  A    between atoms: N_17  and  C_18
REMARK    2  A    between atoms: C_18  and  C_19
REMARK                            x       y       z     vdW  Elec       q    Type
REMARK                         _______ _______ _______ _____ _____    ______ ____
ROOT
ATOM      1  O   UNL     1       6.266   7.605  -4.128  0.00  0.00    -0.287 OA
ATOM      2  C   UNL     1       5.123   6.814  -4.144  0.00  0.00    +0.195 A 
ATOM      3  C   UNL     1       4.273   6.886  -5.243  0.00  0.00    +0.038 A 
ATOM      4  C   UNL     1       3.092   6.194  -5.227  0.00  0.00    -0.021 A 
ATOM      5  C   UNL     1       1.929   6.472  -6.136  0.00  0.00    +0.047 C 
ATOM      6  C   UNL     1       0.980   7.465  -5.572  0.00  0.00    +0.024 C 
ATOM      7  C   UNL     1      -0.371   7.050  -5.253  0.00  0.00    +0.073 C 
ATOM      8  N   UNL     1      -0.803   5.745  -5.251  0.00  0.00    -0.271 NA
ATOM      9  C   UNL     1       0.406   4.744  -5.001  0.00  0.00    +0.090 C 
ATOM     10  C   UNL     1       1.146   5.783  -3.938  0.00  0.00    +0.044 C 
ATOM     11  C   UNL     1       1.207   5.227  -6.357  0.00  0.00    +0.143 C 
ATOM     12  O   UNL     1       0.245   5.318  -7.355  0.00  0.00    -0.224 OA
ATOM     13  C   UNL     1       2.083   4.040  -6.751  0.00  0.00    +0.032 C 
ATOM     14  C   UNL     1       2.523   4.428  -8.161  0.00  0.00    +0.003 C 
ATOM     15  C   UNL     1       3.205   5.758  -8.177  0.00  0.00    +0.000 C 
ATOM     16  C   UNL     1       2.470   6.860  -7.480  0.00  0.00    +0.007 C 
ATOM     17  C   UNL     1       2.615   5.514  -4.107  0.00  0.00    -0.024 A 
ATOM     18  C   UNL     1       3.423   5.590  -2.978  0.00  0.00    -0.001 A 
ATOM     19  C   UNL     1       4.649   6.206  -3.005  0.00  0.00    +0.042 A 
ENDROOT
BRANCH   8  20
ATOM     20  C   UNL     1      -1.716   5.467  -4.159  0.00  0.00    +0.072 C 
BRANCH  20  21
ATOM     21  C   UNL     1      -2.520   6.701  -3.776  0.00  0.00    +0.016 C 
ATOM     22  C   UNL     1      -3.769   6.266  -3.024  0.00  0.00    +0.001 C 
ATOM     23  C   UNL     1      -3.056   6.686  -1.747  0.00  0.00    +0.000 C 
ATOM     24  C   UNL     1      -1.940   7.354  -2.539  0.00  0.00    +0.001 C 
ENDBRANCH  20  21
ENDBRANCH   8  20
TORSDOF 2
ENDMDL
