MODEL 1
REMARK VINA RESULT:      -9.5      0.000      0.000
REMARK  Name = 
REMARK  8 active torsions:
REMARK  status: ('A' for Active; 'I' for Inactive)
REMARK    1  A    between atoms: C_2  and  C_3
REMARK    2  A    between atoms: C_9  and  C_10
REMARK    3  A    between atoms: C_10  and  C_11
REMARK    4  A    between atoms: C_11  and  C_12
REMARK    5  A    between atoms: C_12  and  C_13
REMARK    6  A    between atoms: C_13  and  N_14
REMARK    7  A    between atoms: N_17  and  C_18
REMARK    8  A    between atoms: C_23  and  C_24
REMARK                            x       y       z     vdW  Elec       q    Type
REMARK                         _______ _______ _______ _____ _____    ______ ____
ROOT
ATOM      1  N   UNL     1       1.646   6.225  -8.243  0.00  0.00    -0.270 NA
ATOM      2  C   UNL     1       2.908   6.732  -7.758  0.00  0.00    +0.094 C 
ATOM      3  C   UNL     1       3.763   5.520  -7.404  0.00  0.00    +0.108 C 
ATOM      4  N   UNL     1       3.933   4.789  -8.660  0.00  0.00    -0.305 N 
ATOM      5  C   UNL     1       2.694   4.207  -9.179  0.00  0.00    +0.108 C 
ATOM      6  C   UNL     1       1.770   5.397  -9.412  0.00  0.00    +0.094 C 
ENDROOT
BRANCH   4   7
ATOM      7  C   UNL     1       4.714   5.481  -9.646  0.00  0.00    +0.048 A 
ATOM      8  C   UNL     1       4.347   5.408 -10.981  0.00  0.00    +0.018 A 
ATOM      9  C   UNL     1       5.218   5.816 -11.982  0.00  0.00    +0.039 A 
ATOM     10  C   UNL     1       6.429   6.388 -11.623  0.00  0.00    +0.146 A 
ATOM     11  O   UNL     1       6.957   6.905 -12.700  0.00  0.00    -0.449 OA
ATOM     12  C   UNL     1       6.231   6.661 -13.757  0.00  0.00    +0.202 A 
ATOM     13  C   UNL     1       6.945   6.062 -10.395  0.00  0.00    +0.039 A 
ATOM     14  C   UNL     1       5.111   5.973 -13.358  0.00  0.00    +0.045 A 
ATOM     15  C   UNL     1       6.068   5.692  -9.412  0.00  0.00    +0.018 A 
BRANCH  12  16
ATOM     16  C   UNL     1       6.609   6.957 -15.141  0.00  0.00    +0.319 C 
ATOM     17  O   UNL     1       7.204   6.108 -15.846  0.00  0.00    -0.263 OA
ATOM     18  N   UNL     1       6.257   8.189 -15.731  0.00  0.00    -0.081 NA
ENDBRANCH  12  16
ENDBRANCH   4   7
BRANCH   1  19
ATOM     19  C   UNL     1       0.895   5.558  -7.197  0.00  0.00    +0.072 C 
BRANCH  19  20
ATOM     20  C   UNL     1      -0.538   5.459  -7.670  0.00  0.00    +0.018 C 
BRANCH  20  21
ATOM     21  C   UNL     1      -1.475   4.965  -6.604  0.00  0.00    +0.006 C 
BRANCH  21  22
ATOM     22  C   UNL     1      -2.352   6.056  -6.035  0.00  0.00    +0.028 C 
BRANCH  22  30
ATOM     23  C   UNL     1       1.225   6.476  -3.398  0.00  0.00    +0.069 A 
ATOM     24  C   UNL     1       0.025   6.861  -3.984  0.00  0.00    +0.012 A 
ATOM     25  C   UNL     1      -1.160   6.186  -3.752  0.00  0.00    +0.016 A 
ATOM     26  C   UNL     1      -1.229   5.427  -2.590  0.00  0.00    +0.081 A 
ATOM     27  N   UNL     1      -2.474   4.891  -2.600  0.00  0.00    -0.244 NA
ATOM     28  C   UNL     1      -3.121   5.213  -3.726  0.00  0.00    +0.095 A 
ATOM     29  C   UNL     1      -0.066   5.132  -1.892  0.00  0.00    +0.020 A 
ATOM     30  C   UNL     1      -2.270   5.940  -4.546  0.00  0.00    -0.002 A 
ATOM     31  C   UNL     1       1.166   5.484  -2.429  0.00  0.00    +0.012 A 
BRANCH  23  33
ATOM     32  N   UNL     1       3.596   7.149  -4.202  0.00  0.00    -0.191 NA
ATOM     33  C   UNL     1       2.489   6.837  -3.998  0.00  0.00    +0.100 C 
ENDBRANCH  23  33
ENDBRANCH  22  30
ENDBRANCH  21  22
ENDBRANCH  20  21
ENDBRANCH  19  20
ENDBRANCH   1  19
TORSDOF 8
ENDMDL
MODEL 2
REMARK VINA RESULT:      -9.1      4.162     10.547
REMARK  Name = 
REMARK  8 active torsions:
REMARK  status: ('A' for Active; 'I' for Inactive)
REMARK    1  A    between atoms: C_2  and  C_3
REMARK    2  A    between atoms: C_9  and  C_10
REMARK    3  A    between atoms: C_10  and  C_11
REMARK    4  A    between atoms: C_11  and  C_12
REMARK    5  A    between atoms: C_12  and  C_13
REMARK    6  A    between atoms: C_13  and  N_14
REMARK    7  A    between atoms: N_17  and  C_18
REMARK    8  A    between atoms: C_23  and  C_24
REMARK                            x       y       z     vdW  Elec       q    Type
REMARK                         _______ _______ _______ _____ _____    ______ ____
ROOT
ATOM      1  N   UNL     1       2.933   6.218  -7.106  0.00  0.00    -0.270 NA
ATOM      2  C   UNL     1       1.650   6.712  -7.546  0.00  0.00    +0.094 C 
ATOM      3  C   UNL     1       0.763   5.492  -7.773  0.00  0.00    +0.108 C 
ATOM      4  N   UNL     1       0.662   4.843  -6.465  0.00  0.00    -0.305 N 
ATOM      5  C   UNL     1       1.923   4.276  -5.985  0.00  0.00    +0.108 C 
ATOM      6  C   UNL     1       2.872   5.465  -5.882  0.00  0.00    +0.094 C 
ENDROOT
BRANCH   4   7
ATOM      7  C   UNL     1      -0.052   5.604  -5.480  0.00  0.00    +0.048 A 
ATOM      8  C   UNL     1       0.358   5.561  -4.156  0.00  0.00    +0.018 A 
ATOM      9  C   UNL     1      -0.458   6.044  -3.143  0.00  0.00    +0.039 A 
ATOM     10  C   UNL     1      -1.654   6.659  -3.481  0.00  0.00    +0.146 A 
ATOM     11  O   UNL     1      -2.119   7.239  -2.407  0.00  0.00    -0.449 OA
ATOM     12  C   UNL     1      -1.369   6.997  -1.367  0.00  0.00    +0.202 A 
ATOM     13  C   UNL     1      -2.226   6.316  -4.678  0.00  0.00    +0.039 A 
ATOM     14  C   UNL     1      -0.296   6.244  -1.777  0.00  0.00    +0.045 A 
ATOM     15  C   UNL     1      -1.402   5.871  -5.677  0.00  0.00    +0.018 A 
BRANCH  12  16
ATOM     16  C   UNL     1      -1.684   7.359   0.018  0.00  0.00    +0.319 C 
ATOM     17  O   UNL     1      -1.989   6.485   0.862  0.00  0.00    -0.263 OA
ATOM     18  N   UNL     1      -1.594   8.701   0.445  0.00  0.00    -0.081 NA
ENDBRANCH  12  16
ENDBRANCH   4   7
BRANCH   1  19
ATOM     19  C   UNL     1       3.614   5.478  -8.150  0.00  0.00    +0.072 C 
BRANCH  19  20
ATOM     20  C   UNL     1       5.066   5.364  -7.744  0.00  0.00    +0.018 C 
BRANCH  20  21
ATOM     21  C   UNL     1       5.945   4.843  -8.846  0.00  0.00    +0.006 C 
BRANCH  21  22
ATOM     22  C   UNL     1       7.014   5.826  -9.265  0.00  0.00    +0.028 C 
BRANCH  22  30
ATOM     23  C   UNL     1       3.554   6.108 -12.071  0.00  0.00    +0.069 A 
ATOM     24  C   UNL     1       4.672   6.561 -11.382  0.00  0.00    +0.012 A 
ATOM     25  C   UNL     1       5.935   6.038 -11.598  0.00  0.00    +0.016 A 
ATOM     26  C   UNL     1       6.147   5.401 -12.814  0.00  0.00    +0.081 A 
ATOM     27  N   UNL     1       7.441   5.000 -12.774  0.00  0.00    -0.244 NA
ATOM     28  C   UNL     1       7.989   5.283 -11.587  0.00  0.00    +0.095 A 
ATOM     29  C   UNL     1       5.060   5.051 -13.605  0.00  0.00    +0.020 A 
ATOM     30  C   UNL     1       7.022   5.838 -10.761  0.00  0.00    -0.002 A 
ATOM     31  C   UNL     1       3.772   5.221 -13.116  0.00  0.00    +0.012 A 
BRANCH  23  33
ATOM     32  N   UNL     1       1.127   6.601 -11.302  0.00  0.00    -0.191 NA
ATOM     33  C   UNL     1       2.228   6.277 -11.521  0.00  0.00    +0.100 C 
ENDBRANCH  23  33
ENDBRANCH  22  30
ENDBRANCH  21  22
ENDBRANCH  20  21
ENDBRANCH  19  20
ENDBRANCH   1  19
TORSDOF 8
ENDMDL
MODEL 3
REMARK VINA RESULT:      -9.0      1.972      3.822
REMARK  Name = 
REMARK  8 active torsions:
REMARK  status: ('A' for Active; 'I' for Inactive)
REMARK    1  A    between atoms: C_2  and  C_3
REMARK    2  A    between atoms: C_9  and  C_10
REMARK    3  A    between atoms: C_10  and  C_11
REMARK    4  A    between atoms: C_11  and  C_12
REMARK    5  A    between atoms: C_12  and  C_13
REMARK    6  A    between atoms: C_13  and  N_14
REMARK    7  A    between atoms: N_17  and  C_18
REMARK    8  A    between atoms: C_23  and  C_24
REMARK                            x       y       z     vdW  Elec       q    Type
REMARK                         _______ _______ _______ _____ _____    ______ ____
ROOT
ATOM      1  N   UNL     1       2.817   4.761  -5.365  0.00  0.00    -0.270 NA
ATOM      2  C   UNL     1       1.950   4.439  -6.474  0.00  0.00    +0.094 C 
ATOM      3  C   UNL     1       1.350   5.754  -6.960  0.00  0.00    +0.108 C 
ATOM      4  N   UNL     1       2.491   6.560  -7.395  0.00  0.00    -0.305 N 
ATOM      5  C   UNL     1       3.384   6.961  -6.306  0.00  0.00    +0.108 C 
ATOM      6  C   UNL     1       3.892   5.651  -5.714  0.00  0.00    +0.094 C 
ENDROOT
BRANCH   4   7
ATOM      7  C   UNL     1       3.170   6.048  -8.551  0.00  0.00    +0.048 A 
ATOM      8  C   UNL     1       4.541   6.220  -8.669  0.00  0.00    +0.018 A 
ATOM      9  C   UNL     1       5.184   5.998  -9.879  0.00  0.00    +0.039 A 
ATOM     10  C   UNL     1       4.449   5.510 -10.949  0.00  0.00    +0.146 A 
ATOM     11  O   UNL     1       5.294   5.156 -11.880  0.00  0.00    -0.449 OA
ATOM     12  C   UNL     1       6.523   5.436 -11.547  0.00  0.00    +0.202 A 
ATOM     13  C   UNL     1       3.101   5.758 -10.957  0.00  0.00    +0.039 A 
ATOM     14  C   UNL     1       6.514   5.971 -10.282  0.00  0.00    +0.045 A 
ATOM     15  C   UNL     1       2.478   5.943  -9.753  0.00  0.00    +0.018 A 
BRANCH  12  16
ATOM     16  C   UNL     1       7.694   5.318 -12.420  0.00  0.00    +0.319 C 
ATOM     17  O   UNL     1       7.593   4.856 -13.581  0.00  0.00    -0.263 OA
ATOM     18  N   UNL     1       8.957   5.778 -11.989  0.00  0.00    -0.081 NA
ENDBRANCH  12  16
ENDBRANCH   4   7
BRANCH   1  19
ATOM     19  C   UNL     1       2.072   5.251  -4.222  0.00  0.00    +0.072 C 
BRANCH  19  20
ATOM     20  C   UNL     1       3.055   5.418  -3.085  0.00  0.00    +0.018 C 
BRANCH  20  21
ATOM     21  C   UNL     1       2.401   5.839  -1.800  0.00  0.00    +0.006 C 
BRANCH  21  22
ATOM     22  C   UNL     1       1.353   4.862  -1.321  0.00  0.00    +0.028 C 
BRANCH  22  30
ATOM     23  C   UNL     1      -1.948   6.143  -4.040  0.00  0.00    +0.069 A 
ATOM     24  C   UNL     1      -1.345   5.391  -3.038  0.00  0.00    +0.012 A 
ATOM     25  C   UNL     1      -0.926   5.951  -1.845  0.00  0.00    +0.016 A 
ATOM     26  C   UNL     1      -1.524   7.148  -1.473  0.00  0.00    +0.081 A 
ATOM     27  N   UNL     1      -0.953   7.467  -0.286  0.00  0.00    -0.244 NA
ATOM     28  C   UNL     1      -0.000   6.585   0.035  0.00  0.00    +0.095 A 
ATOM     29  C   UNL     1      -2.257   7.870  -2.407  0.00  0.00    +0.020 A 
ATOM     30  C   UNL     1       0.134   5.667  -0.997  0.00  0.00    -0.002 A 
ATOM     31  C   UNL     1      -2.274   7.457  -3.733  0.00  0.00    +0.012 A 
BRANCH  23  33
ATOM     32  N   UNL     1      -2.194   5.295  -6.477  0.00  0.00    -0.191 NA
ATOM     33  C   UNL     1      -1.925   5.698  -5.414  0.00  0.00    +0.100 C 
ENDBRANCH  23  33
ENDBRANCH  22  30
ENDBRANCH  21  22
ENDBRANCH  20  21
ENDBRANCH  19  20
ENDBRANCH   1  19
TORSDOF 8
ENDMDL
MODEL 4
REMARK VINA RESULT:      -8.8      2.576      4.524
REMARK  Name = 
REMARK  8 active torsions:
REMARK  status: ('A' for Active; 'I' for Inactive)
REMARK    1  A    between atoms: C_2  and  C_3
REMARK    2  A    between atoms: C_9  and  C_10
REMARK    3  A    between atoms: C_10  and  C_11
REMARK    4  A    between atoms: C_11  and  C_12
REMARK    5  A    between atoms: C_12  and  C_13
REMARK    6  A    between atoms: C_13  and  N_14
REMARK    7  A    between atoms: N_17  and  C_18
REMARK    8  A    between atoms: C_23  and  C_24
REMARK                            x       y       z     vdW  Elec       q    Type
REMARK                         _______ _______ _______ _____ _____    ______ ____
ROOT
ATOM      1  N   UNL     1       3.435   4.637  -4.909  0.00  0.00    -0.270 NA
ATOM      2  C   UNL     1       2.461   4.413  -5.952  0.00  0.00    +0.094 C 
ATOM      3  C   UNL     1       1.874   5.775  -6.305  0.00  0.00    +0.108 C 
ATOM      4  N   UNL     1       3.004   6.566  -6.795  0.00  0.00    -0.305 N 
ATOM      5  C   UNL     1       4.004   6.869  -5.771  0.00  0.00    +0.108 C 
ATOM      6  C   UNL     1       4.510   5.509  -5.303  0.00  0.00    +0.094 C 
ENDROOT
BRANCH   4   7
ATOM      7  C   UNL     1       3.556   6.101  -8.036  0.00  0.00    +0.048 A 
ATOM      8  C   UNL     1       4.930   6.137  -8.227  0.00  0.00    +0.018 A 
ATOM      9  C   UNL     1       5.477   5.969  -9.491  0.00  0.00    +0.039 A 
ATOM     10  C   UNL     1       4.634   5.670 -10.551  0.00  0.00    +0.146 A 
ATOM     11  O   UNL     1       5.382   5.322 -11.564  0.00  0.00    -0.449 OA
ATOM     12  C   UNL     1       6.651   5.435 -11.287  0.00  0.00    +0.202 A 
ATOM     13  C   UNL     1       3.324   6.060 -10.448  0.00  0.00    +0.039 A 
ATOM     14  C   UNL     1       6.771   5.841  -9.981  0.00  0.00    +0.045 A 
ATOM     15  C   UNL     1       2.792   6.189  -9.194  0.00  0.00    +0.018 A 
BRANCH  12  16
ATOM     16  C   UNL     1       7.752   5.280 -12.242  0.00  0.00    +0.319 C 
ATOM     17  O   UNL     1       7.604   4.629 -13.302  0.00  0.00    -0.263 OA
ATOM     18  N   UNL     1       8.992   5.913 -12.012  0.00  0.00    -0.081 NA
ENDBRANCH  12  16
ENDBRANCH   4   7
BRANCH   1  19
ATOM     19  C   UNL     1       2.814   5.082  -3.678  0.00  0.00    +0.072 C 
BRANCH  19  20
ATOM     20  C   UNL     1       3.830   4.897  -2.572  0.00  0.00    +0.018 C 
BRANCH  20  21
ATOM     21  C   UNL     1       3.449   5.602  -1.301  0.00  0.00    +0.006 C 
BRANCH  21  22
ATOM     22  C   UNL     1       2.789   6.940  -1.540  0.00  0.00    +0.028 C 
BRANCH  22  30
ATOM     23  C   UNL     1      -1.569   6.221  -0.902  0.00  0.00    +0.069 A 
ATOM     24  C   UNL     1      -0.207   5.988  -0.753  0.00  0.00    +0.012 A 
ATOM     25  C   UNL     1       0.632   6.893  -0.128  0.00  0.00    +0.016 A 
ATOM     26  C   UNL     1       0.038   7.795   0.745  0.00  0.00    +0.081 A 
ATOM     27  N   UNL     1       1.063   8.544   1.221  0.00  0.00    -0.244 NA
ATOM     28  C   UNL     1       2.214   8.202   0.631  0.00  0.00    +0.095 A 
ATOM     29  C   UNL     1      -1.341   7.961   0.729  0.00  0.00    +0.020 A 
ATOM     30  C   UNL     1       1.961   7.232  -0.329  0.00  0.00    -0.002 A 
ATOM     31  C   UNL     1      -2.098   7.324  -0.246  0.00  0.00    +0.012 A 
BRANCH  23  33
ATOM     32  N   UNL     1      -2.724   4.820  -2.753  0.00  0.00    -0.191 NA
ATOM     33  C   UNL     1      -2.322   5.561  -1.945  0.00  0.00    +0.100 C 
ENDBRANCH  23  33
ENDBRANCH  22  30
ENDBRANCH  21  22
ENDBRANCH  20  21
ENDBRANCH  19  20
ENDBRANCH   1  19
TORSDOF 8
ENDMDL
MODEL 5
REMARK VINA RESULT:      -8.7      2.797      4.425
REMARK  Name = 
REMARK  8 active torsions:
REMARK  status: ('A' for Active; 'I' for Inactive)
REMARK    1  A    between atoms: C_2  and  C_3
REMARK    2  A    between atoms: C_9  and  C_10
REMARK    3  A    between atoms: C_10  and  C_11
REMARK    4  A    between atoms: C_11  and  C_12
REMARK    5  A    between atoms: C_12  and  C_13
REMARK    6  A    between atoms: C_13  and  N_14
REMARK    7  A    between atoms: N_17  and  C_18
REMARK    8  A    between atoms: C_23  and  C_24
REMARK                            x       y       z     vdW  Elec       q    Type
REMARK                         _______ _______ _______ _____ _____    ______ ____
ROOT
ATOM      1  N   UNL     1       3.308   7.055  -4.117  0.00  0.00    -0.270 NA
ATOM      2  C   UNL     1       4.510   6.900  -4.902  0.00  0.00    +0.094 C 
ATOM      3  C   UNL     1       4.755   5.401  -5.040  0.00  0.00    +0.108 C 
ATOM      4  N   UNL     1       3.585   4.884  -5.751  0.00  0.00    -0.305 N 
ATOM      5  C   UNL     1       2.341   4.968  -4.986  0.00  0.00    +0.108 C 
ATOM      6  C   UNL     1       2.146   6.456  -4.717  0.00  0.00    +0.094 C 
ENDROOT
BRANCH   4   7
ATOM      7  C   UNL     1       3.471   5.336  -7.109  0.00  0.00    +0.048 A 
ATOM      8  C   UNL     1       2.303   5.089  -7.814  0.00  0.00    +0.018 A 
ATOM      9  C   UNL     1       2.255   5.252  -9.191  0.00  0.00    +0.039 A 
ATOM     10  C   UNL     1       3.369   5.757  -9.845  0.00  0.00    +0.146 A 
ATOM     11  O   UNL     1       3.013   6.048 -11.067  0.00  0.00    -0.449 OA
ATOM     12  C   UNL     1       1.775   5.709 -11.301  0.00  0.00    +0.202 A 
ATOM     13  C   UNL     1       4.589   5.582  -9.245  0.00  0.00    +0.039 A 
ATOM     14  C   UNL     1       1.243   5.200 -10.142  0.00  0.00    +0.045 A 
ATOM     15  C   UNL     1       4.620   5.454  -7.883  0.00  0.00    +0.018 A 
BRANCH  12  16
ATOM     16  C   UNL     1       1.109   5.748 -12.606  0.00  0.00    +0.319 C 
ATOM     17  O   UNL     1       0.697   4.699 -13.154  0.00  0.00    -0.263 OA
ATOM     18  N   UNL     1       0.865   6.980 -13.249  0.00  0.00    -0.081 NA
ENDBRANCH  12  16
ENDBRANCH   4   7
BRANCH   1  19
ATOM     19  C   UNL     1       3.494   6.603  -2.752  0.00  0.00    +0.072 C 
BRANCH  19  20
ATOM     20  C   UNL     1       2.196   6.855  -2.017  0.00  0.00    +0.018 C 
BRANCH  20  21
ATOM     21  C   UNL     1       1.902   5.816  -0.972  0.00  0.00    +0.006 C 
BRANCH  21  22
ATOM     22  C   UNL     1       0.780   4.883  -1.363  0.00  0.00    +0.028 C 
BRANCH  22  30
ATOM     23  C   UNL     1      -1.602   6.194  -4.903  0.00  0.00    +0.069 A 
ATOM     24  C   UNL     1      -1.317   5.440  -3.771  0.00  0.00    +0.012 A 
ATOM     25  C   UNL     1      -1.243   6.000  -2.509  0.00  0.00    +0.016 A 
ATOM     26  C   UNL     1      -1.903   7.207  -2.322  0.00  0.00    +0.081 A 
ATOM     27  N   UNL     1      -1.686   7.525  -1.023  0.00  0.00    -0.244 NA
ATOM     28  C   UNL     1      -0.875   6.631  -0.445  0.00  0.00    +0.095 A 
ATOM     29  C   UNL     1      -2.333   7.934  -3.426  0.00  0.00    +0.020 A 
ATOM     30  C   UNL     1      -0.469   5.706  -1.396  0.00  0.00    -0.002 A 
ATOM     31  C   UNL     1      -1.983   7.514  -4.702  0.00  0.00    +0.012 A 
BRANCH  23  33
ATOM     32  N   UNL     1      -1.161   5.311  -7.300  0.00  0.00    -0.191 NA
ATOM     33  C   UNL     1      -1.200   5.741  -6.214  0.00  0.00    +0.100 C 
ENDBRANCH  23  33
ENDBRANCH  22  30
ENDBRANCH  21  22
ENDBRANCH  20  21
ENDBRANCH  19  20
ENDBRANCH   1  19
TORSDOF 8
ENDMDL
MODEL 6
REMARK VINA RESULT:      -8.6      1.916      2.732
REMARK  Name = 
REMARK  8 active torsions:
REMARK  status: ('A' for Active; 'I' for Inactive)
REMARK    1  A    between atoms: C_2  and  C_3
REMARK    2  A    between atoms: C_9  and  C_10
REMARK    3  A    between atoms: C_10  and  C_11
REMARK    4  A    between atoms: C_11  and  C_12
REMARK    5  A    between atoms: C_12  and  C_13
REMARK    6  A    between atoms: C_13  and  N_14
REMARK    7  A    between atoms: N_17  and  C_18
REMARK    8  A    between atoms: C_23  and  C_24
REMARK                            x       y       z     vdW  Elec       q    Type
REMARK                         _______ _______ _______ _____ _____    ______ ____
ROOT
ATOM      1  N   UNL     1       0.938   4.715  -6.908  0.00  0.00    -0.270 NA
ATOM      2  C   UNL     1       1.040   6.005  -7.549  0.00  0.00    +0.094 C 
ATOM      3  C   UNL     1       2.072   6.806  -6.763  0.00  0.00    +0.108 C 
ATOM      4  N   UNL     1       3.320   6.051  -6.888  0.00  0.00    -0.305 N 
ATOM      5  C   UNL     1       3.297   4.752  -6.215  0.00  0.00    +0.108 C 
ATOM      6  C   UNL     1       2.173   3.978  -6.896  0.00  0.00    +0.094 C 
ENDROOT
BRANCH   4   7
ATOM      7  C   UNL     1       3.858   6.014  -8.217  0.00  0.00    +0.048 A 
ATOM      8  C   UNL     1       5.135   5.512  -8.422  0.00  0.00    +0.018 A 
ATOM      9  C   UNL     1       5.794   5.715  -9.626  0.00  0.00    +0.039 A 
ATOM     10  C   UNL     1       5.121   6.349 -10.660  0.00  0.00    +0.146 A 
ATOM     11  O   UNL     1       5.838   6.209 -11.743  0.00  0.00    -0.449 OA
ATOM     12  C   UNL     1       6.965   5.599 -11.500  0.00  0.00    +0.202 A 
ATOM     13  C   UNL     1       4.092   7.190 -10.324  0.00  0.00    +0.039 A 
ATOM     14  C   UNL     1       6.990   5.259 -10.169  0.00  0.00    +0.045 A 
ATOM     15  C   UNL     1       3.433   6.954  -9.148  0.00  0.00    +0.018 A 
BRANCH  12  16
ATOM     16  C   UNL     1       8.065   5.421 -12.451  0.00  0.00    +0.319 C 
ATOM     17  O   UNL     1       7.877   4.879 -13.565  0.00  0.00    -0.263 OA
ATOM     18  N   UNL     1       9.354   5.913 -12.154  0.00  0.00    -0.081 NA
ENDBRANCH  12  16
ENDBRANCH   4   7
BRANCH   1  19
ATOM     19  C   UNL     1       0.367   4.816  -5.580  0.00  0.00    +0.072 C 
BRANCH  19  20
ATOM     20  C   UNL     1      -1.069   5.261  -5.742  0.00  0.00    +0.018 C 
BRANCH  20  21
ATOM     21  C   UNL     1      -1.557   6.101  -4.596  0.00  0.00    +0.006 C 
BRANCH  21  22
ATOM     22  C   UNL     1      -0.496   7.025  -4.045  0.00  0.00    +0.028 C 
BRANCH  22  30
ATOM     23  C   UNL     1       3.706   6.291  -2.732  0.00  0.00    +0.069 A 
ATOM     24  C   UNL     1       2.472   6.930  -2.747  0.00  0.00    +0.012 A 
ATOM     25  C   UNL     1       1.307   6.298  -2.351  0.00  0.00    +0.016 A 
ATOM     26  C   UNL     1       1.448   5.199  -1.514  0.00  0.00    +0.081 A 
ATOM     27  N   UNL     1       0.181   4.781  -1.273  0.00  0.00    -0.244 NA
ATOM     28  C   UNL     1      -0.698   5.507  -1.975  0.00  0.00    +0.095 A 
ATOM     29  C   UNL     1       2.695   4.608  -1.358  0.00  0.00    +0.020 A 
ATOM     30  C   UNL     1      -0.009   6.409  -2.772  0.00  0.00    -0.002 A 
ATOM     31  C   UNL     1       3.761   5.037  -2.139  0.00  0.00    +0.012 A 
BRANCH  23  33
ATOM     32  N   UNL     1       5.609   7.372  -4.122  0.00  0.00    -0.191 NA
ATOM     33  C   UNL     1       4.786   6.748  -3.577  0.00  0.00    +0.100 C 
ENDBRANCH  23  33
ENDBRANCH  22  30
ENDBRANCH  21  22
ENDBRANCH  20  21
ENDBRANCH  19  20
ENDBRANCH   1  19
TORSDOF 8
ENDMDL
MODEL 7
REMARK VINA RESULT:      -8.6      4.438     10.602
REMARK  Name = 
REMARK  8 active torsions:
REMARK  status: ('A' for Active; 'I' for Inactive)
REMARK    1  A    between atoms: C_2  and  C_3
REMARK    2  A    between atoms: C_9  and  C_10
REMARK    3  A    between atoms: C_10  and  C_11
REMARK    4  A    between atoms: C_11  and  C_12
REMARK    5  A    between atoms: C_12  and  C_13
REMARK    6  A    between atoms: C_13  and  N_14
REMARK    7  A    between atoms: N_17  and  C_18
REMARK    8  A    between atoms: C_23  and  C_24
REMARK                            x       y       z     vdW  Elec       q    Type
REMARK                         _______ _______ _______ _____ _____    ______ ____
ROOT
ATOM      1  N   UNL     1       2.278   6.778  -6.637  0.00  0.00    -0.270 NA
ATOM      2  C   UNL     1       1.250   6.205  -5.800  0.00  0.00    +0.094 C 
ATOM      3  C   UNL     1       1.710   4.797  -5.440  0.00  0.00    +0.108 C 
ATOM      4  N   UNL     1       2.958   4.978  -4.698  0.00  0.00    -0.305 N 
ATOM      5  C   UNL     1       4.056   5.511  -5.506  0.00  0.00    +0.108 C 
ATOM      6  C   UNL     1       3.561   6.869  -5.993  0.00  0.00    +0.094 C 
ENDROOT
BRANCH   4   7
ATOM      7  C   UNL     1       2.801   5.621  -3.425  0.00  0.00    +0.048 A 
ATOM      8  C   UNL     1       3.926   5.940  -2.678  0.00  0.00    +0.018 A 
ATOM      9  C   UNL     1       3.815   6.296  -1.341  0.00  0.00    +0.039 A 
ATOM     10  C   UNL     1       2.551   6.420  -0.784  0.00  0.00    +0.146 A 
ATOM     11  O   UNL     1       2.688   6.990   0.383  0.00  0.00    -0.449 OA
ATOM     12  C   UNL     1       3.943   7.187   0.679  0.00  0.00    +0.202 A 
ATOM     13  C   UNL     1       1.531   5.711  -1.362  0.00  0.00    +0.039 A 
ATOM     14  C   UNL     1       4.705   6.766  -0.384  0.00  0.00    +0.045 A 
ATOM     15  C   UNL     1       1.643   5.396  -2.689  0.00  0.00    +0.018 A 
BRANCH  12  16
ATOM     16  C   UNL     1       4.455   7.656   1.969  0.00  0.00    +0.319 C 
ATOM     17  O   UNL     1       4.667   6.857   2.911  0.00  0.00    -0.263 OA
ATOM     18  N   UNL     1       4.776   9.016   2.160  0.00  0.00    -0.081 NA
ENDBRANCH  12  16
ENDBRANCH   4   7
BRANCH   1  19
ATOM     19  C   UNL     1       2.372   6.102  -7.916  0.00  0.00    +0.072 C 
BRANCH  19  20
ATOM     20  C   UNL     1       2.901   7.106  -8.916  0.00  0.00    +0.018 C 
BRANCH  20  21
ATOM     21  C   UNL     1       3.157   6.507 -10.270  0.00  0.00    +0.006 C 
BRANCH  21  22
ATOM     22  C   UNL     1       4.014   5.265 -10.215  0.00  0.00    +0.028 C 
BRANCH  22  30
ATOM     23  C   UNL     1       7.071   6.461 -13.241  0.00  0.00    +0.069 A 
ATOM     24  C   UNL     1       6.125   6.659 -12.241  0.00  0.00    +0.012 A 
ATOM     25  C   UNL     1       6.305   6.192 -10.951  0.00  0.00    +0.016 A 
ATOM     26  C   UNL     1       7.612   5.943 -10.555  0.00  0.00    +0.081 A 
ATOM     27  N   UNL     1       7.511   5.515  -9.273  0.00  0.00    -0.244 NA
ATOM     28  C   UNL     1       6.228   5.416  -8.906  0.00  0.00    +0.095 A 
ATOM     29  C   UNL     1       8.619   5.873 -11.509  0.00  0.00    +0.020 A 
ATOM     30  C   UNL     1       5.421   5.724  -9.992  0.00  0.00    -0.002 A 
ATOM     31  C   UNL     1       8.291   5.922 -12.858  0.00  0.00    +0.012 A 
BRANCH  23  33
ATOM     32  N   UNL     1       6.662   6.432 -15.801  0.00  0.00    -0.191 NA
ATOM     33  C   UNL     1       6.690   6.492 -14.634  0.00  0.00    +0.100 C 
ENDBRANCH  23  33
ENDBRANCH  22  30
ENDBRANCH  21  22
ENDBRANCH  20  21
ENDBRANCH  19  20
ENDBRANCH   1  19
TORSDOF 8
ENDMDL
MODEL 8
REMARK VINA RESULT:      -8.5      1.942      4.241
REMARK  Name = 
REMARK  8 active torsions:
REMARK  status: ('A' for Active; 'I' for Inactive)
REMARK    1  A    between atoms: C_2  and  C_3
REMARK    2  A    between atoms: C_9  and  C_10
REMARK    3  A    between atoms: C_10  and  C_11
REMARK    4  A    between atoms: C_11  and  C_12
REMARK    5  A    between atoms: C_12  and  C_13
REMARK    6  A    between atoms: C_13  and  N_14
REMARK    7  A    between atoms: N_17  and  C_18
REMARK    8  A    between atoms: C_23  and  C_24
REMARK                            x       y       z     vdW  Elec       q    Type
REMARK                         _______ _______ _______ _____ _____    ______ ____
ROOT
ATOM      1  N   UNL     1       4.543   5.623  -3.795  0.00  0.00    -0.270 NA
ATOM      2  C   UNL     1       3.806   4.533  -4.388  0.00  0.00    +0.094 C 
ATOM      3  C   UNL     1       2.445   5.090  -4.791  0.00  0.00    +0.108 C 
ATOM      4  N   UNL     1       2.732   6.134  -5.775  0.00  0.00    -0.305 N 
ATOM      5  C   UNL     1       3.437   7.292  -5.223  0.00  0.00    +0.108 C 
ATOM      6  C   UNL     1       4.750   6.732  -4.688  0.00  0.00    +0.094 C 
ENDROOT
BRANCH   4   7
ATOM      7  C   UNL     1       3.280   5.648  -7.010  0.00  0.00    +0.048 A 
ATOM      8  C   UNL     1       3.852   6.543  -7.901  0.00  0.00    +0.018 A 
ATOM      9  C   UNL     1       4.132   6.166  -9.207  0.00  0.00    +0.039 A 
ATOM     10  C   UNL     1       3.917   4.849  -9.585  0.00  0.00    +0.146 A 
ATOM     11  O   UNL     1       4.471   4.677 -10.755  0.00  0.00    -0.449 OA
ATOM     12  C   UNL     1       4.972   5.789 -11.218  0.00  0.00    +0.202 A 
ATOM     13  C   UNL     1       2.988   4.131  -8.878  0.00  0.00    +0.039 A 
ATOM     14  C   UNL     1       4.787   6.769 -10.273  0.00  0.00    +0.045 A 
ATOM     15  C   UNL     1       2.748   4.498  -7.581  0.00  0.00    +0.018 A 
BRANCH  12  16
ATOM     16  C   UNL     1       5.521   5.986 -12.562  0.00  0.00    +0.319 C 
ATOM     17  O   UNL     1       6.101   7.052 -12.876  0.00  0.00    -0.263 OA
ATOM     18  N   UNL     1       5.457   4.951 -13.519  0.00  0.00    -0.081 NA
ENDBRANCH  12  16
ENDBRANCH   4   7
BRANCH   1  19
ATOM     19  C   UNL     1       3.955   6.053  -2.542  0.00  0.00    +0.072 C 
BRANCH  19  20
ATOM     20  C   UNL     1       3.558   4.807  -1.783  0.00  0.00    +0.018 C 
BRANCH  20  21
ATOM     21  C   UNL     1       2.260   4.960  -1.041  0.00  0.00    +0.006 C 
BRANCH  21  22
ATOM     22  C   UNL     1       1.596   6.296  -1.278  0.00  0.00    +0.028 C 
BRANCH  22  30
ATOM     23  C   UNL     1      -1.788   5.786  -4.144  0.00  0.00    +0.069 A 
ATOM     24  C   UNL     1      -0.848   5.384  -3.202  0.00  0.00    +0.012 A 
ATOM     25  C   UNL     1      -0.866   5.844  -1.898  0.00  0.00    +0.016 A 
ATOM     26  C   UNL     1      -2.078   6.330  -1.425  0.00  0.00    +0.081 A 
ATOM     27  N   UNL     1      -1.829   6.698  -0.144  0.00  0.00    -0.244 NA
ATOM     28  C   UNL     1      -0.533   6.539   0.151  0.00  0.00    +0.095 A 
ATOM     29  C   UNL     1      -3.101   6.615  -2.320  0.00  0.00    +0.020 A 
ATOM     30  C   UNL     1       0.141   6.110  -0.983  0.00  0.00    -0.002 A 
ATOM     31  C   UNL     1      -2.860   6.539  -3.686  0.00  0.00    +0.012 A 
BRANCH  23  33
ATOM     32  N   UNL     1      -1.166   5.390  -6.630  0.00  0.00    -0.191 NA
ATOM     33  C   UNL     1      -1.494   5.717  -5.557  0.00  0.00    +0.100 C 
ENDBRANCH  23  33
ENDBRANCH  22  30
ENDBRANCH  21  22
ENDBRANCH  20  21
ENDBRANCH  19  20
ENDBRANCH   1  19
TORSDOF 8
ENDMDL
MODEL 9
REMARK VINA RESULT:      -8.4      4.361      9.400
REMARK  Name = 
REMARK  8 active torsions:
REMARK  status: ('A' for Active; 'I' for Inactive)
REMARK    1  A    between atoms: C_2  and  C_3
REMARK    2  A    between atoms: C_9  and  C_10
REMARK    3  A    between atoms: C_10  and  C_11
REMARK    4  A    between atoms: C_11  and  C_12
REMARK    5  A    between atoms: C_12  and  C_13
REMARK    6  A    between atoms: C_13  and  N_14
REMARK    7  A    between atoms: N_17  and  C_18
REMARK    8  A    between atoms: C_23  and  C_24
REMARK                            x       y       z     vdW  Elec       q    Type
REMARK                         _______ _______ _______ _____ _____    ______ ____
ROOT
ATOM      1  N   UNL     1       1.276   5.144  -7.688  0.00  0.00    -0.270 NA
ATOM      2  C   UNL     1       2.309   4.279  -7.168  0.00  0.00    +0.094 C 
ATOM      3  C   UNL     1       3.640   4.972  -7.438  0.00  0.00    +0.108 C 
ATOM      4  N   UNL     1       3.577   6.230  -6.693  0.00  0.00    -0.305 N 
ATOM      5  C   UNL     1       2.580   7.172  -7.203  0.00  0.00    +0.108 C 
ATOM      6  C   UNL     1       1.248   6.443  -7.070  0.00  0.00    +0.094 C 
ENDROOT
BRANCH   4   7
ATOM      7  C   UNL     1       3.558   6.072  -5.266  0.00  0.00    +0.048 A 
ATOM      8  C   UNL     1       3.544   7.197  -4.456  0.00  0.00    +0.018 A 
ATOM      9  C   UNL     1       3.809   7.098  -3.097  0.00  0.00    +0.039 A 
ATOM     10  C   UNL     1       3.997   5.842  -2.541  0.00  0.00    +0.146 A 
ATOM     11  O   UNL     1       3.985   5.978  -1.242  0.00  0.00    -0.449 OA
ATOM     12  C   UNL     1       3.877   7.230  -0.890  0.00  0.00    +0.202 A 
ATOM     13  C   UNL     1       4.433   4.841  -3.370  0.00  0.00    +0.039 A 
ATOM     14  C   UNL     1       3.759   7.987  -2.030  0.00  0.00    +0.045 A 
ATOM     15  C   UNL     1       4.135   4.939  -4.702  0.00  0.00    +0.018 A 
BRANCH  12  16
ATOM     16  C   UNL     1       3.992   7.748   0.476  0.00  0.00    +0.319 C 
ATOM     17  O   UNL     1       3.459   8.834   0.804  0.00  0.00    -0.263 OA
ATOM     18  N   UNL     1       4.658   7.001   1.470  0.00  0.00    -0.081 NA
ENDBRANCH  12  16
ENDBRANCH   4   7
BRANCH   1  19
ATOM     19  C   UNL     1       1.333   5.245  -9.133  0.00  0.00    +0.072 C 
BRANCH  19  20
ATOM     20  C   UNL     1       0.023   5.844  -9.592  0.00  0.00    +0.018 C 
BRANCH  20  21
ATOM     21  C   UNL     1      -0.105   5.902 -11.087  0.00  0.00    +0.006 C 
BRANCH  21  22
ATOM     22  C   UNL     1       0.771   6.960 -11.717  0.00  0.00    +0.028 C 
BRANCH  22  30
ATOM     23  C   UNL     1       5.050   5.691 -11.671  0.00  0.00    +0.069 A 
ATOM     24  C   UNL     1       3.672   5.518 -11.624  0.00  0.00    +0.012 A 
ATOM     25  C   UNL     1       2.854   5.803 -12.703  0.00  0.00    +0.016 A 
ATOM     26  C   UNL     1       3.454   5.816 -13.955  0.00  0.00    +0.081 A 
ATOM     27  N   UNL     1       2.451   6.105 -14.819  0.00  0.00    -0.244 NA
ATOM     28  C   UNL     1       1.312   6.345 -14.159  0.00  0.00    +0.095 A 
ATOM     29  C   UNL     1       4.840   5.849 -14.053  0.00  0.00    +0.020 A 
ATOM     30  C   UNL     1       1.556   6.282 -12.794  0.00  0.00    -0.002 A 
ATOM     31  C   UNL     1       5.606   6.002 -12.904  0.00  0.00    +0.012 A 
BRANCH  23  33
ATOM     32  N   UNL     1       6.643   5.892  -9.636  0.00  0.00    -0.191 NA
ATOM     33  C   UNL     1       5.813   5.874 -10.458  0.00  0.00    +0.100 C 
ENDBRANCH  23  33
ENDBRANCH  22  30
ENDBRANCH  21  22
ENDBRANCH  20  21
ENDBRANCH  19  20
ENDBRANCH   1  19
TORSDOF 8
ENDMDL
