MODEL 1
REMARK VINA RESULT:      -7.9      0.000      0.000
REMARK  Name = 
REMARK  0 active torsions:
REMARK  status: ('A' for Active; 'I' for Inactive)
REMARK                            x       y       z     vdW  Elec       q    Type
REMARK                         _______ _______ _______ _____ _____    ______ ____
ROOT
ATOM      1  N   UNL     1       2.866   5.565  -7.528  0.00  0.00    -0.069 NA
ATOM      2  C   UNL     1       2.055   4.721  -6.698  0.00  0.00    +0.350 C 
ATOM      3  N   UNL     1       1.606   5.190  -5.419  0.00  0.00    -0.219 N 
ATOM      4  C   UNL     1       2.664   5.626  -4.564  0.00  0.00    +0.060 A 
ATOM      5  C   UNL     1       2.549   6.133  -3.277  0.00  0.00    +0.014 A 
ATOM      6  C   UNL     1       3.460   7.056  -2.774  0.00  0.00    +0.001 A 
ATOM      7  C   UNL     1       4.267   7.751  -3.670  0.00  0.00    +0.000 A 
ATOM      8  C   UNL     1       4.618   7.046  -4.813  0.00  0.00    +0.001 A 
ATOM      9  C   UNL     1       1.371   5.972  -2.418  0.00  0.00    +0.001 C 
ATOM     10  C   UNL     1       0.102   5.688  -2.728  0.00  0.00    +0.001 C 
ATOM     11  C   UNL     1      -0.482   5.502  -4.062  0.00  0.00    +0.014 A 
ATOM     12  C   UNL     1      -1.764   6.009  -4.183  0.00  0.00    +0.001 A 
ATOM     13  C   UNL     1      -2.309   6.341  -5.417  0.00  0.00    +0.000 A 
ATOM     14  C   UNL     1      -1.772   5.741  -6.535  0.00  0.00    +0.001 A 
ATOM     15  C   UNL     1      -0.474   5.295  -6.451  0.00  0.00    +0.015 A 
ATOM     16  C   UNL     1       3.793   6.030  -5.266  0.00  0.00    +0.015 A 
ATOM     17  C   UNL     1       0.188   5.181  -5.235  0.00  0.00    +0.060 A 
ATOM     18  O   UNL     1       2.253   3.469  -6.755  0.00  0.00    -0.248 OA
ENDROOT
TORSDOF 0
ENDMDL
MODEL 2
REMARK VINA RESULT:      -7.8      1.838      5.308
REMARK  Name = 
REMARK  0 active torsions:
REMARK  status: ('A' for Active; 'I' for Inactive)
REMARK                            x       y       z     vdW  Elec       q    Type
REMARK                         _______ _______ _______ _____ _____    ______ ____
ROOT
ATOM      1  N   UNL     1      -0.640   6.532  -1.923  0.00  0.00    -0.069 NA
ATOM      2  C   UNL     1       0.444   5.653  -2.256  0.00  0.00    +0.350 C 
ATOM      3  N   UNL     1       0.891   5.548  -3.615  0.00  0.00    -0.219 N 
ATOM      4  C   UNL     1      -0.146   5.205  -4.535  0.00  0.00    +0.060 A 
ATOM      5  C   UNL     1      -0.029   5.036  -5.908  0.00  0.00    +0.014 A 
ATOM      6  C   UNL     1      -1.086   5.308  -6.768  0.00  0.00    +0.001 A 
ATOM      7  C   UNL     1      -2.135   6.097  -6.305  0.00  0.00    +0.000 A 
ATOM      8  C   UNL     1      -2.414   5.967  -4.951  0.00  0.00    +0.001 A 
ATOM      9  C   UNL     1       1.237   4.810  -6.616  0.00  0.00    +0.001 C 
ATOM     10  C   UNL     1       2.495   5.074  -6.252  0.00  0.00    +0.001 C 
ATOM     11  C   UNL     1       2.961   5.726  -5.021  0.00  0.00    +0.014 A 
ATOM     12  C   UNL     1       4.050   6.559  -5.212  0.00  0.00    +0.001 A 
ATOM     13  C   UNL     1       4.357   7.581  -4.323  0.00  0.00    +0.000 A 
ATOM     14  C   UNL     1       3.876   7.475  -3.037  0.00  0.00    +0.001 A 
ATOM     15  C   UNL     1       2.752   6.707  -2.843  0.00  0.00    +0.015 A 
ATOM     16  C   UNL     1      -1.409   5.569  -4.085  0.00  0.00    +0.015 A 
ATOM     17  C   UNL     1       2.275   5.842  -3.820  0.00  0.00    +0.060 A 
ATOM     18  O   UNL     1       0.568   4.586  -1.581  0.00  0.00    -0.248 OA
ENDROOT
TORSDOF 0
ENDMDL
MODEL 3
REMARK VINA RESULT:      -7.8      2.050      5.208
REMARK  Name = 
REMARK  0 active torsions:
REMARK  status: ('A' for Active; 'I' for Inactive)
REMARK                            x       y       z     vdW  Elec       q    Type
REMARK                         _______ _______ _______ _____ _____    ______ ____
ROOT
ATOM      1  N   UNL     1       0.338   6.558  -1.312  0.00  0.00    -0.069 NA
ATOM      2  C   UNL     1       0.759   5.391  -2.031  0.00  0.00    +0.350 C 
ATOM      3  N   UNL     1       0.674   5.359  -3.463  0.00  0.00    -0.219 N 
ATOM      4  C   UNL     1      -0.633   5.639  -3.966  0.00  0.00    +0.060 A 
ATOM      5  C   UNL     1      -1.030   5.687  -5.296  0.00  0.00    +0.014 A 
ATOM      6  C   UNL     1      -2.063   6.516  -5.717  0.00  0.00    +0.001 A 
ATOM      7  C   UNL     1      -2.455   7.565  -4.892  0.00  0.00    +0.000 A 
ATOM      8  C   UNL     1      -2.333   7.318  -3.531  0.00  0.00    +0.001 A 
ATOM      9  C   UNL     1      -0.280   5.099  -6.412  0.00  0.00    +0.001 C 
ATOM     10  C   UNL     1       1.008   4.758  -6.509  0.00  0.00    +0.001 C 
ATOM     11  C   UNL     1       2.067   4.931  -5.506  0.00  0.00    +0.014 A 
ATOM     12  C   UNL     1       3.295   5.269  -6.046  0.00  0.00    +0.001 A 
ATOM     13  C   UNL     1       4.279   5.900  -5.296  0.00  0.00    +0.000 A 
ATOM     14  C   UNL     1       4.220   5.769  -3.926  0.00  0.00    +0.001 A 
ATOM     15  C   UNL     1       2.991   5.503  -3.368  0.00  0.00    +0.015 A 
ATOM     16  C   UNL     1      -1.398   6.397  -3.088  0.00  0.00    +0.015 A 
ATOM     17  C   UNL     1       1.907   5.097  -4.136  0.00  0.00    +0.060 A 
ATOM     18  O   UNL     1       0.597   4.262  -1.473  0.00  0.00    -0.248 OA
ENDROOT
TORSDOF 0
ENDMDL
MODEL 4
REMARK VINA RESULT:      -7.7      5.458      8.443
REMARK  Name = 
REMARK  0 active torsions:
REMARK  status: ('A' for Active; 'I' for Inactive)
REMARK                            x       y       z     vdW  Elec       q    Type
REMARK                         _______ _______ _______ _____ _____    ______ ____
ROOT
ATOM      1  N   UNL     1       2.535   6.041  -8.312  0.00  0.00    -0.069 NA
ATOM      2  C   UNL     1       3.284   5.143  -9.142  0.00  0.00    +0.350 C 
ATOM      3  N   UNL     1       3.418   5.405 -10.546  0.00  0.00    -0.219 N 
ATOM      4  C   UNL     1       2.169   5.563 -11.222  0.00  0.00    +0.060 A 
ATOM      5  C   UNL     1       1.971   5.828 -12.570  0.00  0.00    +0.014 A 
ATOM      6  C   UNL     1       0.865   6.542 -13.017  0.00  0.00    +0.001 A 
ATOM      7  C   UNL     1       0.153   7.309 -12.100  0.00  0.00    +0.000 A 
ATOM      8  C   UNL     1       0.121   6.801 -10.809  0.00  0.00    +0.001 A 
ATOM      9  C   UNL     1       2.979   5.627 -13.618  0.00  0.00    +0.001 C 
ATOM     10  C   UNL     1       4.310   5.536 -13.536  0.00  0.00    +0.001 C 
ATOM     11  C   UNL     1       5.153   5.665 -12.340  0.00  0.00    +0.014 A 
ATOM     12  C   UNL     1       6.353   6.313 -12.574  0.00  0.00    +0.001 A 
ATOM     13  C   UNL     1       7.069   6.924 -11.552  0.00  0.00    +0.000 A 
ATOM     14  C   UNL     1       6.837   6.494 -10.264  0.00  0.00    +0.001 A 
ATOM     15  C   UNL     1       5.619   5.912 -10.001  0.00  0.00    +0.015 A 
ATOM     16  C   UNL     1       1.147   5.976 -10.376  0.00  0.00    +0.015 A 
ATOM     17  C   UNL     1       4.764   5.505 -11.017  0.00  0.00    +0.060 A 
ATOM     18  O   UNL     1       3.273   3.910  -8.840  0.00  0.00    -0.248 OA
ENDROOT
TORSDOF 0
ENDMDL
MODEL 5
REMARK VINA RESULT:      -7.5      2.222      3.524
REMARK  Name = 
REMARK  0 active torsions:
REMARK  status: ('A' for Active; 'I' for Inactive)
REMARK                            x       y       z     vdW  Elec       q    Type
REMARK                         _______ _______ _______ _____ _____    ______ ____
ROOT
ATOM      1  N   UNL     1      -0.309   4.964  -2.452  0.00  0.00    -0.069 NA
ATOM      2  C   UNL     1      -0.343   6.096  -3.332  0.00  0.00    +0.350 C 
ATOM      3  N   UNL     1       0.728   6.316  -4.261  0.00  0.00    -0.219 N 
ATOM      4  C   UNL     1       2.016   6.374  -3.648  0.00  0.00    +0.060 A 
ATOM      5  C   UNL     1       3.239   6.569  -4.278  0.00  0.00    +0.014 A 
ATOM      6  C   UNL     1       4.414   6.029  -3.768  0.00  0.00    +0.001 A 
ATOM      7  C   UNL     1       4.325   4.993  -2.844  0.00  0.00    +0.000 A 
ATOM      8  C   UNL     1       3.217   5.044  -2.009  0.00  0.00    +0.001 A 
ATOM      9  C   UNL     1       3.404   7.118  -5.629  0.00  0.00    +0.001 C 
ATOM     10  C   UNL     1       2.541   7.194  -6.646  0.00  0.00    +0.001 C 
ATOM     11  C   UNL     1       1.164   6.687  -6.704  0.00  0.00    +0.014 A 
ATOM     12  C   UNL     1       0.814   6.169  -7.939  0.00  0.00    +0.001 A 
ATOM     13  C   UNL     1      -0.229   5.262  -8.086  0.00  0.00    +0.000 A 
ATOM     14  C   UNL     1      -1.197   5.238  -7.106  0.00  0.00    +0.001 A 
ATOM     15  C   UNL     1      -0.842   5.684  -5.855  0.00  0.00    +0.015 A 
ATOM     16  C   UNL     1       2.071   5.691  -2.439  0.00  0.00    +0.015 A 
ATOM     17  C   UNL     1       0.331   6.395  -5.632  0.00  0.00    +0.060 A 
ATOM     18  O   UNL     1      -0.892   7.159  -2.907  0.00  0.00    -0.248 OA
ENDROOT
TORSDOF 0
ENDMDL
MODEL 6
REMARK VINA RESULT:      -7.3      5.322      7.823
REMARK  Name = 
REMARK  0 active torsions:
REMARK  status: ('A' for Active; 'I' for Inactive)
REMARK                            x       y       z     vdW  Elec       q    Type
REMARK                         _______ _______ _______ _____ _____    ______ ____
ROOT
ATOM      1  N   UNL     1       5.333   4.890 -13.206  0.00  0.00    -0.069 NA
ATOM      2  C   UNL     1       5.197   6.024 -12.338  0.00  0.00    +0.350 C 
ATOM      3  N   UNL     1       4.034   6.159 -11.509  0.00  0.00    -0.219 N 
ATOM      4  C   UNL     1       2.805   6.112 -12.235  0.00  0.00    +0.060 A 
ATOM      5  C   UNL     1       1.520   6.210 -11.718  0.00  0.00    +0.014 A 
ATOM      6  C   UNL     1       0.442   5.575 -12.323  0.00  0.00    +0.001 A 
ATOM      7  C   UNL     1       0.695   4.547 -13.226  0.00  0.00    +0.000 A 
ATOM      8  C   UNL     1       1.865   4.685 -13.960  0.00  0.00    +0.001 A 
ATOM      9  C   UNL     1       1.192   6.748 -10.392  0.00  0.00    +0.001 C 
ATOM     10  C   UNL     1       1.951   6.896  -9.303  0.00  0.00    +0.001 C 
ATOM     11  C   UNL     1       3.354   6.502  -9.119  0.00  0.00    +0.014 A 
ATOM     12  C   UNL     1       3.633   6.017  -7.853  0.00  0.00    +0.001 A 
ATOM     13  C   UNL     1       4.728   5.198  -7.605  0.00  0.00    +0.000 A 
ATOM     14  C   UNL     1       5.778   5.249  -8.495  0.00  0.00    +0.001 A 
ATOM     15  C   UNL     1       5.501   5.661  -9.777  0.00  0.00    +0.015 A 
ATOM     16  C   UNL     1       2.913   5.424 -13.436  0.00  0.00    +0.015 A 
ATOM     17  C   UNL     1       4.300   6.274 -10.110  0.00  0.00    +0.060 A 
ATOM     18  O   UNL     1       5.695   7.126 -12.723  0.00  0.00    -0.248 OA
ENDROOT
TORSDOF 0
ENDMDL
MODEL 7
REMARK VINA RESULT:      -7.3      1.884      4.584
REMARK  Name = 
REMARK  0 active torsions:
REMARK  status: ('A' for Active; 'I' for Inactive)
REMARK                            x       y       z     vdW  Elec       q    Type
REMARK                         _______ _______ _______ _____ _____    ______ ____
ROOT
ATOM      1  N   UNL     1       2.276   6.893  -3.375  0.00  0.00    -0.069 NA
ATOM      2  C   UNL     1       2.228   5.855  -4.365  0.00  0.00    +0.350 C 
ATOM      3  N   UNL     1       1.126   5.787  -5.281  0.00  0.00    -0.219 N 
ATOM      4  C   UNL     1      -0.149   5.733  -4.641  0.00  0.00    +0.060 A 
ATOM      5  C   UNL     1      -1.395   5.667  -5.252  0.00  0.00    +0.014 A 
ATOM      6  C   UNL     1      -2.527   6.213  -4.659  0.00  0.00    +0.001 A 
ATOM      7  C   UNL     1      -2.361   7.144  -3.638  0.00  0.00    +0.000 A 
ATOM      8  C   UNL     1      -1.239   6.951  -2.844  0.00  0.00    +0.001 A 
ATOM      9  C   UNL     1      -1.620   5.267  -6.646  0.00  0.00    +0.001 C 
ATOM     10  C   UNL     1      -0.786   5.250  -7.690  0.00  0.00    +0.001 C 
ATOM     11  C   UNL     1       0.615   5.688  -7.735  0.00  0.00    +0.014 A 
ATOM     12  C   UNL     1       0.965   6.310  -8.921  0.00  0.00    +0.001 A 
ATOM     13  C   UNL     1       2.052   7.171  -9.006  0.00  0.00    +0.000 A 
ATOM     14  C   UNL     1       3.042   7.046  -8.057  0.00  0.00    +0.001 A 
ATOM     15  C   UNL     1       2.691   6.494  -6.847  0.00  0.00    +0.015 A 
ATOM     16  C   UNL     1      -0.139   6.292  -3.369  0.00  0.00    +0.015 A 
ATOM     17  C   UNL     1       1.487   5.827  -6.663  0.00  0.00    +0.060 A 
ATOM     18  O   UNL     1       2.728   4.728  -4.064  0.00  0.00    -0.248 OA
ENDROOT
TORSDOF 0
ENDMDL
MODEL 8
REMARK VINA RESULT:      -7.2      1.716      5.203
REMARK  Name = 
REMARK  0 active torsions:
REMARK  status: ('A' for Active; 'I' for Inactive)
REMARK                            x       y       z     vdW  Elec       q    Type
REMARK                         _______ _______ _______ _____ _____    ______ ____
ROOT
ATOM      1  N   UNL     1      -0.496   6.589  -4.085  0.00  0.00    -0.069 NA
ATOM      2  C   UNL     1       0.670   5.807  -3.789  0.00  0.00    +0.350 C 
ATOM      3  N   UNL     1       1.703   5.657  -4.772  0.00  0.00    -0.219 N 
ATOM      4  C   UNL     1       1.236   5.147  -6.022  0.00  0.00    +0.060 A 
ATOM      5  C   UNL     1       1.988   4.899  -7.163  0.00  0.00    +0.014 A 
ATOM      6  C   UNL     1       1.437   5.002  -8.435  0.00  0.00    +0.001 A 
ATOM      7  C   UNL     1       0.247   5.708  -8.590  0.00  0.00    +0.000 A 
ATOM      8  C   UNL     1      -0.620   5.641  -7.509  0.00  0.00    +0.001 A 
ATOM      9  C   UNL     1       3.449   4.759  -7.185  0.00  0.00    +0.001 C 
ATOM     10  C   UNL     1       4.374   5.175  -6.316  0.00  0.00    +0.001 C 
ATOM     11  C   UNL     1       4.175   5.953  -5.087  0.00  0.00    +0.014 A 
ATOM     12  C   UNL     1       5.175   6.879  -4.847  0.00  0.00    +0.001 A 
ATOM     13  C   UNL     1       4.971   7.986  -4.031  0.00  0.00    +0.000 A 
ATOM     14  C   UNL     1       3.954   7.917  -3.105  0.00  0.00    +0.001 A 
ATOM     15  C   UNL     1       2.918   7.052  -3.365  0.00  0.00    +0.015 A 
ATOM     16  C   UNL     1      -0.111   5.409  -6.242  0.00  0.00    +0.015 A 
ATOM     17  C   UNL     1       3.003   6.078  -4.352  0.00  0.00    +0.060 A 
ATOM     18  O   UNL     1       0.531   4.805  -3.021  0.00  0.00    -0.248 OA
ENDROOT
TORSDOF 0
ENDMDL
MODEL 9
REMARK VINA RESULT:      -7.1      6.234      8.760
REMARK  Name = 
REMARK  0 active torsions:
REMARK  status: ('A' for Active; 'I' for Inactive)
REMARK                            x       y       z     vdW  Elec       q    Type
REMARK                         _______ _______ _______ _____ _____    ______ ____
ROOT
ATOM      1  N   UNL     1       2.495   4.343 -14.496  0.00  0.00    -0.069 NA
ATOM      2  C   UNL     1       3.197   5.564 -14.223  0.00  0.00    +0.350 C 
ATOM      3  N   UNL     1       3.507   5.928 -12.870  0.00  0.00    -0.219 N 
ATOM      4  C   UNL     1       2.366   5.968 -12.012  0.00  0.00    +0.060 A 
ATOM      5  C   UNL     1       2.343   6.279 -10.659  0.00  0.00    +0.014 A 
ATOM      6  C   UNL     1       1.395   5.732  -9.802  0.00  0.00    +0.001 A 
ATOM      7  C   UNL     1       0.702   4.596 -10.213  0.00  0.00    +0.000 A 
ATOM      8  C   UNL     1       0.472   4.512 -11.579  0.00  0.00    +0.001 A 
ATOM      9  C   UNL     1       3.416   6.981  -9.945  0.00  0.00    +0.001 C 
ATOM     10  C   UNL     1       4.707   7.136 -10.253  0.00  0.00    +0.001 C 
ATOM     11  C   UNL     1       5.434   6.585 -11.404  0.00  0.00    +0.014 A 
ATOM     12  C   UNL     1       6.728   6.194 -11.109  0.00  0.00    +0.001 A 
ATOM     13  C   UNL     1       7.413   5.270 -11.889  0.00  0.00    +0.000 A 
ATOM     14  C   UNL     1       6.995   5.099 -13.190  0.00  0.00    +0.001 A 
ATOM     15  C   UNL     1       5.689   5.417 -13.483  0.00  0.00    +0.015 A 
ATOM     16  C   UNL     1       1.328   5.158 -12.455  0.00  0.00    +0.015 A 
ATOM     17  C   UNL     1       4.894   6.143 -12.605  0.00  0.00    +0.060 A 
ATOM     18  O   UNL     1       2.989   6.551 -14.994  0.00  0.00    -0.248 OA
ENDROOT
TORSDOF 0
ENDMDL
