MODEL 1
REMARK VINA RESULT:      -6.2      0.000      0.000
REMARK  Name = 
REMARK  4 active torsions:
REMARK  status: ('A' for Active; 'I' for Inactive)
REMARK    1  A    between atoms: C_2  and  N_3
REMARK    2  A    between atoms: C_2  and  C_8
REMARK    3  A    between atoms: N_3  and  C_4
REMARK    4  A    between atoms: C_8  and  C_10
REMARK                            x       y       z     vdW  Elec       q    Type
REMARK                         _______ _______ _______ _____ _____    ______ ____
ROOT
ATOM      1  C   UNL     1       2.152   6.364  -5.677  0.00  0.00    +0.189 C 
ATOM      2  O   UNL     1       2.741   7.008  -4.821  0.00  0.00    -0.290 OA
ENDROOT
BRANCH   1   3
ATOM      3  C   UNL     1       0.802   6.558  -6.159  0.00  0.00    +0.037 A 
ATOM      4  C   UNL     1      -0.162   7.030  -5.278  0.00  0.00    +0.014 A 
ATOM      5  C   UNL     1      -1.445   6.551  -5.215  0.00  0.00    +0.058 A 
ATOM      6 CL   UNL     1      -2.623   7.410  -4.263  0.00  0.00    -0.082 Cl
ATOM      7  C   UNL     1      -1.872   5.657  -6.162  0.00  0.00    +0.011 A 
ATOM      8  C   UNL     1      -1.019   5.317  -7.180  0.00  0.00    +0.001 A 
ATOM      9  C   UNL     1       0.284   5.741  -7.160  0.00  0.00    +0.003 A 
ENDBRANCH   1   3
BRANCH   1  11
ATOM     10  C   UNL     1       3.765   4.809  -4.825  0.00  0.00    +0.027 C 
ATOM     11  C   UNL     1       2.901   5.026  -6.244  0.00  0.00    +0.134 C 
BRANCH  11  12
ATOM     12  N   UNL     1       4.084   5.890  -6.893  0.00  0.00    -0.214 NA
BRANCH  12  13
ATOM     13  C   UNL     1       4.115   5.508  -8.279  0.00  0.00    +0.060 C 
ATOM     14  C   UNL     1       3.540   6.638  -9.127  0.00  0.00    +0.017 C 
ATOM     15  C   UNL     1       3.342   4.252  -8.574  0.00  0.00    +0.017 C 
ATOM     16  C   UNL     1       5.577   5.337  -8.677  0.00  0.00    +0.017 C 
ENDBRANCH  12  13
ENDBRANCH  11  12
ENDBRANCH   1  11
TORSDOF 4
ENDMDL
MODEL 2
REMARK VINA RESULT:      -6.1      1.663      3.109
REMARK  Name = 
REMARK  4 active torsions:
REMARK  status: ('A' for Active; 'I' for Inactive)
REMARK    1  A    between atoms: C_2  and  N_3
REMARK    2  A    between atoms: C_2  and  C_8
REMARK    3  A    between atoms: N_3  and  C_4
REMARK    4  A    between atoms: C_8  and  C_10
REMARK                            x       y       z     vdW  Elec       q    Type
REMARK                         _______ _______ _______ _____ _____    ______ ____
ROOT
ATOM      1  C   UNL     1       1.645   5.478  -6.118  0.00  0.00    +0.189 C 
ATOM      2  O   UNL     1       1.969   4.301  -6.189  0.00  0.00    -0.290 OA
ENDROOT
BRANCH   1   3
ATOM      3  C   UNL     1       0.342   6.054  -6.368  0.00  0.00    +0.037 A 
ATOM      4  C   UNL     1      -0.120   7.055  -5.524  0.00  0.00    +0.014 A 
ATOM      5  C   UNL     1      -1.408   7.135  -5.062  0.00  0.00    +0.058 A 
ATOM      6 CL   UNL     1      -1.923   8.580  -4.238  0.00  0.00    -0.082 Cl
ATOM      7  C   UNL     1      -2.352   6.277  -5.561  0.00  0.00    +0.011 A 
ATOM      8  C   UNL     1      -1.990   5.403  -6.555  0.00  0.00    +0.001 A 
ATOM      9  C   UNL     1      -0.676   5.287  -6.926  0.00  0.00    +0.003 A 
ENDBRANCH   1   3
BRANCH   1  11
ATOM     10  C   UNL     1       3.648   6.117  -7.270  0.00  0.00    +0.027 C 
ATOM     11  C   UNL     1       2.844   6.562  -5.869  0.00  0.00    +0.134 C 
BRANCH  11  12
ATOM     12  N   UNL     1       3.687   5.518  -4.993  0.00  0.00    -0.214 NA
BRANCH  12  13
ATOM     13  C   UNL     1       4.117   6.257  -3.836  0.00  0.00    +0.060 C 
ATOM     14  C   UNL     1       3.020   7.232  -3.425  0.00  0.00    +0.017 C 
ATOM     15  C   UNL     1       5.385   7.033  -4.055  0.00  0.00    +0.017 C 
ATOM     16  C   UNL     1       4.294   5.261  -2.694  0.00  0.00    +0.017 C 
ENDBRANCH  12  13
ENDBRANCH  11  12
ENDBRANCH   1  11
TORSDOF 4
ENDMDL
MODEL 3
REMARK VINA RESULT:      -6.0      3.843      6.429
REMARK  Name = 
REMARK  4 active torsions:
REMARK  status: ('A' for Active; 'I' for Inactive)
REMARK    1  A    between atoms: C_2  and  N_3
REMARK    2  A    between atoms: C_2  and  C_8
REMARK    3  A    between atoms: N_3  and  C_4
REMARK    4  A    between atoms: C_8  and  C_10
REMARK                            x       y       z     vdW  Elec       q    Type
REMARK                         _______ _______ _______ _____ _____    ______ ____
ROOT
ATOM      1  C   UNL     1       2.521   5.608 -10.357  0.00  0.00    +0.189 C 
ATOM      2  O   UNL     1       2.146   5.663 -11.520  0.00  0.00    -0.290 OA
ENDROOT
BRANCH   1   3
ATOM      3  C   UNL     1       3.753   6.119  -9.799  0.00  0.00    +0.037 A 
ATOM      4  C   UNL     1       4.510   7.009 -10.549  0.00  0.00    +0.014 A 
ATOM      5  C   UNL     1       5.876   6.965 -10.644  0.00  0.00    +0.058 A 
ATOM      6 CL   UNL     1       6.716   8.295 -11.391  0.00  0.00    -0.082 Cl
ATOM      7  C   UNL     1       6.573   6.095  -9.848  0.00  0.00    +0.011 A 
ATOM      8  C   UNL     1       5.884   5.339  -8.935  0.00  0.00    +0.001 A 
ATOM      9  C   UNL     1       4.514   5.340  -8.932  0.00  0.00    +0.003 A 
ENDBRANCH   1   3
BRANCH   1  11
ATOM     10  C   UNL     1       0.382   4.528 -10.448  0.00  0.00    +0.027 C 
ATOM     11  C   UNL     1       1.614   4.717  -9.328  0.00  0.00    +0.134 C 
BRANCH  11  12
ATOM     12  N   UNL     1       0.922   6.025  -8.712  0.00  0.00    -0.214 NA
BRANCH  12  13
ATOM     13  C   UNL     1       0.690   5.713  -7.327  0.00  0.00    +0.060 C 
ATOM     14  C   UNL     1       1.552   4.519  -6.929  0.00  0.00    +0.017 C 
ATOM     15  C   UNL     1      -0.744   5.389  -7.015  0.00  0.00    +0.017 C 
ATOM     16  C   UNL     1       1.156   6.908  -6.501  0.00  0.00    +0.017 C 
ENDBRANCH  12  13
ENDBRANCH  11  12
ENDBRANCH   1  11
TORSDOF 4
ENDMDL
MODEL 4
REMARK VINA RESULT:      -5.9      2.985      5.295
REMARK  Name = 
REMARK  4 active torsions:
REMARK  status: ('A' for Active; 'I' for Inactive)
REMARK    1  A    between atoms: C_2  and  N_3
REMARK    2  A    between atoms: C_2  and  C_8
REMARK    3  A    between atoms: N_3  and  C_4
REMARK    4  A    between atoms: C_8  and  C_10
REMARK                            x       y       z     vdW  Elec       q    Type
REMARK                         _______ _______ _______ _____ _____    ______ ____
ROOT
ATOM      1  C   UNL     1       1.051   5.730  -5.566  0.00  0.00    +0.189 C 
ATOM      2  O   UNL     1       1.635   4.701  -5.256  0.00  0.00    -0.290 OA
ENDROOT
BRANCH   1   3
ATOM      3  C   UNL     1       1.011   6.370  -6.862  0.00  0.00    +0.037 A 
ATOM      4  C   UNL     1       0.493   5.667  -7.941  0.00  0.00    +0.014 A 
ATOM      5  C   UNL     1       1.043   5.672  -9.196  0.00  0.00    +0.058 A 
ATOM      6 CL   UNL     1       0.146   4.973 -10.516  0.00  0.00    -0.082 Cl
ATOM      7  C   UNL     1       2.079   6.526  -9.468  0.00  0.00    +0.011 A 
ATOM      8  C   UNL     1       2.492   7.395  -8.491  0.00  0.00    +0.001 A 
ATOM      9  C   UNL     1       1.984   7.299  -7.222  0.00  0.00    +0.003 A 
ENDBRANCH   1   3
BRANCH   1  11
ATOM     10  C   UNL     1       1.237   5.775  -3.176  0.00  0.00    +0.027 C 
ATOM     11  C   UNL     1       0.359   6.581  -4.353  0.00  0.00    +0.134 C 
BRANCH  11  12
ATOM     12  N   UNL     1      -0.854   5.541  -4.234  0.00  0.00    -0.214 NA
BRANCH  12  13
ATOM     13  C   UNL     1      -2.033   6.297  -4.562  0.00  0.00    +0.060 C 
ATOM     14  C   UNL     1      -3.105   6.041  -3.508  0.00  0.00    +0.017 C 
ATOM     15  C   UNL     1      -2.605   5.964  -5.912  0.00  0.00    +0.017 C 
ATOM     16  C   UNL     1      -1.667   7.776  -4.491  0.00  0.00    +0.017 C 
ENDBRANCH  12  13
ENDBRANCH  11  12
ENDBRANCH   1  11
TORSDOF 4
ENDMDL
MODEL 5
REMARK VINA RESULT:      -5.9      3.274      4.650
REMARK  Name = 
REMARK  4 active torsions:
REMARK  status: ('A' for Active; 'I' for Inactive)
REMARK    1  A    between atoms: C_2  and  N_3
REMARK    2  A    between atoms: C_2  and  C_8
REMARK    3  A    between atoms: N_3  and  C_4
REMARK    4  A    between atoms: C_8  and  C_10
REMARK                            x       y       z     vdW  Elec       q    Type
REMARK                         _______ _______ _______ _____ _____    ______ ____
ROOT
ATOM      1  C   UNL     1       2.220   7.198  -7.540  0.00  0.00    +0.189 C 
ATOM      2  O   UNL     1       2.064   8.367  -7.860  0.00  0.00    -0.290 OA
ENDROOT
BRANCH   1   3
ATOM      3  C   UNL     1       2.571   6.676  -6.237  0.00  0.00    +0.037 A 
ATOM      4  C   UNL     1       3.669   7.209  -5.576  0.00  0.00    +0.014 A 
ATOM      5  C   UNL     1       4.590   6.462  -4.889  0.00  0.00    +0.058 A 
ATOM      6 CL   UNL     1       5.757   7.272  -3.882  0.00  0.00    -0.082 Cl
ATOM      7  C   UNL     1       4.359   5.124  -4.704  0.00  0.00    +0.011 A 
ATOM      8  C   UNL     1       3.183   4.587  -5.159  0.00  0.00    +0.001 A 
ATOM      9  C   UNL     1       2.329   5.342  -5.922  0.00  0.00    +0.003 A 
ENDBRANCH   1   3
BRANCH   1  11
ATOM     10  C   UNL     1       3.744   6.464  -9.238  0.00  0.00    +0.027 C 
ATOM     11  C   UNL     1       2.189   6.090  -8.742  0.00  0.00    +0.134 C 
BRANCH  11  12
ATOM     12  N   UNL     1       1.553   7.139  -9.773  0.00  0.00    -0.214 NA
BRANCH  12  13
ATOM     13  C   UNL     1       0.694   6.360 -10.624  0.00  0.00    +0.060 C 
ATOM     14  C   UNL     1       1.505   5.812 -11.793  0.00  0.00    +0.017 C 
ATOM     15  C   UNL     1      -0.470   7.135 -11.176  0.00  0.00    +0.017 C 
ATOM     16  C   UNL     1       0.200   5.167  -9.812  0.00  0.00    +0.017 C 
ENDBRANCH  12  13
ENDBRANCH  11  12
ENDBRANCH   1  11
TORSDOF 4
ENDMDL
MODEL 6
REMARK VINA RESULT:      -5.9      4.747      7.312
REMARK  Name = 
REMARK  4 active torsions:
REMARK  status: ('A' for Active; 'I' for Inactive)
REMARK    1  A    between atoms: C_2  and  N_3
REMARK    2  A    between atoms: C_2  and  C_8
REMARK    3  A    between atoms: N_3  and  C_4
REMARK    4  A    between atoms: C_8  and  C_10
REMARK                            x       y       z     vdW  Elec       q    Type
REMARK                         _______ _______ _______ _____ _____    ______ ____
ROOT
ATOM      1  C   UNL     1       4.140   5.222  -9.712  0.00  0.00    +0.189 C 
ATOM      2  O   UNL     1       3.978   4.126  -9.194  0.00  0.00    -0.290 OA
ENDROOT
BRANCH   1   3
ATOM      3  C   UNL     1       5.362   5.773 -10.255  0.00  0.00    +0.037 A 
ATOM      4  C   UNL     1       5.610   5.641 -11.615  0.00  0.00    +0.014 A 
ATOM      5  C   UNL     1       6.834   5.324 -12.145  0.00  0.00    +0.058 A 
ATOM      6 CL   UNL     1       7.071   5.459 -13.865  0.00  0.00    -0.082 Cl
ATOM      7  C   UNL     1       7.926   5.273 -11.320  0.00  0.00    +0.011 A 
ATOM      8  C   UNL     1       7.771   5.601  -9.998  0.00  0.00    +0.001 A 
ATOM      9  C   UNL     1       6.520   5.822  -9.484  0.00  0.00    +0.003 A 
ENDBRANCH   1   3
BRANCH   1  11
ATOM     10  C   UNL     1       2.742   6.126  -7.987  0.00  0.00    +0.027 C 
ATOM     11  C   UNL     1       2.881   6.264  -9.650  0.00  0.00    +0.134 C 
BRANCH  11  12
ATOM     12  N   UNL     1       1.819   5.087  -9.888  0.00  0.00    -0.214 NA
BRANCH  12  13
ATOM     13  C   UNL     1       1.024   5.516 -11.007  0.00  0.00    +0.060 C 
ATOM     14  C   UNL     1      -0.108   4.520 -11.232  0.00  0.00    +0.017 C 
ATOM     15  C   UNL     1       1.805   5.644 -12.286  0.00  0.00    +0.017 C 
ATOM     16  C   UNL     1       0.389   6.852 -10.637  0.00  0.00    +0.017 C 
ENDBRANCH  12  13
ENDBRANCH  11  12
ENDBRANCH   1  11
TORSDOF 4
ENDMDL
MODEL 7
REMARK VINA RESULT:      -5.9      4.232      6.835
REMARK  Name = 
REMARK  4 active torsions:
REMARK  status: ('A' for Active; 'I' for Inactive)
REMARK    1  A    between atoms: C_2  and  N_3
REMARK    2  A    between atoms: C_2  and  C_8
REMARK    3  A    between atoms: N_3  and  C_4
REMARK    4  A    between atoms: C_8  and  C_10
REMARK                            x       y       z     vdW  Elec       q    Type
REMARK                         _______ _______ _______ _____ _____    ______ ____
ROOT
ATOM      1  C   UNL     1       4.278   5.192  -9.394  0.00  0.00    +0.189 C 
ATOM      2  O   UNL     1       4.110   3.993  -9.220  0.00  0.00    -0.290 OA
ENDROOT
BRANCH   1   3
ATOM      3  C   UNL     1       5.002   5.838 -10.466  0.00  0.00    +0.037 A 
ATOM      4  C   UNL     1       6.277   5.387 -10.781  0.00  0.00    +0.014 A 
ATOM      5  C   UNL     1       7.334   6.210 -11.071  0.00  0.00    +0.058 A 
ATOM      6 CL   UNL     1       8.797   5.516 -11.712  0.00  0.00    -0.082 Cl
ATOM      7  C   UNL     1       7.113   7.555 -11.210  0.00  0.00    +0.011 A 
ATOM      8  C   UNL     1       5.829   8.027 -11.115  0.00  0.00    +0.001 A 
ATOM      9  C   UNL     1       4.813   7.191 -10.733  0.00  0.00    +0.003 A 
ENDBRANCH   1   3
BRANCH   1  11
ATOM     10  C   UNL     1       4.704   5.420  -7.046  0.00  0.00    +0.027 C 
ATOM     11  C   UNL     1       3.771   6.191  -8.203  0.00  0.00    +0.134 C 
BRANCH  11  12
ATOM     12  N   UNL     1       2.507   5.260  -7.879  0.00  0.00    -0.214 NA
BRANCH  12  13
ATOM     13  C   UNL     1       1.366   6.131  -7.960  0.00  0.00    +0.060 C 
ATOM     14  C   UNL     1       0.429   5.846  -6.791  0.00  0.00    +0.017 C 
ATOM     15  C   UNL     1       0.588   5.985  -9.238  0.00  0.00    +0.017 C 
ATOM     16  C   UNL     1       1.867   7.563  -7.805  0.00  0.00    +0.017 C 
ENDBRANCH  12  13
ENDBRANCH  11  12
ENDBRANCH   1  11
TORSDOF 4
ENDMDL
MODEL 8
REMARK VINA RESULT:      -5.8      3.095      5.638
REMARK  Name = 
REMARK  4 active torsions:
REMARK  status: ('A' for Active; 'I' for Inactive)
REMARK    1  A    between atoms: C_2  and  N_3
REMARK    2  A    between atoms: C_2  and  C_8
REMARK    3  A    between atoms: N_3  and  C_4
REMARK    4  A    between atoms: C_8  and  C_10
REMARK                            x       y       z     vdW  Elec       q    Type
REMARK                         _______ _______ _______ _____ _____    ______ ____
ROOT
ATOM      1  C   UNL     1       0.974   5.058  -6.327  0.00  0.00    +0.189 C 
ATOM      2  O   UNL     1       0.951   4.061  -5.620  0.00  0.00    -0.290 OA
ENDROOT
BRANCH   1   3
ATOM      3  C   UNL     1       1.661   5.235  -7.587  0.00  0.00    +0.037 A 
ATOM      4  C   UNL     1       3.029   5.001  -7.643  0.00  0.00    +0.014 A 
ATOM      5  C   UNL     1       3.916   5.793  -8.324  0.00  0.00    +0.058 A 
ATOM      6 CL   UNL     1       5.553   5.240  -8.539  0.00  0.00    -0.082 Cl
ATOM      7  C   UNL     1       3.437   6.795  -9.127  0.00  0.00    +0.011 A 
ATOM      8  C   UNL     1       2.080   6.934  -9.271  0.00  0.00    +0.001 A 
ATOM      9  C   UNL     1       1.225   6.187  -8.503  0.00  0.00    +0.003 A 
ENDBRANCH   1   3
BRANCH   1  11
ATOM     10  C   UNL     1       1.500   6.618  -4.584  0.00  0.00    +0.027 C 
ATOM     11  C   UNL     1       0.287   6.412  -5.720  0.00  0.00    +0.134 C 
BRANCH  11  12
ATOM     12  N   UNL     1      -0.606   5.569  -4.690  0.00  0.00    -0.214 NA
BRANCH  12  13
ATOM     13  C   UNL     1      -1.959   5.992  -4.928  0.00  0.00    +0.060 C 
ATOM     14  C   UNL     1      -2.867   5.405  -3.853  0.00  0.00    +0.017 C 
ATOM     15  C   UNL     1      -2.490   5.581  -6.274  0.00  0.00    +0.017 C 
ATOM     16  C   UNL     1      -2.001   7.510  -4.783  0.00  0.00    +0.017 C 
ENDBRANCH  12  13
ENDBRANCH  11  12
ENDBRANCH   1  11
TORSDOF 4
ENDMDL
MODEL 9
REMARK VINA RESULT:      -5.8      3.191      5.644
REMARK  Name = 
REMARK  4 active torsions:
REMARK  status: ('A' for Active; 'I' for Inactive)
REMARK    1  A    between atoms: C_2  and  N_3
REMARK    2  A    between atoms: C_2  and  C_8
REMARK    3  A    between atoms: N_3  and  C_4
REMARK    4  A    between atoms: C_8  and  C_10
REMARK                            x       y       z     vdW  Elec       q    Type
REMARK                         _______ _______ _______ _____ _____    ______ ____
ROOT
ATOM      1  C   UNL     1       2.065   6.410  -5.402  0.00  0.00    +0.189 C 
ATOM      2  O   UNL     1       1.808   7.094  -6.382  0.00  0.00    -0.290 OA
ENDROOT
BRANCH   1   3
ATOM      3  C   UNL     1       3.320   6.320  -4.689  0.00  0.00    +0.037 A 
ATOM      4  C   UNL     1       3.323   5.803  -3.400  0.00  0.00    +0.014 A 
ATOM      5  C   UNL     1       4.053   6.325  -2.365  0.00  0.00    +0.058 A 
ATOM      6 CL   UNL     1       4.179   5.425  -0.879  0.00  0.00    -0.082 Cl
ATOM      7  C   UNL     1       4.954   7.325  -2.621  0.00  0.00    +0.011 A 
ATOM      8  C   UNL     1       5.141   7.730  -3.917  0.00  0.00    +0.001 A 
ATOM      9  C   UNL     1       4.329   7.252  -4.913  0.00  0.00    +0.003 A 
ENDBRANCH   1   3
BRANCH   1  11
ATOM     10  C   UNL     1       1.339   4.236  -6.104  0.00  0.00    +0.027 C 
ATOM     11  C   UNL     1       0.921   5.345  -4.922  0.00  0.00    +0.134 C 
BRANCH  11  12
ATOM     12  N   UNL     1      -0.185   6.015  -5.868  0.00  0.00    -0.214 NA
BRANCH  12  13
ATOM     13  C   UNL     1      -1.327   6.232  -5.021  0.00  0.00    +0.060 C 
ATOM     14  C   UNL     1      -1.507   7.729  -4.792  0.00  0.00    +0.017 C 
ATOM     15  C   UNL     1      -1.220   5.556  -3.683  0.00  0.00    +0.017 C 
ATOM     16  C   UNL     1      -2.558   5.734  -5.771  0.00  0.00    +0.017 C 
ENDBRANCH  12  13
ENDBRANCH  11  12
ENDBRANCH   1  11
TORSDOF 4
ENDMDL
