MODEL 1
REMARK VINA RESULT:      -5.8      0.000      0.000
REMARK  Name = 
REMARK  15 active torsions:
REMARK  status: ('A' for Active; 'I' for Inactive)
REMARK    1  A    between atoms: C_2  and  C_3
REMARK    2  A    between atoms: C_3  and  C_4
REMARK    3  A    between atoms: C_4  and  C_5
REMARK    4  A    between atoms: C_5  and  C_6
REMARK    5  A    between atoms: C_6  and  C_7
REMARK    6  A    between atoms: C_7  and  C_8
REMARK    7  A    between atoms: C_8  and  C_9
REMARK    8  A    between atoms: C_10  and  C_11
REMARK    9  A    between atoms: C_11  and  C_12
REMARK   10  A    between atoms: C_12  and  C_13
REMARK   11  A    between atoms: C_13  and  C_14
REMARK   12  A    between atoms: C_14  and  C_15
REMARK   13  A    between atoms: C_15  and  C_16
REMARK   14  A    between atoms: C_16  and  C_17
REMARK   15  A    between atoms: C_17  and  C_18
REMARK                            x       y       z     vdW  Elec       q    Type
REMARK                         _______ _______ _______ _____ _____    ______ ____
ROOT
ATOM      1  C   UNL     1       2.628   5.873  -4.319  0.00  0.00    -0.031 C 
ATOM      2  C   UNL     1       1.392   5.394  -4.156  0.00  0.00    -0.031 C 
ENDROOT
BRANCH   1   3
ATOM      3  C   UNL     1       3.605   4.951  -4.985  0.00  0.00    +0.026 C 
BRANCH   3   4
ATOM      4  C   UNL     1       4.426   5.855  -5.899  0.00  0.00    +0.005 C 
BRANCH   4   5
ATOM      5  C   UNL     1       3.699   6.112  -7.198  0.00  0.00    +0.000 C 
BRANCH   5   6
ATOM      6  C   UNL     1       3.721   4.883  -8.060  0.00  0.00    +0.000 C 
BRANCH   6   7
ATOM      7  C   UNL     1       4.311   5.266  -9.400  0.00  0.00    +0.000 C 
BRANCH   7   8
ATOM      8  C   UNL     1       5.786   5.547  -9.169  0.00  0.00    +0.000 C 
BRANCH   8  10
ATOM      9  C   UNL     1       7.580   6.888 -10.262  0.00  0.00    +0.000 C 
ATOM     10  C   UNL     1       6.360   6.029 -10.489  0.00  0.00    +0.000 C 
ENDBRANCH   8  10
ENDBRANCH   7   8
ENDBRANCH   6   7
ENDBRANCH   5   6
ENDBRANCH   4   5
ENDBRANCH   3   4
ENDBRANCH   1   3
BRANCH   2  11
ATOM     11  C   UNL     1       0.753   4.780  -5.338  0.00  0.00    +0.026 C 
BRANCH  11  12
ATOM     12  C   UNL     1       0.135   5.769  -6.281  0.00  0.00    +0.005 C 
BRANCH  12  13
ATOM     13  C   UNL     1      -1.131   5.286  -6.927  0.00  0.00    +0.000 C 
BRANCH  13  14
ATOM     14  C   UNL     1      -2.365   5.592  -6.125  0.00  0.00    +0.000 C 
BRANCH  14  15
ATOM     15  C   UNL     1      -2.163   6.933  -5.477  0.00  0.00    +0.001 C 
BRANCH  15  16
ATOM     16  C   UNL     1      -2.739   7.021  -4.091  0.00  0.00    +0.012 C 
BRANCH  16  17
ATOM     17  C   UNL     1      -1.715   6.835  -3.005  0.00  0.00    +0.114 C 
BRANCH  17  18
ATOM     18  C   UNL     1      -1.874   5.501  -2.379  0.00  0.00    +0.365 C 
ATOM     19  O   UNL     1      -2.931   4.685  -2.751  0.00  0.00    -0.246 OA
ATOM     20  O   UNL     1      -0.995   5.011  -1.643  0.00  0.00    -0.246 OA
ENDBRANCH  17  18
ENDBRANCH  16  17
ENDBRANCH  15  16
ENDBRANCH  14  15
ENDBRANCH  13  14
ENDBRANCH  12  13
ENDBRANCH  11  12
ENDBRANCH   2  11
TORSDOF 15
ENDMDL
MODEL 2
REMARK VINA RESULT:      -5.8      1.464      2.182
REMARK  Name = 
REMARK  15 active torsions:
REMARK  status: ('A' for Active; 'I' for Inactive)
REMARK    1  A    between atoms: C_2  and  C_3
REMARK    2  A    between atoms: C_3  and  C_4
REMARK    3  A    between atoms: C_4  and  C_5
REMARK    4  A    between atoms: C_5  and  C_6
REMARK    5  A    between atoms: C_6  and  C_7
REMARK    6  A    between atoms: C_7  and  C_8
REMARK    7  A    between atoms: C_8  and  C_9
REMARK    8  A    between atoms: C_10  and  C_11
REMARK    9  A    between atoms: C_11  and  C_12
REMARK   10  A    between atoms: C_12  and  C_13
REMARK   11  A    between atoms: C_13  and  C_14
REMARK   12  A    between atoms: C_14  and  C_15
REMARK   13  A    between atoms: C_15  and  C_16
REMARK   14  A    between atoms: C_16  and  C_17
REMARK   15  A    between atoms: C_17  and  C_18
REMARK                            x       y       z     vdW  Elec       q    Type
REMARK                         _______ _______ _______ _____ _____    ______ ____
ROOT
ATOM      1  C   UNL     1       2.224   6.256  -8.801  0.00  0.00    -0.031 C 
ATOM      2  C   UNL     1       0.907   6.040  -8.720  0.00  0.00    -0.031 C 
ENDROOT
BRANCH   1   3
ATOM      3  C   UNL     1       2.855   6.900  -7.603  0.00  0.00    +0.026 C 
BRANCH   3   4
ATOM      4  C   UNL     1       4.030   5.993  -7.252  0.00  0.00    +0.005 C 
BRANCH   4   5
ATOM      5  C   UNL     1       4.428   5.143  -8.436  0.00  0.00    +0.000 C 
BRANCH   5   6
ATOM      6  C   UNL     1       5.896   5.292  -8.713  0.00  0.00    +0.000 C 
BRANCH   6   7
ATOM      7  C   UNL     1       6.048   6.009 -10.037  0.00  0.00    +0.000 C 
BRANCH   7   8
ATOM      8  C   UNL     1       7.515   6.384 -10.171  0.00  0.00    +0.000 C 
BRANCH   8  10
ATOM      9  C   UNL     1       8.981   5.773 -12.091  0.00  0.00    +0.000 C 
ATOM     10  C   UNL     1       7.788   6.587 -11.650  0.00  0.00    +0.000 C 
ENDBRANCH   8  10
ENDBRANCH   7   8
ENDBRANCH   6   7
ENDBRANCH   5   6
ENDBRANCH   4   5
ENDBRANCH   3   4
ENDBRANCH   1   3
BRANCH   2  11
ATOM     11  C   UNL     1       0.412   5.382  -7.495  0.00  0.00    +0.026 C 
BRANCH  11  12
ATOM     12  C   UNL     1      -1.083   5.291  -7.412  0.00  0.00    +0.005 C 
BRANCH  12  13
ATOM     13  C   UNL     1      -1.629   5.481  -6.026  0.00  0.00    +0.000 C 
BRANCH  13  14
ATOM     14  C   UNL     1      -2.791   6.432  -5.966  0.00  0.00    +0.000 C 
BRANCH  14  15
ATOM     15  C   UNL     1      -2.384   7.592  -5.102  0.00  0.00    +0.001 C 
BRANCH  15  16
ATOM     16  C   UNL     1      -1.408   7.220  -4.021  0.00  0.00    +0.012 C 
BRANCH  16  17
ATOM     17  C   UNL     1      -2.059   6.967  -2.689  0.00  0.00    +0.114 C 
BRANCH  17  18
ATOM     18  C   UNL     1      -1.933   5.537  -2.323  0.00  0.00    +0.365 C 
ATOM     19  O   UNL     1      -2.895   4.630  -2.740  0.00  0.00    -0.246 OA
ATOM     20  O   UNL     1      -0.901   5.082  -1.789  0.00  0.00    -0.246 OA
ENDBRANCH  17  18
ENDBRANCH  16  17
ENDBRANCH  15  16
ENDBRANCH  14  15
ENDBRANCH  13  14
ENDBRANCH  12  13
ENDBRANCH  11  12
ENDBRANCH   2  11
TORSDOF 15
ENDMDL
MODEL 3
REMARK VINA RESULT:      -5.7      4.785      8.817
REMARK  Name = 
REMARK  15 active torsions:
REMARK  status: ('A' for Active; 'I' for Inactive)
REMARK    1  A    between atoms: C_2  and  C_3
REMARK    2  A    between atoms: C_3  and  C_4
REMARK    3  A    between atoms: C_4  and  C_5
REMARK    4  A    between atoms: C_5  and  C_6
REMARK    5  A    between atoms: C_6  and  C_7
REMARK    6  A    between atoms: C_7  and  C_8
REMARK    7  A    between atoms: C_8  and  C_9
REMARK    8  A    between atoms: C_10  and  C_11
REMARK    9  A    between atoms: C_11  and  C_12
REMARK   10  A    between atoms: C_12  and  C_13
REMARK   11  A    between atoms: C_13  and  C_14
REMARK   12  A    between atoms: C_14  and  C_15
REMARK   13  A    between atoms: C_15  and  C_16
REMARK   14  A    between atoms: C_16  and  C_17
REMARK   15  A    between atoms: C_17  and  C_18
REMARK                            x       y       z     vdW  Elec       q    Type
REMARK                         _______ _______ _______ _____ _____    ______ ____
ROOT
ATOM      1  C   UNL     1       2.479   7.275  -7.218  0.00  0.00    -0.031 C 
ATOM      2  C   UNL     1       1.605   6.404  -7.730  0.00  0.00    -0.031 C 
ENDROOT
BRANCH   1   3
ATOM      3  C   UNL     1       3.456   6.715  -6.227  0.00  0.00    +0.026 C 
BRANCH   3   4
ATOM      4  C   UNL     1       2.796   6.934  -4.870  0.00  0.00    +0.005 C 
BRANCH   4   5
ATOM      5  C   UNL     1       2.182   5.653  -4.355  0.00  0.00    +0.000 C 
BRANCH   5   6
ATOM      6  C   UNL     1       0.878   5.940  -3.668  0.00  0.00    +0.000 C 
BRANCH   6   7
ATOM      7  C   UNL     1      -0.239   5.551  -4.612  0.00  0.00    +0.000 C 
BRANCH   7   8
ATOM      8  C   UNL     1      -1.293   6.643  -4.524  0.00  0.00    +0.000 C 
BRANCH   8  10
ATOM      9  C   UNL     1      -1.785   5.293  -6.560  0.00  0.00    +0.000 C 
ATOM     10  C   UNL     1      -2.195   6.489  -5.734  0.00  0.00    +0.000 C 
ENDBRANCH   8  10
ENDBRANCH   7   8
ENDBRANCH   6   7
ENDBRANCH   5   6
ENDBRANCH   4   5
ENDBRANCH   3   4
ENDBRANCH   1   3
BRANCH   2  11
ATOM     11  C   UNL     1       2.154   5.135  -8.251  0.00  0.00    +0.026 C 
BRANCH  11  12
ATOM     12  C   UNL     1       2.680   5.227  -9.652  0.00  0.00    +0.005 C 
BRANCH  12  13
ATOM     13  C   UNL     1       4.140   4.899  -9.778  0.00  0.00    +0.000 C 
BRANCH  13  14
ATOM     14  C   UNL     1       5.029   6.111  -9.769  0.00  0.00    +0.000 C 
BRANCH  14  15
ATOM     15  C   UNL     1       6.393   5.669  -9.318  0.00  0.00    +0.001 C 
BRANCH  15  16
ATOM     16  C   UNL     1       7.515   6.366 -10.035  0.00  0.00    +0.012 C 
BRANCH  16  17
ATOM     17  C   UNL     1       7.270   6.533 -11.510  0.00  0.00    +0.114 C 
BRANCH  17  18
ATOM     18  C   UNL     1       8.184   5.657 -12.281  0.00  0.00    +0.365 C 
ATOM     19  O   UNL     1       9.556   5.812 -12.156  0.00  0.00    -0.246 OA
ATOM     20  O   UNL     1       7.768   4.669 -12.917  0.00  0.00    -0.246 OA
ENDBRANCH  17  18
ENDBRANCH  16  17
ENDBRANCH  15  16
ENDBRANCH  14  15
ENDBRANCH  13  14
ENDBRANCH  12  13
ENDBRANCH  11  12
ENDBRANCH   2  11
TORSDOF 15
ENDMDL
MODEL 4
REMARK VINA RESULT:      -5.6      5.033      9.662
REMARK  Name = 
REMARK  15 active torsions:
REMARK  status: ('A' for Active; 'I' for Inactive)
REMARK    1  A    between atoms: C_2  and  C_3
REMARK    2  A    between atoms: C_3  and  C_4
REMARK    3  A    between atoms: C_4  and  C_5
REMARK    4  A    between atoms: C_5  and  C_6
REMARK    5  A    between atoms: C_6  and  C_7
REMARK    6  A    between atoms: C_7  and  C_8
REMARK    7  A    between atoms: C_8  and  C_9
REMARK    8  A    between atoms: C_10  and  C_11
REMARK    9  A    between atoms: C_11  and  C_12
REMARK   10  A    between atoms: C_12  and  C_13
REMARK   11  A    between atoms: C_13  and  C_14
REMARK   12  A    between atoms: C_14  and  C_15
REMARK   13  A    between atoms: C_15  and  C_16
REMARK   14  A    between atoms: C_16  and  C_17
REMARK   15  A    between atoms: C_17  and  C_18
REMARK                            x       y       z     vdW  Elec       q    Type
REMARK                         _______ _______ _______ _____ _____    ______ ____
ROOT
ATOM      1  C   UNL     1      -0.079   5.417  -8.804  0.00  0.00    -0.031 C 
ATOM      2  C   UNL     1       0.625   5.178  -9.914  0.00  0.00    -0.031 C 
ENDROOT
BRANCH   1   3
ATOM      3  C   UNL     1       0.724   5.695  -7.568  0.00  0.00    +0.026 C 
BRANCH   3   4
ATOM      4  C   UNL     1      -0.123   5.142  -6.426  0.00  0.00    +0.005 C 
BRANCH   4   5
ATOM      5  C   UNL     1      -1.588   5.141  -6.792  0.00  0.00    +0.000 C 
BRANCH   5   6
ATOM      6  C   UNL     1      -2.329   6.161  -5.977  0.00  0.00    +0.000 C 
BRANCH   6   7
ATOM      7  C   UNL     1      -1.934   5.972  -4.528  0.00  0.00    +0.000 C 
BRANCH   7   8
ATOM      8  C   UNL     1      -2.717   6.995  -3.721  0.00  0.00    +0.000 C 
BRANCH   8  10
ATOM      9  C   UNL     1      -2.260   6.207  -1.401  0.00  0.00    +0.000 C 
ATOM     10  C   UNL     1      -3.281   6.270  -2.512  0.00  0.00    +0.000 C 
ENDBRANCH   8  10
ENDBRANCH   7   8
ENDBRANCH   6   7
ENDBRANCH   5   6
ENDBRANCH   4   5
ENDBRANCH   3   4
ENDBRANCH   1   3
BRANCH   2  11
ATOM     11  C   UNL     1       1.704   6.133 -10.239  0.00  0.00    +0.026 C 
BRANCH  11  12
ATOM     12  C   UNL     1       3.009   5.483 -10.590  0.00  0.00    +0.005 C 
BRANCH  12  13
ATOM     13  C   UNL     1       3.971   6.391 -11.300  0.00  0.00    +0.000 C 
BRANCH  13  14
ATOM     14  C   UNL     1       4.854   7.172 -10.367  0.00  0.00    +0.000 C 
BRANCH  14  15
ATOM     15  C   UNL     1       5.981   7.742 -11.182  0.00  0.00    +0.001 C 
BRANCH  15  16
ATOM     16  C   UNL     1       7.339   7.288 -10.726  0.00  0.00    +0.012 C 
BRANCH  16  17
ATOM     17  C   UNL     1       7.513   5.795 -10.760  0.00  0.00    +0.114 C 
BRANCH  17  18
ATOM     18  C   UNL     1       8.304   5.400 -11.949  0.00  0.00    +0.365 C 
ATOM     19  O   UNL     1       7.729   4.600 -12.926  0.00  0.00    -0.246 OA
ATOM     20  O   UNL     1       9.421   5.896 -12.192  0.00  0.00    -0.246 OA
ENDBRANCH  17  18
ENDBRANCH  16  17
ENDBRANCH  15  16
ENDBRANCH  14  15
ENDBRANCH  13  14
ENDBRANCH  12  13
ENDBRANCH  11  12
ENDBRANCH   2  11
TORSDOF 15
ENDMDL
MODEL 5
REMARK VINA RESULT:      -5.6      4.839      9.320
REMARK  Name = 
REMARK  15 active torsions:
REMARK  status: ('A' for Active; 'I' for Inactive)
REMARK    1  A    between atoms: C_2  and  C_3
REMARK    2  A    between atoms: C_3  and  C_4
REMARK    3  A    between atoms: C_4  and  C_5
REMARK    4  A    between atoms: C_5  and  C_6
REMARK    5  A    between atoms: C_6  and  C_7
REMARK    6  A    between atoms: C_7  and  C_8
REMARK    7  A    between atoms: C_8  and  C_9
REMARK    8  A    between atoms: C_10  and  C_11
REMARK    9  A    between atoms: C_11  and  C_12
REMARK   10  A    between atoms: C_12  and  C_13
REMARK   11  A    between atoms: C_13  and  C_14
REMARK   12  A    between atoms: C_14  and  C_15
REMARK   13  A    between atoms: C_15  and  C_16
REMARK   14  A    between atoms: C_16  and  C_17
REMARK   15  A    between atoms: C_17  and  C_18
REMARK                            x       y       z     vdW  Elec       q    Type
REMARK                         _______ _______ _______ _____ _____    ______ ____
ROOT
ATOM      1  C   UNL     1       1.148   5.951  -6.790  0.00  0.00    -0.031 C 
ATOM      2  C   UNL     1       1.774   5.693  -7.942  0.00  0.00    -0.031 C 
ENDROOT
BRANCH   1   3
ATOM      3  C   UNL     1       0.102   4.959  -6.378  0.00  0.00    +0.026 C 
BRANCH   3   4
ATOM      4  C   UNL     1      -1.204   5.527  -6.922  0.00  0.00    +0.005 C 
BRANCH   4   5
ATOM      5  C   UNL     1      -2.270   5.551  -5.851  0.00  0.00    +0.000 C 
BRANCH   5   6
ATOM      6  C   UNL     1      -2.341   6.910  -5.217  0.00  0.00    +0.000 C 
BRANCH   6   7
ATOM      7  C   UNL     1      -2.862   6.738  -3.807  0.00  0.00    +0.000 C 
BRANCH   7   8
ATOM      8  C   UNL     1      -2.421   5.361  -3.339  0.00  0.00    +0.000 C 
BRANCH   8  10
ATOM      9  C   UNL     1      -0.015   5.316  -2.690  0.00  0.00    +0.000 C 
ATOM     10  C   UNL     1      -1.425   5.572  -2.213  0.00  0.00    +0.000 C 
ENDBRANCH   8  10
ENDBRANCH   7   8
ENDBRANCH   6   7
ENDBRANCH   5   6
ENDBRANCH   4   5
ENDBRANCH   3   4
ENDBRANCH   1   3
BRANCH   2  11
ATOM     11  C   UNL     1       2.302   4.326  -8.123  0.00  0.00    +0.026 C 
BRANCH  11  12
ATOM     12  C   UNL     1       3.620   4.270  -8.836  0.00  0.00    +0.005 C 
BRANCH  12  13
ATOM     13  C   UNL     1       4.695   5.103  -8.199  0.00  0.00    +0.000 C 
BRANCH  13  14
ATOM     14  C   UNL     1       5.644   5.715  -9.190  0.00  0.00    +0.000 C 
BRANCH  14  15
ATOM     15  C   UNL     1       4.895   5.899 -10.480  0.00  0.00    +0.001 C 
BRANCH  15  16
ATOM     16  C   UNL     1       5.778   5.855 -11.696  0.00  0.00    +0.012 C 
BRANCH  16  17
ATOM     17  C   UNL     1       7.175   6.349 -11.440  0.00  0.00    +0.114 C 
BRANCH  17  18
ATOM     18  C   UNL     1       8.141   5.610 -12.285  0.00  0.00    +0.365 C 
ATOM     19  O   UNL     1       9.498   5.875 -12.175  0.00  0.00    -0.246 OA
ATOM     20  O   UNL     1       7.796   4.635 -12.981  0.00  0.00    -0.246 OA
ENDBRANCH  17  18
ENDBRANCH  16  17
ENDBRANCH  15  16
ENDBRANCH  14  15
ENDBRANCH  13  14
ENDBRANCH  12  13
ENDBRANCH  11  12
ENDBRANCH   2  11
TORSDOF 15
ENDMDL
MODEL 6
REMARK VINA RESULT:      -5.6      3.683      7.943
REMARK  Name = 
REMARK  15 active torsions:
REMARK  status: ('A' for Active; 'I' for Inactive)
REMARK    1  A    between atoms: C_2  and  C_3
REMARK    2  A    between atoms: C_3  and  C_4
REMARK    3  A    between atoms: C_4  and  C_5
REMARK    4  A    between atoms: C_5  and  C_6
REMARK    5  A    between atoms: C_6  and  C_7
REMARK    6  A    between atoms: C_7  and  C_8
REMARK    7  A    between atoms: C_8  and  C_9
REMARK    8  A    between atoms: C_10  and  C_11
REMARK    9  A    between atoms: C_11  and  C_12
REMARK   10  A    between atoms: C_12  and  C_13
REMARK   11  A    between atoms: C_13  and  C_14
REMARK   12  A    between atoms: C_14  and  C_15
REMARK   13  A    between atoms: C_15  and  C_16
REMARK   14  A    between atoms: C_16  and  C_17
REMARK   15  A    between atoms: C_17  and  C_18
REMARK                            x       y       z     vdW  Elec       q    Type
REMARK                         _______ _______ _______ _____ _____    ______ ____
ROOT
ATOM      1  C   UNL     1       0.775   4.716  -5.886  0.00  0.00    -0.031 C 
ATOM      2  C   UNL     1       0.950   5.143  -4.631  0.00  0.00    -0.031 C 
ENDROOT
BRANCH   1   3
ATOM      3  C   UNL     1      -0.011   5.625  -6.782  0.00  0.00    +0.026 C 
BRANCH   3   4
ATOM      4  C   UNL     1      -1.425   5.054  -6.767  0.00  0.00    +0.005 C 
BRANCH   4   5
ATOM      5  C   UNL     1      -2.423   6.097  -6.322  0.00  0.00    +0.000 C 
BRANCH   5   6
ATOM      6  C   UNL     1      -2.548   6.094  -4.826  0.00  0.00    +0.000 C 
BRANCH   6   7
ATOM      7  C   UNL     1      -2.189   7.477  -4.328  0.00  0.00    +0.000 C 
BRANCH   7   8
ATOM      8  C   UNL     1      -2.115   7.395  -2.812  0.00  0.00    +0.000 C 
BRANCH   8  10
ATOM      9  C   UNL     1      -0.952   5.679  -1.429  0.00  0.00    +0.000 C 
ATOM     10  C   UNL     1      -2.037   5.923  -2.449  0.00  0.00    +0.000 C 
ENDBRANCH   8  10
ENDBRANCH   7   8
ENDBRANCH   6   7
ENDBRANCH   5   6
ENDBRANCH   4   5
ENDBRANCH   3   4
ENDBRANCH   1   3
BRANCH   2  11
ATOM     11  C   UNL     1       1.428   6.529  -4.458  0.00  0.00    +0.026 C 
BRANCH  11  12
ATOM     12  C   UNL     1       2.893   6.637  -4.155  0.00  0.00    +0.005 C 
BRANCH  12  13
ATOM     13  C   UNL     1       3.721   7.113  -5.313  0.00  0.00    +0.000 C 
BRANCH  13  14
ATOM     14  C   UNL     1       4.305   5.995  -6.131  0.00  0.00    +0.000 C 
BRANCH  14  15
ATOM     15  C   UNL     1       3.735   6.103  -7.518  0.00  0.00    +0.001 C 
BRANCH  15  16
ATOM     16  C   UNL     1       3.988   4.888  -8.365  0.00  0.00    +0.012 C 
BRANCH  16  17
ATOM     17  C   UNL     1       4.032   5.185  -9.839  0.00  0.00    +0.114 C 
BRANCH  17  18
ATOM     18  C   UNL     1       5.193   6.050 -10.151  0.00  0.00    +0.365 C 
ATOM     19  O   UNL     1       4.987   7.338 -10.623  0.00  0.00    -0.246 OA
ATOM     20  O   UNL     1       6.358   5.724  -9.848  0.00  0.00    -0.246 OA
ENDBRANCH  17  18
ENDBRANCH  16  17
ENDBRANCH  15  16
ENDBRANCH  14  15
ENDBRANCH  13  14
ENDBRANCH  12  13
ENDBRANCH  11  12
ENDBRANCH   2  11
TORSDOF 15
ENDMDL
MODEL 7
REMARK VINA RESULT:      -5.6      5.482      8.583
REMARK  Name = 
REMARK  15 active torsions:
REMARK  status: ('A' for Active; 'I' for Inactive)
REMARK    1  A    between atoms: C_2  and  C_3
REMARK    2  A    between atoms: C_3  and  C_4
REMARK    3  A    between atoms: C_4  and  C_5
REMARK    4  A    between atoms: C_5  and  C_6
REMARK    5  A    between atoms: C_6  and  C_7
REMARK    6  A    between atoms: C_7  and  C_8
REMARK    7  A    between atoms: C_8  and  C_9
REMARK    8  A    between atoms: C_10  and  C_11
REMARK    9  A    between atoms: C_11  and  C_12
REMARK   10  A    between atoms: C_12  and  C_13
REMARK   11  A    between atoms: C_13  and  C_14
REMARK   12  A    between atoms: C_14  and  C_15
REMARK   13  A    between atoms: C_15  and  C_16
REMARK   14  A    between atoms: C_16  and  C_17
REMARK   15  A    between atoms: C_17  and  C_18
REMARK                            x       y       z     vdW  Elec       q    Type
REMARK                         _______ _______ _______ _____ _____    ______ ____
ROOT
ATOM      1  C   UNL     1       1.683   6.849  -7.581  0.00  0.00    -0.031 C 
ATOM      2  C   UNL     1       2.913   7.021  -8.074  0.00  0.00    -0.031 C 
ENDROOT
BRANCH   1   3
ATOM      3  C   UNL     1       1.107   5.472  -7.724  0.00  0.00    +0.026 C 
BRANCH   3   4
ATOM      4  C   UNL     1      -0.082   5.648  -8.664  0.00  0.00    +0.005 C 
BRANCH   4   5
ATOM      5  C   UNL     1       0.311   5.350 -10.092  0.00  0.00    +0.000 C 
BRANCH   5   6
ATOM      6  C   UNL     1      -0.616   6.049 -11.044  0.00  0.00    +0.000 C 
BRANCH   6   7
ATOM      7  C   UNL     1       0.167   7.146 -11.732  0.00  0.00    +0.000 C 
BRANCH   7   8
ATOM      8  C   UNL     1       1.352   6.482 -12.413  0.00  0.00    +0.000 C 
BRANCH   8  10
ATOM      9  C   UNL     1       0.993   4.623 -14.034  0.00  0.00    +0.000 C 
ATOM     10  C   UNL     1       0.909   6.115 -13.818  0.00  0.00    +0.000 C 
ENDBRANCH   8  10
ENDBRANCH   7   8
ENDBRANCH   6   7
ENDBRANCH   5   6
ENDBRANCH   4   5
ENDBRANCH   3   4
ENDBRANCH   1   3
BRANCH   2  11
ATOM     11  C   UNL     1       3.932   6.024  -7.688  0.00  0.00    +0.026 C 
BRANCH  11  12
ATOM     12  C   UNL     1       4.602   5.355  -8.851  0.00  0.00    +0.005 C 
BRANCH  12  13
ATOM     13  C   UNL     1       3.968   5.659 -10.178  0.00  0.00    +0.000 C 
BRANCH  13  14
ATOM     14  C   UNL     1       4.961   6.015 -11.248  0.00  0.00    +0.000 C 
BRANCH  14  15
ATOM     15  C   UNL     1       5.587   7.327 -10.868  0.00  0.00    +0.001 C 
BRANCH  15  16
ATOM     16  C   UNL     1       7.089   7.298 -10.875  0.00  0.00    +0.012 C 
BRANCH  16  17
ATOM     17  C   UNL     1       7.662   5.914 -10.739  0.00  0.00    +0.114 C 
BRANCH  17  18
ATOM     18  C   UNL     1       8.310   5.503 -12.007  0.00  0.00    +0.365 C 
ATOM     19  O   UNL     1       9.548   6.026 -12.349  0.00  0.00    -0.246 OA
ATOM     20  O   UNL     1       7.860   4.574 -12.706  0.00  0.00    -0.246 OA
ENDBRANCH  17  18
ENDBRANCH  16  17
ENDBRANCH  15  16
ENDBRANCH  14  15
ENDBRANCH  13  14
ENDBRANCH  12  13
ENDBRANCH  11  12
ENDBRANCH   2  11
TORSDOF 15
ENDMDL
MODEL 8
REMARK VINA RESULT:      -5.6      5.389      8.597
REMARK  Name = 
REMARK  15 active torsions:
REMARK  status: ('A' for Active; 'I' for Inactive)
REMARK    1  A    between atoms: C_2  and  C_3
REMARK    2  A    between atoms: C_3  and  C_4
REMARK    3  A    between atoms: C_4  and  C_5
REMARK    4  A    between atoms: C_5  and  C_6
REMARK    5  A    between atoms: C_6  and  C_7
REMARK    6  A    between atoms: C_7  and  C_8
REMARK    7  A    between atoms: C_8  and  C_9
REMARK    8  A    between atoms: C_10  and  C_11
REMARK    9  A    between atoms: C_11  and  C_12
REMARK   10  A    between atoms: C_12  and  C_13
REMARK   11  A    between atoms: C_13  and  C_14
REMARK   12  A    between atoms: C_14  and  C_15
REMARK   13  A    between atoms: C_15  and  C_16
REMARK   14  A    between atoms: C_16  and  C_17
REMARK   15  A    between atoms: C_17  and  C_18
REMARK                            x       y       z     vdW  Elec       q    Type
REMARK                         _______ _______ _______ _____ _____    ______ ____
ROOT
ATOM      1  C   UNL     1       2.003   3.934  -6.356  0.00  0.00    -0.031 C 
ATOM      2  C   UNL     1       2.414   3.852  -7.625  0.00  0.00    -0.031 C 
ENDROOT
BRANCH   1   3
ATOM      3  C   UNL     1       2.393   5.182  -5.623  0.00  0.00    +0.026 C 
BRANCH   3   4
ATOM      4  C   UNL     1       3.591   4.771  -4.773  0.00  0.00    +0.005 C 
BRANCH   4   5
ATOM      5  C   UNL     1       4.746   5.724  -4.974  0.00  0.00    +0.000 C 
BRANCH   5   6
ATOM      6  C   UNL     1       4.258   7.143  -4.962  0.00  0.00    +0.000 C 
BRANCH   6   7
ATOM      7  C   UNL     1       4.940   7.858  -3.815  0.00  0.00    +0.000 C 
BRANCH   7   8
ATOM      8  C   UNL     1       3.915   7.978  -2.698  0.00  0.00    +0.000 C 
BRANCH   8  10
ATOM      9  C   UNL     1       4.124   5.985  -1.217  0.00  0.00    +0.000 C 
ATOM     10  C   UNL     1       4.557   7.414  -1.444  0.00  0.00    +0.000 C 
ENDBRANCH   8  10
ENDBRANCH   7   8
ENDBRANCH   6   7
ENDBRANCH   5   6
ENDBRANCH   4   5
ENDBRANCH   3   4
ENDBRANCH   1   3
BRANCH   2  11
ATOM     11  C   UNL     1       2.159   5.023  -8.487  0.00  0.00    +0.026 C 
BRANCH  11  12
ATOM     12  C   UNL     1       3.179   5.219  -9.569  0.00  0.00    +0.005 C 
BRANCH  12  13
ATOM     13  C   UNL     1       4.223   6.247  -9.244  0.00  0.00    +0.000 C 
BRANCH  13  14
ATOM     14  C   UNL     1       5.421   5.679  -8.534  0.00  0.00    +0.000 C 
BRANCH  14  15
ATOM     15  C   UNL     1       6.420   5.277  -9.583  0.00  0.00    +0.001 C 
BRANCH  15  16
ATOM     16  C   UNL     1       7.460   6.327  -9.854  0.00  0.00    +0.012 C 
BRANCH  16  17
ATOM     17  C   UNL     1       7.567   6.702 -11.306  0.00  0.00    +0.114 C 
BRANCH  17  18
ATOM     18  C   UNL     1       8.400   5.712 -12.028  0.00  0.00    +0.365 C 
ATOM     19  O   UNL     1       7.806   4.595 -12.597  0.00  0.00    -0.246 OA
ATOM     20  O   UNL     1       9.600   5.927 -12.290  0.00  0.00    -0.246 OA
ENDBRANCH  17  18
ENDBRANCH  16  17
ENDBRANCH  15  16
ENDBRANCH  14  15
ENDBRANCH  13  14
ENDBRANCH  12  13
ENDBRANCH  11  12
ENDBRANCH   2  11
TORSDOF 15
ENDMDL
MODEL 9
REMARK VINA RESULT:      -5.6      1.361      2.744
REMARK  Name = 
REMARK  15 active torsions:
REMARK  status: ('A' for Active; 'I' for Inactive)
REMARK    1  A    between atoms: C_2  and  C_3
REMARK    2  A    between atoms: C_3  and  C_4
REMARK    3  A    between atoms: C_4  and  C_5
REMARK    4  A    between atoms: C_5  and  C_6
REMARK    5  A    between atoms: C_6  and  C_7
REMARK    6  A    between atoms: C_7  and  C_8
REMARK    7  A    between atoms: C_8  and  C_9
REMARK    8  A    between atoms: C_10  and  C_11
REMARK    9  A    between atoms: C_11  and  C_12
REMARK   10  A    between atoms: C_12  and  C_13
REMARK   11  A    between atoms: C_13  and  C_14
REMARK   12  A    between atoms: C_14  and  C_15
REMARK   13  A    between atoms: C_15  and  C_16
REMARK   14  A    between atoms: C_16  and  C_17
REMARK   15  A    between atoms: C_17  and  C_18
REMARK                            x       y       z     vdW  Elec       q    Type
REMARK                         _______ _______ _______ _____ _____    ______ ____
ROOT
ATOM      1  C   UNL     1       2.742   6.935  -8.244  0.00  0.00    -0.031 C 
ATOM      2  C   UNL     1       2.549   7.070  -6.928  0.00  0.00    -0.031 C 
ENDROOT
BRANCH   1   3
ATOM      3  C   UNL     1       3.877   6.045  -8.651  0.00  0.00    +0.026 C 
BRANCH   3   4
ATOM      4  C   UNL     1       3.628   5.752 -10.126  0.00  0.00    +0.005 C 
BRANCH   4   5
ATOM      5  C   UNL     1       4.889   5.945 -10.936  0.00  0.00    +0.000 C 
BRANCH   5   6
ATOM      6  C   UNL     1       5.326   7.381 -10.884  0.00  0.00    +0.000 C 
BRANCH   6   7
ATOM      7  C   UNL     1       6.672   7.480 -11.568  0.00  0.00    +0.000 C 
BRANCH   7   8
ATOM      8  C   UNL     1       7.689   6.843 -10.635  0.00  0.00    +0.000 C 
BRANCH   8  10
ATOM      9  C   UNL     1       8.155   5.961 -12.918  0.00  0.00    +0.000 C 
ATOM     10  C   UNL     1       8.450   5.810 -11.445  0.00  0.00    +0.000 C 
ENDBRANCH   8  10
ENDBRANCH   7   8
ENDBRANCH   6   7
ENDBRANCH   5   6
ENDBRANCH   4   5
ENDBRANCH   3   4
ENDBRANCH   1   3
BRANCH   2  11
ATOM     11  C   UNL     1       2.505   5.829  -6.130  0.00  0.00    +0.026 C 
BRANCH  11  12
ATOM     12  C   UNL     1       1.217   5.070  -6.250  0.00  0.00    +0.005 C 
BRANCH  12  13
ATOM     13  C   UNL     1       0.005   5.945  -6.392  0.00  0.00    +0.000 C 
BRANCH  13  14
ATOM     14  C   UNL     1      -1.230   5.195  -6.805  0.00  0.00    +0.000 C 
BRANCH  14  15
ATOM     15  C   UNL     1      -2.419   6.012  -6.384  0.00  0.00    +0.001 C 
BRANCH  15  16
ATOM     16  C   UNL     1      -2.237   6.694  -5.057  0.00  0.00    +0.012 C 
BRANCH  16  17
ATOM     17  C   UNL     1      -2.998   6.038  -3.938  0.00  0.00    +0.114 C 
BRANCH  17  18
ATOM     18  C   UNL     1      -2.058   5.494  -2.931  0.00  0.00    +0.365 C 
ATOM     19  O   UNL     1      -2.547   4.946  -1.755  0.00  0.00    -0.246 OA
ATOM     20  O   UNL     1      -0.841   5.359  -3.171  0.00  0.00    -0.246 OA
ENDBRANCH  17  18
ENDBRANCH  16  17
ENDBRANCH  15  16
ENDBRANCH  14  15
ENDBRANCH  13  14
ENDBRANCH  12  13
ENDBRANCH  11  12
ENDBRANCH   2  11
TORSDOF 15
ENDMDL
