MODEL 1
REMARK VINA RESULT:     -10.5      0.000      0.000
REMARK  Name = 
REMARK  2 active torsions:
REMARK  status: ('A' for Active; 'I' for Inactive)
REMARK    1  A    between atoms: C_11  and  C_12
REMARK    2  A    between atoms: C_15  and  C_16
REMARK                            x       y       z     vdW  Elec       q    Type
REMARK                         _______ _______ _______ _____ _____    ______ ____
ROOT
ATOM      1  O   UNL     1       1.237   6.152  -3.183  0.00  0.00    -0.283 OA
ATOM      2  C   UNL     1       1.038   6.290  -4.316  0.00  0.00    +0.234 C 
ATOM      3  C   UNL     1       2.195   6.479  -5.201  0.00  0.00    +0.233 C 
ATOM      4  O   UNL     1       3.249   7.248  -4.785  0.00  0.00    -0.283 OA
ATOM      5  C   UNL     1       2.113   6.148  -6.432  0.00  0.00    +0.059 C 
ATOM      6  C   UNL     1       0.900   5.704  -7.082  0.00  0.00    +0.195 C 
ATOM      7  O   UNL     1       0.762   5.718  -8.325  0.00  0.00    -0.287 OA
ATOM      8  C   UNL     1      -0.294   5.549  -6.242  0.00  0.00    +0.042 A 
ATOM      9  C   UNL     1      -1.556   5.390  -6.791  0.00  0.00    +0.003 A 
ATOM     10  C   UNL     1      -2.703   5.636  -6.048  0.00  0.00    +0.000 A 
ATOM     11  C   UNL     1      -2.600   5.999  -4.709  0.00  0.00    +0.000 A 
ATOM     12  C   UNL     1      -1.355   5.839  -4.121  0.00  0.00    +0.003 A 
ATOM     13  C   UNL     1      -0.199   5.738  -4.887  0.00  0.00    +0.045 A 
ENDROOT
BRANCH   5  14
ATOM     14  C   UNL     1       3.476   5.958  -7.290  0.00  0.00    +0.029 C 
ATOM     15  C   UNL     1       2.992   6.945  -8.543  0.00  0.00    +0.005 C 
ATOM     16  C   UNL     1       4.134   6.778  -9.499  0.00  0.00    +0.005 C 
ATOM     17  C   UNL     1       3.812   5.358 -10.303  0.00  0.00    +0.022 C 
ATOM     18  C   UNL     1       4.142   4.439  -8.957  0.00  0.00    +0.005 C 
ATOM     19  C   UNL     1       2.896   4.615  -8.087  0.00  0.00    +0.005 C 
BRANCH  17  20
ATOM     20  C   UNL     1       5.333   5.199 -10.861  0.00  0.00    -0.022 A 
ATOM     21  C   UNL     1       5.555   5.593 -12.145  0.00  0.00    -0.003 A 
ATOM     22  C   UNL     1       6.866   5.511 -12.595  0.00  0.00    +0.011 A 
ATOM     23  C   UNL     1       7.840   5.945 -11.720  0.00  0.00    +0.058 A 
ATOM     24 CL   UNL     1       9.458   6.087 -12.394  0.00  0.00    -0.082 Cl
ATOM     25  C   UNL     1       7.578   5.931 -10.369  0.00  0.00    +0.011 A 
ATOM     26  C   UNL     1       6.262   5.727  -9.964  0.00  0.00    -0.003 A 
ENDBRANCH  17  20
ENDBRANCH   5  14
TORSDOF 2
ENDMDL
MODEL 2
REMARK VINA RESULT:     -10.3      0.993      1.503
REMARK  Name = 
REMARK  2 active torsions:
REMARK  status: ('A' for Active; 'I' for Inactive)
REMARK    1  A    between atoms: C_11  and  C_12
REMARK    2  A    between atoms: C_15  and  C_16
REMARK                            x       y       z     vdW  Elec       q    Type
REMARK                         _______ _______ _______ _____ _____    ______ ____
ROOT
ATOM      1  O   UNL     1       1.527   5.603  -2.283  0.00  0.00    -0.283 OA
ATOM      2  C   UNL     1       1.162   6.067  -3.280  0.00  0.00    +0.234 C 
ATOM      3  C   UNL     1       2.168   6.647  -4.179  0.00  0.00    +0.233 C 
ATOM      4  O   UNL     1       3.219   7.354  -3.657  0.00  0.00    -0.283 OA
ATOM      5  C   UNL     1       1.935   6.712  -5.434  0.00  0.00    +0.059 C 
ATOM      6  C   UNL     1       0.675   6.368  -6.052  0.00  0.00    +0.195 C 
ATOM      7  O   UNL     1       0.363   6.757  -7.199  0.00  0.00    -0.287 OA
ATOM      8  C   UNL     1      -0.376   5.831  -5.179  0.00  0.00    +0.042 A 
ATOM      9  C   UNL     1      -1.690   5.718  -5.605  0.00  0.00    +0.003 A 
ATOM     10  C   UNL     1      -2.735   5.594  -4.698  0.00  0.00    +0.000 A 
ATOM     11  C   UNL     1      -2.468   5.528  -3.335  0.00  0.00    +0.000 A 
ATOM     12  C   UNL     1      -1.145   5.325  -2.975  0.00  0.00    +0.003 A 
ATOM     13  C   UNL     1      -0.105   5.594  -3.856  0.00  0.00    +0.045 A 
ENDROOT
BRANCH   5  14
ATOM     14  C   UNL     1       3.174   6.948  -6.455  0.00  0.00    +0.029 C 
ATOM     15  C   UNL     1       2.259   6.749  -7.833  0.00  0.00    +0.005 C 
ATOM     16  C   UNL     1       3.315   6.830  -8.894  0.00  0.00    +0.005 C 
ATOM     17  C   UNL     1       3.983   5.307  -8.945  0.00  0.00    +0.022 C 
ATOM     18  C   UNL     1       4.730   5.510  -7.473  0.00  0.00    +0.005 C 
ATOM     19  C   UNL     1       3.591   5.336  -6.466  0.00  0.00    +0.005 C 
BRANCH  17  20
ATOM     20  C   UNL     1       5.308   5.795  -9.754  0.00  0.00    -0.022 A 
ATOM     21  C   UNL     1       6.511   5.496  -9.190  0.00  0.00    -0.003 A 
ATOM     22  C   UNL     1       7.637   5.863  -9.916  0.00  0.00    +0.011 A 
ATOM     23  C   UNL     1       7.598   5.613 -11.272  0.00  0.00    +0.058 A 
ATOM     24 CL   UNL     1       9.119   5.831 -12.128  0.00  0.00    -0.082 Cl
ATOM     25  C   UNL     1       6.377   5.531 -11.900  0.00  0.00    +0.011 A 
ATOM     26  C   UNL     1       5.240   5.445 -11.103  0.00  0.00    -0.003 A 
ENDBRANCH  17  20
ENDBRANCH   5  14
TORSDOF 2
ENDMDL
MODEL 3
REMARK VINA RESULT:     -10.3      3.588      8.606
REMARK  Name = 
REMARK  2 active torsions:
REMARK  status: ('A' for Active; 'I' for Inactive)
REMARK    1  A    between atoms: C_11  and  C_12
REMARK    2  A    between atoms: C_15  and  C_16
REMARK                            x       y       z     vdW  Elec       q    Type
REMARK                         _______ _______ _______ _____ _____    ______ ____
ROOT
ATOM      1  O   UNL     1       4.518   5.306 -13.981  0.00  0.00    -0.283 OA
ATOM      2  C   UNL     1       4.787   5.672 -12.915  0.00  0.00    +0.234 C 
ATOM      3  C   UNL     1       3.691   5.871 -11.957  0.00  0.00    +0.233 C 
ATOM      4  O   UNL     1       2.505   6.409 -12.383  0.00  0.00    -0.283 OA
ATOM      5  C   UNL     1       3.920   5.784 -10.703  0.00  0.00    +0.059 C 
ATOM      6  C   UNL     1       5.233   5.625 -10.120  0.00  0.00    +0.195 C 
ATOM      7  O   UNL     1       5.469   5.884  -8.920  0.00  0.00    -0.287 OA
ATOM      8  C   UNL     1       6.364   5.473 -11.043  0.00  0.00    +0.042 A 
ATOM      9  C   UNL     1       7.677   5.580 -10.612  0.00  0.00    +0.003 A 
ATOM     10  C   UNL     1       8.712   5.831 -11.504  0.00  0.00    +0.000 A 
ATOM     11  C   UNL     1       8.447   5.927 -12.866  0.00  0.00    +0.000 A 
ATOM     12  C   UNL     1       7.195   5.503 -13.283  0.00  0.00    +0.003 A 
ATOM     13  C   UNL     1       6.133   5.398 -12.393  0.00  0.00    +0.045 A 
ENDROOT
BRANCH   5  14
ATOM     14  C   UNL     1       2.673   5.581  -9.685  0.00  0.00    +0.029 C 
ATOM     15  C   UNL     1       3.233   6.675  -8.559  0.00  0.00    +0.005 C 
ATOM     16  C   UNL     1       2.215   6.514  -7.471  0.00  0.00    +0.005 C 
ATOM     17  C   UNL     1       2.708   5.170  -6.623  0.00  0.00    +0.022 C 
ATOM     18  C   UNL     1       2.287   4.146  -7.864  0.00  0.00    +0.005 C 
ATOM     19  C   UNL     1       3.417   4.328  -8.879  0.00  0.00    +0.005 C 
BRANCH  17  20
ATOM     20  C   UNL     1       1.270   4.970  -5.887  0.00  0.00    -0.022 A 
ATOM     21  C   UNL     1       1.117   5.572  -4.675  0.00  0.00    -0.003 A 
ATOM     22  C   UNL     1      -0.132   5.447  -4.081  0.00  0.00    +0.011 A 
ATOM     23  C   UNL     1      -1.222   5.613  -4.909  0.00  0.00    +0.058 A 
ATOM     24 CL   UNL     1      -2.781   5.719  -4.102  0.00  0.00    -0.082 Cl
ATOM     25  C   UNL     1      -1.078   5.374  -6.257  0.00  0.00    +0.011 A 
ATOM     26  C   UNL     1       0.211   5.228  -6.758  0.00  0.00    -0.003 A 
ENDBRANCH  17  20
ENDBRANCH   5  14
TORSDOF 2
ENDMDL
MODEL 4
REMARK VINA RESULT:     -10.1      1.605      3.046
REMARK  Name = 
REMARK  2 active torsions:
REMARK  status: ('A' for Active; 'I' for Inactive)
REMARK    1  A    between atoms: C_11  and  C_12
REMARK    2  A    between atoms: C_15  and  C_16
REMARK                            x       y       z     vdW  Elec       q    Type
REMARK                         _______ _______ _______ _____ _____    ______ ____
ROOT
ATOM      1  O   UNL     1      -2.834   6.565  -6.109  0.00  0.00    -0.283 OA
ATOM      2  C   UNL     1      -1.976   6.034  -5.539  0.00  0.00    +0.234 C 
ATOM      3  C   UNL     1      -0.904   5.415  -6.329  0.00  0.00    +0.233 C 
ATOM      4  O   UNL     1      -1.209   4.758  -7.492  0.00  0.00    -0.283 OA
ATOM      5  C   UNL     1       0.257   5.268  -5.817  0.00  0.00    +0.059 C 
ATOM      6  C   UNL     1       0.587   5.553  -4.440  0.00  0.00    +0.195 C 
ATOM      7  O   UNL     1       1.607   5.089  -3.884  0.00  0.00    -0.287 OA
ATOM      8  C   UNL     1      -0.472   6.128  -3.601  0.00  0.00    +0.042 A 
ATOM      9  C   UNL     1      -0.355   6.193  -2.221  0.00  0.00    +0.003 A 
ATOM     10  C   UNL     1      -1.470   6.357  -1.409  0.00  0.00    +0.000 A 
ATOM     11  C   UNL     1      -2.729   6.512  -1.979  0.00  0.00    +0.000 A 
ATOM     12  C   UNL     1      -2.762   6.758  -3.343  0.00  0.00    +0.003 A 
ATOM     13  C   UNL     1      -1.681   6.451  -4.161  0.00  0.00    +0.045 A 
ENDROOT
BRANCH   5  14
ATOM     14  C   UNL     1       1.521   4.988  -6.795  0.00  0.00    +0.029 C 
ATOM     15  C   UNL     1       2.382   6.326  -6.298  0.00  0.00    +0.005 C 
ATOM     16  C   UNL     1       3.563   6.268  -7.220  0.00  0.00    +0.005 C 
ATOM     17  C   UNL     1       3.030   6.958  -8.637  0.00  0.00    +0.022 C 
ATOM     18  C   UNL     1       2.054   5.658  -8.985  0.00  0.00    +0.005 C 
ATOM     19  C   UNL     1       0.854   5.851  -8.055  0.00  0.00    +0.005 C 
BRANCH  17  20
ATOM     20  C   UNL     1       4.256   6.354  -9.521  0.00  0.00    -0.022 A 
ATOM     21  C   UNL     1       4.763   7.162 -10.492  0.00  0.00    -0.003 A 
ATOM     22  C   UNL     1       5.847   6.662 -11.202  0.00  0.00    +0.011 A 
ATOM     23  C   UNL     1       6.823   6.028 -10.462  0.00  0.00    +0.058 A 
ATOM     24 CL   UNL     1       8.304   5.642 -11.329  0.00  0.00    -0.082 Cl
ATOM     25  C   UNL     1       6.484   5.471  -9.250  0.00  0.00    +0.011 A 
ATOM     26  C   UNL     1       5.244   5.796  -8.709  0.00  0.00    -0.003 A 
ENDBRANCH  17  20
ENDBRANCH   5  14
TORSDOF 2
ENDMDL
MODEL 5
REMARK VINA RESULT:      -9.7      3.564      8.284
REMARK  Name = 
REMARK  2 active torsions:
REMARK  status: ('A' for Active; 'I' for Inactive)
REMARK    1  A    between atoms: C_11  and  C_12
REMARK    2  A    between atoms: C_15  and  C_16
REMARK                            x       y       z     vdW  Elec       q    Type
REMARK                         _______ _______ _______ _____ _____    ______ ____
ROOT
ATOM      1  O   UNL     1       7.750   6.067  -9.021  0.00  0.00    -0.283 OA
ATOM      2  C   UNL     1       6.893   5.706  -9.713  0.00  0.00    +0.234 C 
ATOM      3  C   UNL     1       5.615   5.335  -9.092  0.00  0.00    +0.233 C 
ATOM      4  O   UNL     1       5.609   4.660  -7.900  0.00  0.00    -0.283 OA
ATOM      5  C   UNL     1       4.534   5.413  -9.769  0.00  0.00    +0.059 C 
ATOM      6  C   UNL     1       4.472   5.723 -11.179  0.00  0.00    +0.195 C 
ATOM      7  O   UNL     1       3.471   5.460 -11.880  0.00  0.00    -0.287 OA
ATOM      8  C   UNL     1       5.736   6.051 -11.851  0.00  0.00    +0.042 A 
ATOM      9  C   UNL     1       5.835   6.104 -13.232  0.00  0.00    +0.003 A 
ATOM     10  C   UNL     1       7.065   6.019 -13.872  0.00  0.00    +0.000 A 
ATOM     11  C   UNL     1       8.233   5.932 -13.122  0.00  0.00    +0.000 A 
ATOM     12  C   UNL     1       8.118   6.200 -11.767  0.00  0.00    +0.003 A 
ATOM     13  C   UNL     1       6.891   6.138 -11.118  0.00  0.00    +0.045 A 
ENDROOT
BRANCH   5  14
ATOM     14  C   UNL     1       3.112   5.418  -8.988  0.00  0.00    +0.029 C 
ATOM     15  C   UNL     1       2.934   7.074  -9.035  0.00  0.00    +0.005 C 
ATOM     16  C   UNL     1       1.682   7.251  -8.229  0.00  0.00    +0.005 C 
ATOM     17  C   UNL     1       2.186   7.206  -6.644  0.00  0.00    +0.022 C 
ATOM     18  C   UNL     1       2.511   5.577  -6.721  0.00  0.00    +0.005 C 
ATOM     19  C   UNL     1       3.833   5.510  -7.489  0.00  0.00    +0.005 C 
BRANCH  17  20
ATOM     20  C   UNL     1       0.690   6.944  -6.060  0.00  0.00    -0.022 A 
ATOM     21  C   UNL     1      -0.045   5.979  -6.678  0.00  0.00    -0.003 A 
ATOM     22  C   UNL     1      -1.297   5.719  -6.136  0.00  0.00    +0.011 A 
ATOM     23  C   UNL     1      -1.365   5.653  -4.760  0.00  0.00    +0.058 A 
ATOM     24 CL   UNL     1      -2.886   5.062  -4.102  0.00  0.00    -0.082 Cl
ATOM     25  C   UNL     1      -0.422   6.319  -4.012  0.00  0.00    +0.011 A 
ATOM     26  C   UNL     1       0.702   6.810  -4.671  0.00  0.00    -0.003 A 
ENDBRANCH  17  20
ENDBRANCH   5  14
TORSDOF 2
ENDMDL
MODEL 6
REMARK VINA RESULT:      -9.2      4.111      7.317
REMARK  Name = 
REMARK  2 active torsions:
REMARK  status: ('A' for Active; 'I' for Inactive)
REMARK    1  A    between atoms: C_11  and  C_12
REMARK    2  A    between atoms: C_15  and  C_16
REMARK                            x       y       z     vdW  Elec       q    Type
REMARK                         _______ _______ _______ _____ _____    ______ ____
ROOT
ATOM      1  O   UNL     1       4.386   6.501 -11.605  0.00  0.00    -0.283 OA
ATOM      2  C   UNL     1       3.798   5.904 -10.806  0.00  0.00    +0.234 C 
ATOM      3  C   UNL     1       4.408   5.740  -9.480  0.00  0.00    +0.233 C 
ATOM      4  O   UNL     1       5.756   5.517  -9.375  0.00  0.00    -0.283 OA
ATOM      5  C   UNL     1       3.665   5.553  -8.458  0.00  0.00    +0.059 C 
ATOM      6  C   UNL     1       2.234   5.358  -8.511  0.00  0.00    +0.195 C 
ATOM      7  O   UNL     1       1.592   4.846  -7.568  0.00  0.00    -0.287 OA
ATOM      8  C   UNL     1       1.590   5.464  -9.826  0.00  0.00    +0.042 A 
ATOM      9  C   UNL     1       0.287   5.040 -10.036  0.00  0.00    +0.003 A 
ATOM     10  C   UNL     1      -0.187   4.769 -11.314  0.00  0.00    +0.000 A 
ATOM     11  C   UNL     1       0.635   4.973 -12.417  0.00  0.00    +0.000 A 
ATOM     12  C   UNL     1       1.800   5.689 -12.194  0.00  0.00    +0.003 A 
ATOM     13  C   UNL     1       2.334   5.825 -10.919  0.00  0.00    +0.045 A 
ENDROOT
BRANCH   5  14
ATOM     14  C   UNL     1       4.284   5.794  -6.977  0.00  0.00    +0.029 C 
ATOM     15  C   UNL     1       3.321   4.653  -6.236  0.00  0.00    +0.005 C 
ATOM     16  C   UNL     1       3.707   4.840  -4.800  0.00  0.00    +0.005 C 
ATOM     17  C   UNL     1       2.809   6.142  -4.284  0.00  0.00    +0.022 C 
ATOM     18  C   UNL     1       3.706   7.208  -5.191  0.00  0.00    +0.005 C 
ATOM     19  C   UNL     1       3.188   6.994  -6.615  0.00  0.00    +0.005 C 
BRANCH  17  20
ATOM     20  C   UNL     1       3.727   6.394  -2.965  0.00  0.00    -0.022 A 
ATOM     21  C   UNL     1       3.604   7.607  -2.359  0.00  0.00    -0.003 A 
ATOM     22  C   UNL     1       4.346   7.793  -1.200  0.00  0.00    +0.011 A 
ATOM     23  C   UNL     1       4.358   6.742  -0.308  0.00  0.00    +0.058 A 
ATOM     24 CL   UNL     1       5.072   7.087   1.263  0.00  0.00    -0.082 Cl
ATOM     25  C   UNL     1       4.126   5.468  -0.773  0.00  0.00    +0.011 A 
ATOM     26  C   UNL     1       3.635   5.329  -2.068  0.00  0.00    -0.003 A 
ENDBRANCH  17  20
ENDBRANCH   5  14
TORSDOF 2
ENDMDL
MODEL 7
REMARK VINA RESULT:      -9.1      3.684      8.216
REMARK  Name = 
REMARK  2 active torsions:
REMARK  status: ('A' for Active; 'I' for Inactive)
REMARK    1  A    between atoms: C_11  and  C_12
REMARK    2  A    between atoms: C_15  and  C_16
REMARK                            x       y       z     vdW  Elec       q    Type
REMARK                         _______ _______ _______ _____ _____    ______ ____
ROOT
ATOM      1  O   UNL     1       7.220   6.047 -10.029  0.00  0.00    -0.283 OA
ATOM      2  C   UNL     1       6.125   5.694 -10.162  0.00  0.00    +0.234 C 
ATOM      3  C   UNL     1       5.308   5.509  -8.955  0.00  0.00    +0.233 C 
ATOM      4  O   UNL     1       5.872   4.968  -7.830  0.00  0.00    -0.283 OA
ATOM      5  C   UNL     1       4.037   5.612  -9.027  0.00  0.00    +0.059 C 
ATOM      6  C   UNL     1       3.297   5.775 -10.258  0.00  0.00    +0.195 C 
ATOM      7  O   UNL     1       2.074   5.531 -10.342  0.00  0.00    -0.287 OA
ATOM      8  C   UNL     1       4.075   5.914 -11.496  0.00  0.00    +0.042 A 
ATOM      9  C   UNL     1       3.482   5.810 -12.744  0.00  0.00    +0.003 A 
ATOM     10  C   UNL     1       4.236   5.547 -13.881  0.00  0.00    +0.000 A 
ATOM     11  C   UNL     1       5.619   5.434 -13.788  0.00  0.00    +0.000 A 
ATOM     12  C   UNL     1       6.193   5.854 -12.598  0.00  0.00    +0.003 A 
ATOM     13  C   UNL     1       5.443   5.973 -11.434  0.00  0.00    +0.045 A 
ENDROOT
BRANCH   5  14
ATOM     14  C   UNL     1       3.184   5.829  -7.664  0.00  0.00    +0.029 C 
ATOM     15  C   UNL     1       2.171   4.532  -7.925  0.00  0.00    +0.005 C 
ATOM     16  C   UNL     1       1.224   4.670  -6.771  0.00  0.00    +0.005 C 
ATOM     17  C   UNL     1       0.120   5.814  -7.262  0.00  0.00    +0.022 C 
ATOM     18  C   UNL     1       1.237   7.041  -7.149  0.00  0.00    +0.005 C 
ATOM     19  C   UNL     1       2.100   6.858  -8.399  0.00  0.00    +0.005 C 
BRANCH  17  20
ATOM     20  C   UNL     1      -0.430   6.091  -5.756  0.00  0.00    -0.022 A 
ATOM     21  C   UNL     1      -1.769   5.940  -5.558  0.00  0.00    -0.003 A 
ATOM     22  C   UNL     1      -2.221   6.119  -4.258  0.00  0.00    +0.011 A 
ATOM     23  C   UNL     1      -1.460   5.546  -3.261  0.00  0.00    +0.058 A 
ATOM     24 CL   UNL     1      -2.180   5.549  -1.657  0.00  0.00    -0.082 Cl
ATOM     25  C   UNL     1      -0.124   5.311  -3.494  0.00  0.00    +0.011 A 
ATOM     26  C   UNL     1       0.337   5.421  -4.802  0.00  0.00    -0.003 A 
ENDBRANCH  17  20
ENDBRANCH   5  14
TORSDOF 2
ENDMDL
MODEL 8
REMARK VINA RESULT:      -9.1      4.038      8.256
REMARK  Name = 
REMARK  2 active torsions:
REMARK  status: ('A' for Active; 'I' for Inactive)
REMARK    1  A    between atoms: C_11  and  C_12
REMARK    2  A    between atoms: C_15  and  C_16
REMARK                            x       y       z     vdW  Elec       q    Type
REMARK                         _______ _______ _______ _____ _____    ______ ____
ROOT
ATOM      1  O   UNL     1       4.538   6.513 -10.298  0.00  0.00    -0.283 OA
ATOM      2  C   UNL     1       3.614   5.815 -10.343  0.00  0.00    +0.234 C 
ATOM      3  C   UNL     1       3.069   5.312  -9.076  0.00  0.00    +0.233 C 
ATOM      4  O   UNL     1       3.920   4.945  -8.067  0.00  0.00    -0.283 OA
ATOM      5  C   UNL     1       1.837   4.980  -9.002  0.00  0.00    +0.059 C 
ATOM      6  C   UNL     1       0.933   4.936 -10.128  0.00  0.00    +0.195 C 
ATOM      7  O   UNL     1      -0.141   4.295 -10.101  0.00  0.00    -0.287 OA
ATOM      8  C   UNL     1       1.453   5.384 -11.426  0.00  0.00    +0.042 A 
ATOM      9  C   UNL     1       0.773   5.139 -12.608  0.00  0.00    +0.003 A 
ATOM     10  C   UNL     1       1.417   5.197 -13.838  0.00  0.00    +0.000 A 
ATOM     11  C   UNL     1       2.759   5.556 -13.902  0.00  0.00    +0.000 A 
ATOM     12  C   UNL     1       3.310   6.094 -12.750  0.00  0.00    +0.003 A 
ATOM     13  C   UNL     1       2.720   5.901 -11.507  0.00  0.00    +0.045 A 
ENDROOT
BRANCH   5  14
ATOM     14  C   UNL     1       1.145   4.835  -7.542  0.00  0.00    +0.029 C 
ATOM     15  C   UNL     1      -0.324   5.461  -8.022  0.00  0.00    +0.005 C 
ATOM     16  C   UNL     1      -1.061   5.499  -6.717  0.00  0.00    +0.005 C 
ATOM     17  C   UNL     1      -0.544   6.897  -5.977  0.00  0.00    +0.022 C 
ATOM     18  C   UNL     1       0.967   6.266  -5.686  0.00  0.00    +0.005 C 
ATOM     19  C   UNL     1       1.657   6.341  -7.049  0.00  0.00    +0.005 C 
BRANCH  17  20
ATOM     20  C   UNL     1      -1.082   6.449  -4.507  0.00  0.00    -0.022 A 
ATOM     21  C   UNL     1      -0.164   5.905  -3.662  0.00  0.00    -0.003 A 
ATOM     22  C   UNL     1      -0.617   5.581  -2.390  0.00  0.00    +0.011 A 
ATOM     23  C   UNL     1      -1.432   6.509  -1.777  0.00  0.00    +0.058 A 
ATOM     24 CL   UNL     1      -1.777   6.214  -0.078  0.00  0.00    -0.082 Cl
ATOM     25  C   UNL     1      -2.155   7.381  -2.558  0.00  0.00    +0.011 A 
ATOM     26  C   UNL     1      -1.835   7.461  -3.910  0.00  0.00    -0.003 A 
ENDBRANCH  17  20
ENDBRANCH   5  14
TORSDOF 2
ENDMDL
MODEL 9
REMARK VINA RESULT:      -8.8      3.433      5.088
REMARK  Name = 
REMARK  2 active torsions:
REMARK  status: ('A' for Active; 'I' for Inactive)
REMARK    1  A    between atoms: C_11  and  C_12
REMARK    2  A    between atoms: C_15  and  C_16
REMARK                            x       y       z     vdW  Elec       q    Type
REMARK                         _______ _______ _______ _____ _____    ______ ____
ROOT
ATOM      1  O   UNL     1       0.801   6.172  -2.963  0.00  0.00    -0.283 OA
ATOM      2  C   UNL     1       1.753   5.931  -3.578  0.00  0.00    +0.234 C 
ATOM      3  C   UNL     1       1.583   5.302  -4.894  0.00  0.00    +0.233 C 
ATOM      4  O   UNL     1       0.623   4.340  -5.068  0.00  0.00    -0.283 OA
ATOM      5  C   UNL     1       2.476   5.460  -5.794  0.00  0.00    +0.059 C 
ATOM      6  C   UNL     1       3.743   6.122  -5.582  0.00  0.00    +0.195 C 
ATOM      7  O   UNL     1       4.717   5.966  -6.350  0.00  0.00    -0.287 OA
ATOM      8  C   UNL     1       3.974   6.723  -4.263  0.00  0.00    +0.042 A 
ATOM      9  C   UNL     1       5.233   7.144  -3.864  0.00  0.00    +0.003 A 
ATOM     10  C   UNL     1       5.539   7.337  -2.523  0.00  0.00    +0.000 A 
ATOM     11  C   UNL     1       4.558   7.158  -1.554  0.00  0.00    +0.000 A 
ATOM     12  C   UNL     1       3.253   7.052  -2.010  0.00  0.00    +0.003 A 
ATOM     13  C   UNL     1       2.971   6.715  -3.328  0.00  0.00    +0.045 A 
ENDROOT
BRANCH   5  14
ATOM     14  C   UNL     1       2.105   5.136  -7.340  0.00  0.00    +0.029 C 
ATOM     15  C   UNL     1       2.878   6.479  -7.953  0.00  0.00    +0.005 C 
ATOM     16  C   UNL     1       2.520   6.380  -9.405  0.00  0.00    +0.005 C 
ATOM     17  C   UNL     1       0.993   7.033  -9.511  0.00  0.00    +0.022 C 
ATOM     18  C   UNL     1       0.308   5.734  -8.732  0.00  0.00    +0.005 C 
ATOM     19  C   UNL     1       0.664   5.968  -7.263  0.00  0.00    +0.005 C 
BRANCH  17  20
ATOM     20  C   UNL     1       0.699   6.389 -10.977  0.00  0.00    -0.022 A 
ATOM     21  C   UNL     1       1.763   6.282 -11.820  0.00  0.00    -0.003 A 
ATOM     22  C   UNL     1       1.517   5.677 -13.045  0.00  0.00    +0.011 A 
ATOM     23  C   UNL     1       0.731   4.544 -13.020  0.00  0.00    +0.058 A 
ATOM     24 CL   UNL     1       0.650   3.641 -14.528  0.00  0.00    -0.082 Cl
ATOM     25  C   UNL     1      -0.153   4.368 -11.981  0.00  0.00    +0.011 A 
ATOM     26  C   UNL     1      -0.032   5.205 -10.876  0.00  0.00    -0.003 A 
ENDBRANCH  17  20
ENDBRANCH   5  14
TORSDOF 2
ENDMDL
