MODEL 1
REMARK VINA RESULT:      -9.8      0.000      0.000
REMARK  Name = 
REMARK  12 active torsions:
REMARK  status: ('A' for Active; 'I' for Inactive)
REMARK    1  A    between atoms: C_2  and  C_3
REMARK    2  A    between atoms: C_3  and  C_4
REMARK    3  A    between atoms: C_3  and  N_7
REMARK    4  A    between atoms: N_10  and  C_11
REMARK    5  A    between atoms: C_14  and  N_15
REMARK    6  A    between atoms: N_18  and  C_19
REMARK    7  A    between atoms: C_22  and  O_23
REMARK    8  A    between atoms: O_23  and  C_24
REMARK    9  A    between atoms: C_24  and  C_25
REMARK   10  A    between atoms: C_28  and  C_29
REMARK   11  A    between atoms: C_28  and  C_35
REMARK   12  A    between atoms: C_29  and  N_30
REMARK                            x       y       z     vdW  Elec       q    Type
REMARK                         _______ _______ _______ _____ _____    ______ ____
ROOT
ATOM      1  C   UNL     1       4.013   5.629  -5.893  0.00  0.00    +0.048 A 
ATOM      2  C   UNL     1       4.511   4.659  -5.029  0.00  0.00    +0.018 A 
ATOM      3  C   UNL     1       4.444   4.913  -3.664  0.00  0.00    +0.038 A 
ATOM      4  C   UNL     1       4.035   6.152  -3.196  0.00  0.00    +0.139 A 
ATOM      5  C   UNL     1       4.043   7.189  -4.119  0.00  0.00    +0.038 A 
ATOM      6  C   UNL     1       4.228   6.937  -5.474  0.00  0.00    +0.018 A 
ENDROOT
BRANCH   1  10
ATOM      7  N   UNL     1       1.285   5.975  -8.162  0.00  0.00    -0.304 N 
ATOM      8  C   UNL     1       2.186   7.097  -7.879  0.00  0.00    +0.112 C 
ATOM      9  C   UNL     1       3.570   6.502  -8.127  0.00  0.00    +0.112 C 
ATOM     10  N   UNL     1       3.729   5.333  -7.265  0.00  0.00    -0.304 N 
ATOM     11  C   UNL     1       2.754   4.264  -7.468  0.00  0.00    +0.112 C 
ATOM     12  C   UNL     1       1.398   4.899  -7.177  0.00  0.00    +0.112 C 
BRANCH   7  16
ATOM     13  C   UNL     1       1.088   5.789 -12.278  0.00  0.00    +0.070 A 
ATOM     14  C   UNL     1       0.222   4.971 -11.572  0.00  0.00    +0.019 A 
ATOM     15  C   UNL     1       0.354   4.903 -10.190  0.00  0.00    +0.016 A 
ATOM     16  C   UNL     1       1.373   5.547  -9.529  0.00  0.00    +0.048 A 
ATOM     17  C   UNL     1       2.484   5.879 -10.295  0.00  0.00    +0.016 A 
ATOM     18  C   UNL     1       2.296   6.069 -11.653  0.00  0.00    +0.019 A 
BRANCH  13  22
ATOM     19  N   UNL     1       0.983   7.531 -15.289  0.00  0.00    -0.200 N 
ATOM     20  C   UNL     1       0.866   6.336 -14.658  0.00  0.00    +0.352 A 
ATOM     21  O   UNL     1       1.036   5.177 -15.081  0.00  0.00    -0.244 OA
ATOM     22  N   UNL     1       0.649   6.628 -13.353  0.00  0.00    -0.240 N 
ATOM     23  C   UNL     1       0.603   7.967 -13.278  0.00  0.00    +0.207 A 
ATOM     24  N   UNL     1       0.348   8.366 -14.549  0.00  0.00    -0.144 NA
BRANCH  19  25
ATOM     25  C   UNL     1       0.933   7.418 -16.858  0.00  0.00    +0.140 C 
BRANCH  25  26
ATOM     26  C   UNL     1       2.246   8.556 -17.135  0.00  0.00    +0.174 C 
ATOM     27  O   UNL     1       3.342   7.563 -16.736  0.00  0.00    -0.221 OA
ATOM     28  C   UNL     1       2.375   8.158 -18.750  0.00  0.00    +0.038 C 
ENDBRANCH  25  26
BRANCH  25  30
ATOM     29  C   UNL     1      -1.174   7.919 -17.677  0.00  0.00    +0.002 C 
ATOM     30  C   UNL     1      -0.218   8.585 -17.084  0.00  0.00    +0.027 C 
ENDBRANCH  25  30
ENDBRANCH  19  25
ENDBRANCH  13  22
ENDBRANCH   7  16
ENDBRANCH   1  10
BRANCH   4  31
ATOM     31  O   UNL     1       3.318   6.290  -2.002  0.00  0.00    -0.475 OA
BRANCH  31  32
ATOM     32  C   UNL     1       2.700   5.101  -1.521  0.00  0.00    +0.208 C 
BRANCH  32  33
ATOM     33  C   UNL     1       1.615   5.727  -0.437  0.00  0.00    +0.076 C 
ATOM     34  C   UNL     1       0.343   4.978  -1.187  0.00  0.00    +0.040 C 
ATOM     35  C   UNL     1      -0.574   6.148  -1.384  0.00  0.00    +0.136 C 
ATOM     36  O   UNL     1       0.086   7.274  -0.865  0.00  0.00    -0.352 OA
ATOM     37  C   UNL     1       1.385   7.078  -1.366  0.00  0.00    +0.146 C 
BRANCH  35  38
ATOM     38  C   UNL     1      -0.832   6.457  -2.817  0.00  0.00    +0.032 A 
ATOM     39  C   UNL     1      -1.918   7.271  -3.120  0.00  0.00    +0.141 A 
ATOM     40  F   UNL     1      -2.039   8.398  -2.393  0.00  0.00    -0.204 F 
ATOM     41  C   UNL     1      -2.571   7.089  -4.334  0.00  0.00    +0.059 A 
ATOM     42  C   UNL     1      -2.064   6.198  -5.272  0.00  0.00    +0.142 A 
ATOM     43  F   UNL     1      -2.851   5.615  -6.220  0.00  0.00    -0.204 F 
ATOM     44  C   UNL     1      -0.824   5.616  -5.053  0.00  0.00    +0.030 A 
ATOM     45  C   UNL     1      -0.266   5.641  -3.780  0.00  0.00    +0.003 A 
ENDBRANCH  35  38
BRANCH  35  46
ATOM     46  C   UNL     1      -1.862   5.904  -0.616  0.00  0.00    +0.160 C 
BRANCH  46  47
ATOM     47  N   UNL     1      -1.906   6.736   0.569  0.00  0.00    -0.227 N 
ATOM     48  N   UNL     1      -2.430   7.955   0.649  0.00  0.00    -0.145 NA
ATOM     49  C   UNL     1      -2.802   8.212   1.919  0.00  0.00    +0.221 A 
ATOM     50  N   UNL     1      -2.305   7.188   2.651  0.00  0.00    -0.201 NA
ATOM     51  C   UNL     1      -1.689   6.322   1.830  0.00  0.00    +0.197 A 
ENDBRANCH  46  47
ENDBRANCH  35  46
ENDBRANCH  32  33
ENDBRANCH  31  32
ENDBRANCH   4  31
TORSDOF 12
ENDMDL
MODEL 2
REMARK VINA RESULT:      -9.5      4.059      6.382
REMARK  Name = 
REMARK  12 active torsions:
REMARK  status: ('A' for Active; 'I' for Inactive)
REMARK    1  A    between atoms: C_2  and  C_3
REMARK    2  A    between atoms: C_3  and  C_4
REMARK    3  A    between atoms: C_3  and  N_7
REMARK    4  A    between atoms: N_10  and  C_11
REMARK    5  A    between atoms: C_14  and  N_15
REMARK    6  A    between atoms: N_18  and  C_19
REMARK    7  A    between atoms: C_22  and  O_23
REMARK    8  A    between atoms: O_23  and  C_24
REMARK    9  A    between atoms: C_24  and  C_25
REMARK   10  A    between atoms: C_28  and  C_29
REMARK   11  A    between atoms: C_28  and  C_35
REMARK   12  A    between atoms: C_29  and  N_30
REMARK                            x       y       z     vdW  Elec       q    Type
REMARK                         _______ _______ _______ _____ _____    ______ ____
ROOT
ATOM      1  C   UNL     1      -1.326   6.169  -2.338  0.00  0.00    +0.048 A 
ATOM      2  C   UNL     1      -2.310   7.152  -2.312  0.00  0.00    +0.018 A 
ATOM      3  C   UNL     1      -2.359   7.988  -1.203  0.00  0.00    +0.038 A 
ATOM      4  C   UNL     1      -1.551   7.749  -0.102  0.00  0.00    +0.139 A 
ATOM      5  C   UNL     1      -0.983   6.484  -0.022  0.00  0.00    +0.038 A 
ATOM      6  C   UNL     1      -1.041   5.607  -1.099  0.00  0.00    +0.018 A 
ENDROOT
BRANCH   1  10
ATOM      7  N   UNL     1       0.413   6.890  -5.366  0.00  0.00    -0.304 N 
ATOM      8  C   UNL     1       1.134   6.516  -4.146  0.00  0.00    +0.112 C 
ATOM      9  C   UNL     1       0.447   5.221  -3.720  0.00  0.00    +0.112 C 
ATOM     10  N   UNL     1      -0.979   5.491  -3.552  0.00  0.00    -0.304 N 
ATOM     11  C   UNL     1      -1.672   5.979  -4.742  0.00  0.00    +0.112 C 
ATOM     12  C   UNL     1      -0.971   7.285  -5.104  0.00  0.00    +0.112 C 
BRANCH   7  16
ATOM     13  C   UNL     1       1.526   4.908  -8.807  0.00  0.00    +0.070 A 
ATOM     14  C   UNL     1       0.200   5.297  -8.710  0.00  0.00    +0.019 A 
ATOM     15  C   UNL     1      -0.243   5.842  -7.511  0.00  0.00    +0.016 A 
ATOM     16  C   UNL     1       0.571   5.913  -6.404  0.00  0.00    +0.048 A 
ATOM     17  C   UNL     1       1.656   5.044  -6.388  0.00  0.00    +0.016 A 
ATOM     18  C   UNL     1       2.160   4.620  -7.606  0.00  0.00    +0.019 A 
BRANCH  13  22
ATOM     19  N   UNL     1       4.180   5.818 -10.866  0.00  0.00    -0.200 N 
ATOM     20  C   UNL     1       3.643   4.881 -10.047  0.00  0.00    +0.352 A 
ATOM     21  O   UNL     1       4.187   3.990  -9.367  0.00  0.00    -0.244 OA
ATOM     22  N   UNL     1       2.322   5.174  -9.969  0.00  0.00    -0.240 N 
ATOM     23  C   UNL     1       2.132   6.232 -10.772  0.00  0.00    +0.207 A 
ATOM     24  N   UNL     1       3.207   6.224 -11.598  0.00  0.00    -0.144 NA
BRANCH  19  25
ATOM     25  C   UNL     1       5.645   5.475 -11.331  0.00  0.00    +0.140 C 
BRANCH  25  26
ATOM     26  C   UNL     1       6.396   6.812 -10.467  0.00  0.00    +0.174 C 
ATOM     27  O   UNL     1       6.677   5.987  -9.207  0.00  0.00    -0.221 OA
ATOM     28  C   UNL     1       7.907   6.493 -11.098  0.00  0.00    +0.038 C 
ENDBRANCH  25  26
BRANCH  25  30
ATOM     29  C   UNL     1       5.738   5.394 -13.643  0.00  0.00    +0.002 C 
ATOM     30  C   UNL     1       5.588   6.333 -12.745  0.00  0.00    +0.027 C 
ENDBRANCH  25  30
ENDBRANCH  19  25
ENDBRANCH  13  22
ENDBRANCH   7  16
ENDBRANCH   1  10
BRANCH   4  31
ATOM     31  O   UNL     1      -1.038   8.791   0.677  0.00  0.00    -0.475 OA
BRANCH  31  32
ATOM     32  C   UNL     1      -0.726   8.450   2.024  0.00  0.00    +0.208 C 
BRANCH  32  33
ATOM     33  C   UNL     1       0.459   9.556   2.363  0.00  0.00    +0.076 C 
ATOM     34  C   UNL     1       1.097   9.428   0.841  0.00  0.00    +0.040 C 
ATOM     35  C   UNL     1       2.533   9.155   1.178  0.00  0.00    +0.136 C 
ATOM     36  O   UNL     1       2.622   9.126   2.579  0.00  0.00    -0.352 OA
ATOM     37  C   UNL     1       1.482   8.373   2.906  0.00  0.00    +0.146 C 
BRANCH  35  38
ATOM     38  C   UNL     1       3.000   7.820   0.717  0.00  0.00    +0.032 A 
ATOM     39  C   UNL     1       4.341   7.501   0.903  0.00  0.00    +0.141 A 
ATOM     40  F   UNL     1       4.848   7.753   2.126  0.00  0.00    -0.204 F 
ATOM     41  C   UNL     1       4.956   6.642  -0.000  0.00  0.00    +0.059 A 
ATOM     42  C   UNL     1       4.207   6.019  -0.991  0.00  0.00    +0.142 A 
ATOM     43  F   UNL     1       4.763   5.582  -2.156  0.00  0.00    -0.204 F 
ATOM     44  C   UNL     1       2.825   6.138  -0.971  0.00  0.00    +0.030 A 
ATOM     45  C   UNL     1       2.229   7.132  -0.203  0.00  0.00    +0.003 A 
ENDBRANCH  35  38
BRANCH  35  46
ATOM     46  C   UNL     1       3.394  10.279   0.627  0.00  0.00    +0.160 C 
BRANCH  46  47
ATOM     47  N   UNL     1       4.076  10.964   1.705  0.00  0.00    -0.227 N 
ATOM     48  N   UNL     1       5.354  10.813   2.041  0.00  0.00    -0.145 NA
ATOM     49  C   UNL     1       5.799  11.923   2.664  0.00  0.00    +0.221 A 
ATOM     50  N   UNL     1       4.697  12.680   2.876  0.00  0.00    -0.201 NA
ATOM     51  C   UNL     1       3.629  12.054   2.354  0.00  0.00    +0.197 A 
ENDBRANCH  46  47
ENDBRANCH  35  46
ENDBRANCH  32  33
ENDBRANCH  31  32
ENDBRANCH   4  31
TORSDOF 12
ENDMDL
MODEL 3
REMARK VINA RESULT:      -9.4      1.766      3.312
REMARK  Name = 
REMARK  12 active torsions:
REMARK  status: ('A' for Active; 'I' for Inactive)
REMARK    1  A    between atoms: C_2  and  C_3
REMARK    2  A    between atoms: C_3  and  C_4
REMARK    3  A    between atoms: C_3  and  N_7
REMARK    4  A    between atoms: N_10  and  C_11
REMARK    5  A    between atoms: C_14  and  N_15
REMARK    6  A    between atoms: N_18  and  C_19
REMARK    7  A    between atoms: C_22  and  O_23
REMARK    8  A    between atoms: O_23  and  C_24
REMARK    9  A    between atoms: C_24  and  C_25
REMARK   10  A    between atoms: C_28  and  C_29
REMARK   11  A    between atoms: C_28  and  C_35
REMARK   12  A    between atoms: C_29  and  N_30
REMARK                            x       y       z     vdW  Elec       q    Type
REMARK                         _______ _______ _______ _____ _____    ______ ____
ROOT
ATOM      1  C   UNL     1       4.135   5.699  -5.938  0.00  0.00    +0.048 A 
ATOM      2  C   UNL     1       4.605   4.734  -5.053  0.00  0.00    +0.018 A 
ATOM      3  C   UNL     1       4.626   5.053  -3.700  0.00  0.00    +0.038 A 
ATOM      4  C   UNL     1       4.331   6.338  -3.273  0.00  0.00    +0.139 A 
ATOM      5  C   UNL     1       4.366   7.330  -4.245  0.00  0.00    +0.038 A 
ATOM      6  C   UNL     1       4.463   7.005  -5.593  0.00  0.00    +0.018 A 
ENDROOT
BRANCH   1  10
ATOM      7  N   UNL     1       1.347   6.189  -8.106  0.00  0.00    -0.304 N 
ATOM      8  C   UNL     1       2.360   7.232  -7.921  0.00  0.00    +0.112 C 
ATOM      9  C   UNL     1       3.670   6.498  -8.195  0.00  0.00    +0.112 C 
ATOM     10  N   UNL     1       3.761   5.363  -7.279  0.00  0.00    -0.304 N 
ATOM     11  C   UNL     1       2.683   4.382  -7.384  0.00  0.00    +0.112 C 
ATOM     12  C   UNL     1       1.407   5.157  -7.070  0.00  0.00    +0.112 C 
BRANCH   7  16
ATOM     13  C   UNL     1       0.958   5.824 -12.196  0.00  0.00    +0.070 A 
ATOM     14  C   UNL     1       0.041   5.139 -11.416  0.00  0.00    +0.019 A 
ATOM     15  C   UNL     1       0.223   5.125 -10.039  0.00  0.00    +0.016 A 
ATOM     16  C   UNL     1       1.332   5.687  -9.450  0.00  0.00    +0.048 A 
ATOM     17  C   UNL     1       2.438   5.860 -10.274  0.00  0.00    +0.016 A 
ATOM     18  C   UNL     1       2.214   6.003 -11.632  0.00  0.00    +0.019 A 
BRANCH  13  22
ATOM     19  N   UNL     1       0.955   7.489 -15.252  0.00  0.00    -0.200 N 
ATOM     20  C   UNL     1       0.783   6.317 -14.592  0.00  0.00    +0.352 A 
ATOM     21  O   UNL     1       0.909   5.142 -14.983  0.00  0.00    -0.244 OA
ATOM     22  N   UNL     1       0.564   6.652 -13.297  0.00  0.00    -0.240 N 
ATOM     23  C   UNL     1       0.574   7.993 -13.257  0.00  0.00    +0.207 A 
ATOM     24  N   UNL     1       0.347   8.369 -14.541  0.00  0.00    -0.144 NA
BRANCH  19  25
ATOM     25  C   UNL     1       0.915   7.337 -16.819  0.00  0.00    +0.140 C 
BRANCH  25  26
ATOM     26  C   UNL     1       2.217   8.484 -17.115  0.00  0.00    +0.174 C 
ATOM     27  O   UNL     1       3.323   7.509 -16.702  0.00  0.00    -0.221 OA
ATOM     28  C   UNL     1       2.348   8.061 -18.724  0.00  0.00    +0.038 C 
ENDBRANCH  25  26
BRANCH  25  30
ATOM     29  C   UNL     1      -1.213   7.782 -17.612  0.00  0.00    +0.002 C 
ATOM     30  C   UNL     1      -0.247   8.484 -17.080  0.00  0.00    +0.027 C 
ENDBRANCH  25  30
ENDBRANCH  19  25
ENDBRANCH  13  22
ENDBRANCH   7  16
ENDBRANCH   1  10
BRANCH   4  31
ATOM     31  O   UNL     1       3.687   6.581  -2.055  0.00  0.00    -0.475 OA
BRANCH  31  32
ATOM     32  C   UNL     1       3.082   5.444  -1.447  0.00  0.00    +0.208 C 
BRANCH  32  33
ATOM     33  C   UNL     1       1.701   5.301  -2.351  0.00  0.00    +0.076 C 
ATOM     34  C   UNL     1       1.155   6.785  -1.861  0.00  0.00    +0.040 C 
ATOM     35  C   UNL     1      -0.217   6.416  -1.381  0.00  0.00    +0.136 C 
ATOM     36  O   UNL     1      -0.353   5.030  -1.564  0.00  0.00    -0.352 OA
ATOM     37  C   UNL     1       0.894   4.575  -1.101  0.00  0.00    +0.146 C 
BRANCH  35  38
ATOM     38  C   UNL     1      -0.414   6.652   0.075  0.00  0.00    +0.032 A 
ATOM     39  C   UNL     1      -1.713   6.620   0.568  0.00  0.00    +0.141 A 
ATOM     40  F   UNL     1      -2.472   5.577   0.179  0.00  0.00    -0.204 F 
ATOM     41  C   UNL     1      -2.030   7.407   1.670  0.00  0.00    +0.059 A 
ATOM     42  C   UNL     1      -1.033   8.109   2.335  0.00  0.00    +0.142 A 
ATOM     43  F   UNL     1      -1.296   9.229   3.067  0.00  0.00    -0.204 F 
ATOM     44  C   UNL     1       0.293   7.893   1.989  0.00  0.00    +0.030 A 
ATOM     45  C   UNL     1       0.600   7.268   0.786  0.00  0.00    +0.003 A 
ENDBRANCH  35  38
BRANCH  35  46
ATOM     46  C   UNL     1      -1.250   7.151  -2.219  0.00  0.00    +0.160 C 
BRANCH  46  47
ATOM     47  N   UNL     1      -1.370   6.535  -3.524  0.00  0.00    -0.227 N 
ATOM     48  N   UNL     1      -2.202   5.550  -3.848  0.00  0.00    -0.145 NA
ATOM     49  C   UNL     1      -2.461   5.584  -5.171  0.00  0.00    +0.221 A 
ATOM     50  N   UNL     1      -1.604   6.500  -5.679  0.00  0.00    -0.201 NA
ATOM     51  C   UNL     1      -0.882   7.028  -4.676  0.00  0.00    +0.197 A 
ENDBRANCH  46  47
ENDBRANCH  35  46
ENDBRANCH  32  33
ENDBRANCH  31  32
ENDBRANCH   4  31
TORSDOF 12
ENDMDL
MODEL 4
REMARK VINA RESULT:      -9.2      3.749     13.635
REMARK  Name = 
REMARK  12 active torsions:
REMARK  status: ('A' for Active; 'I' for Inactive)
REMARK    1  A    between atoms: C_2  and  C_3
REMARK    2  A    between atoms: C_3  and  C_4
REMARK    3  A    between atoms: C_3  and  N_7
REMARK    4  A    between atoms: N_10  and  C_11
REMARK    5  A    between atoms: C_14  and  N_15
REMARK    6  A    between atoms: N_18  and  C_19
REMARK    7  A    between atoms: C_22  and  O_23
REMARK    8  A    between atoms: O_23  and  C_24
REMARK    9  A    between atoms: C_24  and  C_25
REMARK   10  A    between atoms: C_28  and  C_29
REMARK   11  A    between atoms: C_28  and  C_35
REMARK   12  A    between atoms: C_29  and  N_30
REMARK                            x       y       z     vdW  Elec       q    Type
REMARK                         _______ _______ _______ _____ _____    ______ ____
ROOT
ATOM      1  C   UNL     1       1.486   5.504  -9.827  0.00  0.00    +0.048 A 
ATOM      2  C   UNL     1       2.553   5.406 -10.713  0.00  0.00    +0.018 A 
ATOM      3  C   UNL     1       2.408   5.989 -11.967  0.00  0.00    +0.038 A 
ATOM      4  C   UNL     1       1.188   6.513 -12.365  0.00  0.00    +0.139 A 
ATOM      5  C   UNL     1       0.081   6.120 -11.624  0.00  0.00    +0.038 A 
ATOM      6  C   UNL     1       0.233   5.433 -10.425  0.00  0.00    +0.018 A 
ENDROOT
BRANCH   1  10
ATOM      7  N   UNL     1       3.055   7.038  -7.017  0.00  0.00    -0.304 N 
ATOM      8  C   UNL     1       1.733   7.470  -7.480  0.00  0.00    +0.112 C 
ATOM      9  C   UNL     1       0.943   6.166  -7.542  0.00  0.00    +0.112 C 
ATOM     10  N   UNL     1       1.650   5.243  -8.428  0.00  0.00    -0.304 N 
ATOM     11  C   UNL     1       3.013   4.905  -8.027  0.00  0.00    +0.112 C 
ATOM     12  C   UNL     1       3.765   6.233  -8.012  0.00  0.00    +0.112 C 
BRANCH   7  16
ATOM     13  C   UNL     1       3.155   6.452  -2.936  0.00  0.00    +0.070 A 
ATOM     14  C   UNL     1       4.174   5.877  -3.675  0.00  0.00    +0.019 A 
ATOM     15  C   UNL     1       4.099   5.934  -5.062  0.00  0.00    +0.016 A 
ATOM     16  C   UNL     1       3.002   6.458  -5.706  0.00  0.00    +0.048 A 
ATOM     17  C   UNL     1       1.827   6.508  -4.965  0.00  0.00    +0.016 A 
ATOM     18  C   UNL     1       1.936   6.582  -3.588  0.00  0.00    +0.019 A 
BRANCH  13  22
ATOM     19  N   UNL     1       2.678   8.351  -0.059  0.00  0.00    -0.200 N 
ATOM     20  C   UNL     1       2.678   7.119  -0.624  0.00  0.00    +0.352 A 
ATOM     21  O   UNL     1       2.065   6.083  -0.306  0.00  0.00    -0.244 OA
ATOM     22  N   UNL     1       3.404   7.235  -1.762  0.00  0.00    -0.240 N 
ATOM     23  C   UNL     1       3.834   8.506  -1.796  0.00  0.00    +0.207 A 
ATOM     24  N   UNL     1       3.731   8.930  -0.512  0.00  0.00    -0.144 NA
BRANCH  19  25
ATOM     25  C   UNL     1       2.150   8.360   1.424  0.00  0.00    +0.140 C 
BRANCH  25  26
ATOM     26  C   UNL     1       1.285   9.885   1.269  0.00  0.00    +0.174 C 
ATOM     27  O   UNL     1       0.060   9.253   0.602  0.00  0.00    -0.221 OA
ATOM     28  C   UNL     1       0.608   9.763   2.789  0.00  0.00    +0.038 C 
ENDBRANCH  25  26
BRANCH  25  30
ATOM     29  C   UNL     1       3.954   8.165   2.861  0.00  0.00    +0.002 C 
ATOM     30  C   UNL     1       3.475   9.100   2.082  0.00  0.00    +0.027 C 
ENDBRANCH  25  30
ENDBRANCH  19  25
ENDBRANCH  13  22
ENDBRANCH   7  16
ENDBRANCH   1  10
BRANCH   4  31
ATOM     31  O   UNL     1       1.103   7.632 -13.200  0.00  0.00    -0.475 OA
BRANCH  31  32
ATOM     32  C   UNL     1       0.070   7.586 -14.180  0.00  0.00    +0.208 C 
BRANCH  32  33
ATOM     33  C   UNL     1       0.835   6.776 -15.405  0.00  0.00    +0.076 C 
ATOM     34  C   UNL     1       1.872   8.038 -15.673  0.00  0.00    +0.040 C 
ATOM     35  C   UNL     1       1.684   8.225 -17.149  0.00  0.00    +0.136 C 
ATOM     36  O   UNL     1       0.735   7.275 -17.562  0.00  0.00    -0.352 OA
ATOM     37  C   UNL     1      -0.215   7.380 -16.533  0.00  0.00    +0.146 C 
BRANCH  35  38
ATOM     38  C   UNL     1       1.108   9.551 -17.505  0.00  0.00    +0.032 A 
ATOM     39  C   UNL     1       1.253  10.588 -16.590  0.00  0.00    +0.141 A 
ATOM     40  F   UNL     1       2.487  10.761 -16.077  0.00  0.00    -0.204 F 
ATOM     41  C   UNL     1       0.275  11.575 -16.537  0.00  0.00    +0.059 A 
ATOM     42  C   UNL     1      -0.756  11.585 -17.468  0.00  0.00    +0.142 A 
ATOM     43  F   UNL     1      -1.960  12.172 -17.214  0.00  0.00    -0.204 F 
ATOM     44  C   UNL     1      -0.712  10.703 -18.538  0.00  0.00    +0.030 A 
ATOM     45  C   UNL     1       0.143   9.607 -18.494  0.00  0.00    +0.003 A 
ENDBRANCH  35  38
BRANCH  35  46
ATOM     46  C   UNL     1       3.007   7.975 -17.853  0.00  0.00    +0.160 C 
BRANCH  46  47
ATOM     47  N   UNL     1       4.096   7.999 -16.900  0.00  0.00    -0.227 N 
ATOM     48  N   UNL     1       4.529   6.966 -16.183  0.00  0.00    -0.145 NA
ATOM     49  C   UNL     1       5.820   7.152 -15.842  0.00  0.00    +0.221 A 
ATOM     50  N   UNL     1       6.106   8.424 -16.205  0.00  0.00    -0.201 NA
ATOM     51  C   UNL     1       5.022   8.968 -16.785  0.00  0.00    +0.197 A 
ENDBRANCH  46  47
ENDBRANCH  35  46
ENDBRANCH  32  33
ENDBRANCH  31  32
ENDBRANCH   4  31
TORSDOF 12
ENDMDL
MODEL 5
REMARK VINA RESULT:      -9.2      3.537      4.985
REMARK  Name = 
REMARK  12 active torsions:
REMARK  status: ('A' for Active; 'I' for Inactive)
REMARK    1  A    between atoms: C_2  and  C_3
REMARK    2  A    between atoms: C_3  and  C_4
REMARK    3  A    between atoms: C_3  and  N_7
REMARK    4  A    between atoms: N_10  and  C_11
REMARK    5  A    between atoms: C_14  and  N_15
REMARK    6  A    between atoms: N_18  and  C_19
REMARK    7  A    between atoms: C_22  and  O_23
REMARK    8  A    between atoms: O_23  and  C_24
REMARK    9  A    between atoms: C_24  and  C_25
REMARK   10  A    between atoms: C_28  and  C_29
REMARK   11  A    between atoms: C_28  and  C_35
REMARK   12  A    between atoms: C_29  and  N_30
REMARK                            x       y       z     vdW  Elec       q    Type
REMARK                         _______ _______ _______ _____ _____    ______ ____
ROOT
ATOM      1  C   UNL     1       3.796   5.883  -5.256  0.00  0.00    +0.048 A 
ATOM      2  C   UNL     1       3.604   4.831  -4.366  0.00  0.00    +0.018 A 
ATOM      3  C   UNL     1       3.831   5.076  -3.016  0.00  0.00    +0.038 A 
ATOM      4  C   UNL     1       4.373   6.281  -2.599  0.00  0.00    +0.139 A 
ATOM      5  C   UNL     1       4.984   7.051  -3.581  0.00  0.00    +0.038 A 
ATOM      6  C   UNL     1       4.848   6.730  -4.926  0.00  0.00    +0.018 A 
ENDROOT
BRANCH   1  10
ATOM      7  N   UNL     1       0.612   5.709  -6.850  0.00  0.00    -0.304 N 
ATOM      8  C   UNL     1       1.155   6.985  -6.373  0.00  0.00    +0.112 C 
ATOM      9  C   UNL     1       2.543   7.030  -7.006  0.00  0.00    +0.112 C 
ATOM     10  N   UNL     1       3.277   5.837  -6.590  0.00  0.00    -0.304 N 
ATOM     11  C   UNL     1       2.671   4.562  -6.964  0.00  0.00    +0.112 C 
ATOM     12  C   UNL     1       1.307   4.554  -6.282  0.00  0.00    +0.112 C 
BRANCH   7  16
ATOM     13  C   UNL     1       1.374   5.579 -10.902  0.00  0.00    +0.070 A 
ATOM     14  C   UNL     1       0.890   6.773 -10.394  0.00  0.00    +0.019 A 
ATOM     15  C   UNL     1       0.491   6.814  -9.063  0.00  0.00    +0.016 A 
ATOM     16  C   UNL     1       0.477   5.684  -8.278  0.00  0.00    +0.048 A 
ATOM     17  C   UNL     1       0.439   4.471  -8.956  0.00  0.00    +0.016 A 
ATOM     18  C   UNL     1       0.964   4.431 -10.236  0.00  0.00    +0.019 A 
BRANCH  13  22
ATOM     19  N   UNL     1       4.537   6.120 -12.246  0.00  0.00    -0.200 N 
ATOM     20  C   UNL     1       3.793   5.502 -11.297  0.00  0.00    +0.352 A 
ATOM     21  O   UNL     1       4.104   5.096 -10.161  0.00  0.00    -0.244 OA
ATOM     22  N   UNL     1       2.519   5.516 -11.759  0.00  0.00    -0.240 N 
ATOM     23  C   UNL     1       2.573   6.096 -12.968  0.00  0.00    +0.207 A 
ATOM     24  N   UNL     1       3.873   5.983 -13.337  0.00  0.00    -0.144 NA
BRANCH  19  25
ATOM     25  C   UNL     1       6.088   5.936 -12.045  0.00  0.00    +0.140 C 
BRANCH  25  26
ATOM     26  C   UNL     1       6.419   7.652 -11.842  0.00  0.00    +0.174 C 
ATOM     27  O   UNL     1       5.321   7.856 -10.794  0.00  0.00    -0.221 OA
ATOM     28  C   UNL     1       7.581   7.385 -10.674  0.00  0.00    +0.038 C 
ENDBRANCH  25  26
BRANCH  25  30
ATOM     29  C   UNL     1       7.580   5.269 -13.684  0.00  0.00    +0.002 C 
ATOM     30  C   UNL     1       6.483   5.980 -13.651  0.00  0.00    +0.027 C 
ENDBRANCH  25  30
ENDBRANCH  19  25
ENDBRANCH  13  22
ENDBRANCH   7  16
ENDBRANCH   1  10
BRANCH   4  31
ATOM     31  O   UNL     1       4.022   6.865  -1.377  0.00  0.00    -0.475 OA
BRANCH  31  32
ATOM     32  C   UNL     1       3.729   8.258  -1.428  0.00  0.00    +0.208 C 
BRANCH  32  33
ATOM     33  C   UNL     1       4.060   8.706   0.131  0.00  0.00    +0.076 C 
ATOM     34  C   UNL     1       2.897   7.694   0.733  0.00  0.00    +0.040 C 
ATOM     35  C   UNL     1       2.128   8.655   1.590  0.00  0.00    +0.136 C 
ATOM     36  O   UNL     1       2.747   9.908   1.451  0.00  0.00    -0.352 OA
ATOM     37  C   UNL     1       2.966   9.947   0.064  0.00  0.00    +0.146 C 
BRANCH  35  38
ATOM     38  C   UNL     1       0.722   8.847   1.142  0.00  0.00    +0.032 A 
ATOM     39  C   UNL     1      -0.111   9.628   1.935  0.00  0.00    +0.141 A 
ATOM     40  F   UNL     1       0.391  10.809   2.345  0.00  0.00    -0.204 F 
ATOM     41  C   UNL     1      -1.473   9.347   1.953  0.00  0.00    +0.059 A 
ATOM     42  C   UNL     1      -1.998   8.387   1.096  0.00  0.00    +0.142 A 
ATOM     43  F   UNL     1      -3.158   7.725   1.369  0.00  0.00    -0.204 F 
ATOM     44  C   UNL     1      -1.183   7.831   0.121  0.00  0.00    +0.030 A 
ATOM     45  C   UNL     1       0.197   7.961   0.218  0.00  0.00    +0.003 A 
ENDBRANCH  35  38
BRANCH  35  46
ATOM     46  C   UNL     1       2.204   8.198   3.037  0.00  0.00    +0.160 C 
BRANCH  46  47
ATOM     47  N   UNL     1       3.585   8.069   3.452  0.00  0.00    -0.227 N 
ATOM     48  N   UNL     1       4.335   6.977   3.341  0.00  0.00    -0.145 NA
ATOM     49  C   UNL     1       5.639   7.318   3.291  0.00  0.00    +0.221 A 
ATOM     50  N   UNL     1       5.673   8.641   3.575  0.00  0.00    -0.201 NA
ATOM     51  C   UNL     1       4.417   9.084   3.750  0.00  0.00    +0.197 A 
ENDBRANCH  46  47
ENDBRANCH  35  46
ENDBRANCH  32  33
ENDBRANCH  31  32
ENDBRANCH   4  31
TORSDOF 12
ENDMDL
MODEL 6
REMARK VINA RESULT:      -9.1      5.266     12.430
REMARK  Name = 
REMARK  12 active torsions:
REMARK  status: ('A' for Active; 'I' for Inactive)
REMARK    1  A    between atoms: C_2  and  C_3
REMARK    2  A    between atoms: C_3  and  C_4
REMARK    3  A    between atoms: C_3  and  N_7
REMARK    4  A    between atoms: N_10  and  C_11
REMARK    5  A    between atoms: C_14  and  N_15
REMARK    6  A    between atoms: N_18  and  C_19
REMARK    7  A    between atoms: C_22  and  O_23
REMARK    8  A    between atoms: O_23  and  C_24
REMARK    9  A    between atoms: C_24  and  C_25
REMARK   10  A    between atoms: C_28  and  C_29
REMARK   11  A    between atoms: C_28  and  C_35
REMARK   12  A    between atoms: C_29  and  N_30
REMARK                            x       y       z     vdW  Elec       q    Type
REMARK                         _______ _______ _______ _____ _____    ______ ____
ROOT
ATOM      1  C   UNL     1       4.573   7.165  -2.889  0.00  0.00    +0.048 A 
ATOM      2  C   UNL     1       4.510   7.732  -4.157  0.00  0.00    +0.018 A 
ATOM      3  C   UNL     1       4.217   6.893  -5.227  0.00  0.00    +0.038 A 
ATOM      4  C   UNL     1       4.142   5.521  -5.047  0.00  0.00    +0.139 A 
ATOM      5  C   UNL     1       4.704   5.024  -3.879  0.00  0.00    +0.038 A 
ATOM      6  C   UNL     1       5.103   5.880  -2.859  0.00  0.00    +0.018 A 
ENDROOT
BRANCH   1  10
ATOM      7  N   UNL     1       2.963   7.116   0.292  0.00  0.00    -0.304 N 
ATOM      8  C   UNL     1       4.177   6.333   0.042  0.00  0.00    +0.112 C 
ATOM      9  C   UNL     1       5.146   7.367  -0.526  0.00  0.00    +0.112 C 
ATOM     10  N   UNL     1       4.533   7.972  -1.706  0.00  0.00    -0.304 N 
ATOM     11  C   UNL     1       3.260   8.651  -1.475  0.00  0.00    +0.112 C 
ATOM     12  C   UNL     1       2.323   7.572  -0.943  0.00  0.00    +0.112 C 
BRANCH   7  16
ATOM     13  C   UNL     1       3.801  10.697   2.159  0.00  0.00    +0.070 A 
ATOM     14  C   UNL     1       4.720   9.675   2.325  0.00  0.00    +0.019 A 
ATOM     15  C   UNL     1       4.406   8.415   1.829  0.00  0.00    +0.016 A 
ATOM     16  C   UNL     1       3.179   8.144   1.269  0.00  0.00    +0.048 A 
ATOM     17  C   UNL     1       2.146   9.008   1.616  0.00  0.00    +0.016 A 
ATOM     18  C   UNL     1       2.482  10.300   1.982  0.00  0.00    +0.019 A 
BRANCH  13  22
ATOM     19  N   UNL     1       5.494  13.360   0.692  0.00  0.00    -0.200 N 
ATOM     20  C   UNL     1       4.615  12.341   0.531  0.00  0.00    +0.352 A 
ATOM     21  O   UNL     1       4.306  11.691  -0.486  0.00  0.00    -0.244 OA
ATOM     22  N   UNL     1       4.186  12.023   1.776  0.00  0.00    -0.240 N 
ATOM     23  C   UNL     1       4.792  12.888   2.606  0.00  0.00    +0.207 A 
ATOM     24  N   UNL     1       5.168  13.915   1.803  0.00  0.00    -0.144 NA
BRANCH  19  25
ATOM     25  C   UNL     1       5.873  14.079  -0.657  0.00  0.00    +0.140 C 
BRANCH  25  26
ATOM     26  C   UNL     1       7.481  14.559  -0.126  0.00  0.00    +0.174 C 
ATOM     27  O   UNL     1       8.024  13.127  -0.101  0.00  0.00    -0.221 OA
ATOM     28  C   UNL     1       8.021  14.811  -1.684  0.00  0.00    +0.038 C 
ENDBRANCH  25  26
BRANCH  25  30
ATOM     29  C   UNL     1       4.376  15.748  -1.232  0.00  0.00    +0.002 C 
ATOM     30  C   UNL     1       5.229  15.551  -0.261  0.00  0.00    +0.027 C 
ENDBRANCH  25  30
ENDBRANCH  19  25
ENDBRANCH  13  22
ENDBRANCH   7  16
ENDBRANCH   1  10
BRANCH   4  31
ATOM     31  O   UNL     1       3.255   4.728  -5.783  0.00  0.00    -0.475 OA
BRANCH  31  32
ATOM     32  C   UNL     1       2.767   5.314  -6.986  0.00  0.00    +0.208 C 
BRANCH  32  33
ATOM     33  C   UNL     1       4.108   5.213  -7.953  0.00  0.00    +0.076 C 
ATOM     34  C   UNL     1       3.675   6.569  -8.798  0.00  0.00    +0.040 C 
ATOM     35  C   UNL     1       3.754   6.042 -10.200  0.00  0.00    +0.136 C 
ATOM     36  O   UNL     1       4.129   4.692 -10.107  0.00  0.00    -0.352 OA
ATOM     37  C   UNL     1       3.313   4.259  -9.048  0.00  0.00    +0.146 C 
BRANCH  35  38
ATOM     38  C   UNL     1       2.443   6.049 -10.904  0.00  0.00    +0.032 A 
ATOM     39  C   UNL     1       2.452   6.013 -12.294  0.00  0.00    +0.141 A 
ATOM     40  F   UNL     1       3.258   5.094 -12.861  0.00  0.00    -0.204 F 
ATOM     41  C   UNL     1       1.414   6.627 -12.986  0.00  0.00    +0.059 A 
ATOM     42  C   UNL     1       0.330   7.152 -12.294  0.00  0.00    +0.142 A 
ATOM     43  F   UNL     1      -0.445   8.151 -12.804  0.00  0.00    -0.204 F 
ATOM     44  C   UNL     1       0.218   6.917 -10.931  0.00  0.00    +0.030 A 
ATOM     45  C   UNL     1       1.325   6.480 -10.213  0.00  0.00    +0.003 A 
ENDBRANCH  35  38
BRANCH  35  46
ATOM     46  C   UNL     1       4.811   6.822 -10.963  0.00  0.00    +0.160 C 
BRANCH  46  47
ATOM     47  N   UNL     1       6.019   6.034 -11.096  0.00  0.00    -0.227 N 
ATOM     48  N   UNL     1       6.395   5.357 -12.177  0.00  0.00    -0.145 NA
ATOM     49  C   UNL     1       7.736   5.210 -12.182  0.00  0.00    +0.221 A 
ATOM     50  N   UNL     1       8.148   5.644 -10.969  0.00  0.00    -0.201 NA
ATOM     51  C   UNL     1       7.083   6.078 -10.274  0.00  0.00    +0.197 A 
ENDBRANCH  46  47
ENDBRANCH  35  46
ENDBRANCH  32  33
ENDBRANCH  31  32
ENDBRANCH   4  31
TORSDOF 12
ENDMDL
MODEL 7
REMARK VINA RESULT:      -9.0      5.297     11.953
REMARK  Name = 
REMARK  12 active torsions:
REMARK  status: ('A' for Active; 'I' for Inactive)
REMARK    1  A    between atoms: C_2  and  C_3
REMARK    2  A    between atoms: C_3  and  C_4
REMARK    3  A    between atoms: C_3  and  N_7
REMARK    4  A    between atoms: N_10  and  C_11
REMARK    5  A    between atoms: C_14  and  N_15
REMARK    6  A    between atoms: N_18  and  C_19
REMARK    7  A    between atoms: C_22  and  O_23
REMARK    8  A    between atoms: O_23  and  C_24
REMARK    9  A    between atoms: C_24  and  C_25
REMARK   10  A    between atoms: C_28  and  C_29
REMARK   11  A    between atoms: C_28  and  C_35
REMARK   12  A    between atoms: C_29  and  N_30
REMARK                            x       y       z     vdW  Elec       q    Type
REMARK                         _______ _______ _______ _____ _____    ______ ____
ROOT
ATOM      1  C   UNL     1       3.401   7.301  -0.522  0.00  0.00    +0.048 A 
ATOM      2  C   UNL     1       4.330   6.271  -0.627  0.00  0.00    +0.018 A 
ATOM      3  C   UNL     1       4.196   5.386  -1.691  0.00  0.00    +0.038 A 
ATOM      4  C   UNL     1       3.090   5.445  -2.524  0.00  0.00    +0.139 A 
ATOM      5  C   UNL     1       2.000   6.162  -2.045  0.00  0.00    +0.038 A 
ATOM      6  C   UNL     1       2.111   6.955  -0.909  0.00  0.00    +0.018 A 
ENDROOT
BRANCH   1  10
ATOM      7  N   UNL     1       3.109   8.146   2.929  0.00  0.00    -0.304 N 
ATOM      8  C   UNL     1       4.277   7.420   2.420  0.00  0.00    +0.112 C 
ATOM      9  C   UNL     1       4.746   8.289   1.257  0.00  0.00    +0.112 C 
ATOM     10  N   UNL     1       3.637   8.438   0.317  0.00  0.00    -0.304 N 
ATOM     11  C   UNL     1       2.430   9.055   0.861  0.00  0.00    +0.112 C 
ATOM     12  C   UNL     1       1.986   8.134   1.992  0.00  0.00    +0.112 C 
BRANCH   7  16
ATOM     13  C   UNL     1       4.262  12.094   3.236  0.00  0.00    +0.070 A 
ATOM     14  C   UNL     1       5.156  11.143   3.701  0.00  0.00    +0.019 A 
ATOM     15  C   UNL     1       4.747   9.816   3.743  0.00  0.00    +0.016 A 
ATOM     16  C   UNL     1       3.460   9.445   3.427  0.00  0.00    +0.048 A 
ATOM     17  C   UNL     1       2.500  10.448   3.504  0.00  0.00    +0.016 A 
ATOM     18  C   UNL     1       2.919  11.755   3.328  0.00  0.00    +0.019 A 
BRANCH  13  22
ATOM     19  N   UNL     1       5.959  13.925   0.811  0.00  0.00    -0.200 N 
ATOM     20  C   UNL     1       5.067  12.940   1.079  0.00  0.00    +0.352 A 
ATOM     21  O   UNL     1       4.736  11.943   0.409  0.00  0.00    -0.244 OA
ATOM     22  N   UNL     1       4.655  13.151   2.352  0.00  0.00    -0.240 N 
ATOM     23  C   UNL     1       5.282  14.265   2.761  0.00  0.00    +0.207 A 
ATOM     24  N   UNL     1       5.656  14.881   1.612  0.00  0.00    -0.144 NA
BRANCH  19  25
ATOM     25  C   UNL     1       6.324  14.041  -0.716  0.00  0.00    +0.140 C 
BRANCH  25  26
ATOM     26  C   UNL     1       8.018  14.428  -0.438  0.00  0.00    +0.174 C 
ATOM     27  O   UNL     1       8.380  13.017   0.037  0.00  0.00    -0.221 OA
ATOM     28  C   UNL     1       8.452  14.084  -2.012  0.00  0.00    +0.038 C 
ENDBRANCH  25  26
BRANCH  25  30
ATOM     29  C   UNL     1       4.854  15.573  -1.638  0.00  0.00    +0.002 C 
ATOM     30  C   UNL     1       5.916  15.636  -0.877  0.00  0.00    +0.027 C 
ENDBRANCH  25  30
ENDBRANCH  19  25
ENDBRANCH  13  22
ENDBRANCH   7  16
ENDBRANCH   1  10
BRANCH   4  31
ATOM     31  O   UNL     1       3.173   5.136  -3.886  0.00  0.00    -0.475 OA
BRANCH  31  32
ATOM     32  C   UNL     1       3.848   6.098  -4.690  0.00  0.00    +0.208 C 
BRANCH  32  33
ATOM     33  C   UNL     1       3.591   5.478  -6.204  0.00  0.00    +0.076 C 
ATOM     34  C   UNL     1       2.511   6.677  -6.576  0.00  0.00    +0.040 C 
ATOM     35  C   UNL     1       1.349   5.850  -7.040  0.00  0.00    +0.136 C 
ATOM     36  O   UNL     1       1.733   4.504  -6.918  0.00  0.00    -0.352 OA
ATOM     37  C   UNL     1       2.358   4.517  -5.660  0.00  0.00    +0.146 C 
BRANCH  35  38
ATOM     38  C   UNL     1       0.140   6.004  -6.186  0.00  0.00    +0.032 A 
ATOM     39  C   UNL     1      -1.062   5.496  -6.664  0.00  0.00    +0.141 A 
ATOM     40  F   UNL     1      -1.024   4.244  -7.161  0.00  0.00    -0.204 F 
ATOM     41  C   UNL     1      -2.248   6.115  -6.284  0.00  0.00    +0.059 A 
ATOM     42  C   UNL     1      -2.230   7.140  -5.347  0.00  0.00    +0.142 A 
ATOM     43  F   UNL     1      -3.209   8.086  -5.285  0.00  0.00    -0.204 F 
ATOM     44  C   UNL     1      -1.048   7.428  -4.680  0.00  0.00    +0.030 A 
ATOM     45  C   UNL     1       0.160   6.955  -5.181  0.00  0.00    +0.003 A 
ENDBRANCH  35  38
BRANCH  35  46
ATOM     46  C   UNL     1       1.059   6.175  -8.496  0.00  0.00    +0.160 C 
BRANCH  46  47
ATOM     47  N   UNL     1       2.252   6.003  -9.297  0.00  0.00    -0.227 N 
ATOM     48  N   UNL     1       3.199   6.916  -9.494  0.00  0.00    -0.145 NA
ATOM     49  C   UNL     1       4.366   6.310  -9.791  0.00  0.00    +0.221 A 
ATOM     50  N   UNL     1       4.057   5.004  -9.965  0.00  0.00    -0.201 NA
ATOM     51  C   UNL     1       2.744   4.831  -9.736  0.00  0.00    +0.197 A 
ENDBRANCH  46  47
ENDBRANCH  35  46
ENDBRANCH  32  33
ENDBRANCH  31  32
ENDBRANCH   4  31
TORSDOF 12
ENDMDL
MODEL 8
REMARK VINA RESULT:      -8.8      3.823      7.996
REMARK  Name = 
REMARK  12 active torsions:
REMARK  status: ('A' for Active; 'I' for Inactive)
REMARK    1  A    between atoms: C_2  and  C_3
REMARK    2  A    between atoms: C_3  and  C_4
REMARK    3  A    between atoms: C_3  and  N_7
REMARK    4  A    between atoms: N_10  and  C_11
REMARK    5  A    between atoms: C_14  and  N_15
REMARK    6  A    between atoms: N_18  and  C_19
REMARK    7  A    between atoms: C_22  and  O_23
REMARK    8  A    between atoms: O_23  and  C_24
REMARK    9  A    between atoms: C_24  and  C_25
REMARK   10  A    between atoms: C_28  and  C_29
REMARK   11  A    between atoms: C_28  and  C_35
REMARK   12  A    between atoms: C_29  and  N_30
REMARK                            x       y       z     vdW  Elec       q    Type
REMARK                         _______ _______ _______ _____ _____    ______ ____
ROOT
ATOM      1  C   UNL     1       1.081   7.473 -14.300  0.00  0.00    +0.048 A 
ATOM      2  C   UNL     1       0.080   6.967 -13.478  0.00  0.00    +0.018 A 
ATOM      3  C   UNL     1       0.468   6.209 -12.379  0.00  0.00    +0.038 A 
ATOM      4  C   UNL     1       1.795   5.849 -12.202  0.00  0.00    +0.139 A 
ATOM      5  C   UNL     1       2.616   5.971 -13.315  0.00  0.00    +0.038 A 
ATOM      6  C   UNL     1       2.177   6.632 -14.457  0.00  0.00    +0.018 A 
ENDROOT
BRANCH   1  10
ATOM      7  N   UNL     1       1.287   7.979 -17.823  0.00  0.00    -0.304 N 
ATOM      8  C   UNL     1       0.137   7.300 -17.218  0.00  0.00    +0.112 C 
ATOM      9  C   UNL     1      -0.312   8.277 -16.134  0.00  0.00    +0.112 C 
ATOM     10  N   UNL     1       0.818   8.521 -15.240  0.00  0.00    -0.304 N 
ATOM     11  C   UNL     1       2.008   9.089 -15.870  0.00  0.00    +0.112 C 
ATOM     12  C   UNL     1       2.433   8.063 -16.916  0.00  0.00    +0.112 C 
BRANCH   7  16
ATOM     13  C   UNL     1       0.190  11.899 -18.487  0.00  0.00    +0.070 A 
ATOM     14  C   UNL     1      -0.763  10.929 -18.750  0.00  0.00    +0.019 A 
ATOM     15  C   UNL     1      -0.387   9.593 -18.672  0.00  0.00    +0.016 A 
ATOM     16  C   UNL     1       0.916   9.221 -18.437  0.00  0.00    +0.048 A 
ATOM     17  C   UNL     1       1.884  10.178 -18.722  0.00  0.00    +0.016 A 
ATOM     18  C   UNL     1       1.511  11.509 -18.664  0.00  0.00    +0.019 A 
BRANCH  13  22
ATOM     19  N   UNL     1      -1.255  14.064 -16.178  0.00  0.00    -0.200 N 
ATOM     20  C   UNL     1      -0.428  13.011 -16.390  0.00  0.00    +0.352 A 
ATOM     21  O   UNL     1      -0.098  12.075 -15.637  0.00  0.00    -0.244 OA
ATOM     22  N   UNL     1      -0.094  13.063 -17.702  0.00  0.00    -0.240 N 
ATOM     23  C   UNL     1      -0.696  14.158 -18.192  0.00  0.00    +0.207 A 
ATOM     24  N   UNL     1      -0.963  14.912 -17.096  0.00  0.00    -0.144 NA
BRANCH  19  25
ATOM     25  C   UNL     1      -1.511  14.361 -14.653  0.00  0.00    +0.140 C 
BRANCH  25  26
ATOM     26  C   UNL     1      -3.219  14.733 -14.855  0.00  0.00    +0.174 C 
ATOM     27  O   UNL     1      -3.614  13.285 -15.161  0.00  0.00    -0.221 OA
ATOM     28  C   UNL     1      -3.546  14.552 -13.229  0.00  0.00    +0.038 C 
ENDBRANCH  25  26
BRANCH  25  30
ATOM     29  C   UNL     1      -0.186  16.038 -13.764  0.00  0.00    +0.002 C 
ATOM     30  C   UNL     1      -1.086  15.959 -14.709  0.00  0.00    +0.027 C 
ENDBRANCH  25  30
ENDBRANCH  19  25
ENDBRANCH  13  22
ENDBRANCH   7  16
ENDBRANCH   1  10
BRANCH   4  31
ATOM     31  O   UNL     1       2.363   5.726 -10.930  0.00  0.00    -0.475 OA
BRANCH  31  32
ATOM     32  C   UNL     1       1.728   6.480  -9.902  0.00  0.00    +0.208 C 
BRANCH  32  33
ATOM     33  C   UNL     1       2.723   6.163  -8.617  0.00  0.00    +0.076 C 
ATOM     34  C   UNL     1       1.690   5.013  -8.024  0.00  0.00    +0.040 C 
ATOM     35  C   UNL     1       1.542   5.495  -6.612  0.00  0.00    +0.136 C 
ATOM     36  O   UNL     1       2.317   6.661  -6.496  0.00  0.00    -0.352 OA
ATOM     37  C   UNL     1       1.988   7.321  -7.692  0.00  0.00    +0.146 C 
BRANCH  35  38
ATOM     38  C   UNL     1       0.151   5.901  -6.273  0.00  0.00    +0.032 A 
ATOM     39  C   UNL     1      -0.092   6.380  -4.990  0.00  0.00    +0.141 A 
ATOM     40  F   UNL     1       0.768   7.308  -4.529  0.00  0.00    -0.204 F 
ATOM     41  C   UNL     1      -1.346   6.174  -4.426  0.00  0.00    +0.059 A 
ATOM     42  C   UNL     1      -2.367   5.615  -5.183  0.00  0.00    +0.142 A 
ATOM     43  F   UNL     1      -3.415   4.953  -4.614  0.00  0.00    -0.204 F 
ATOM     44  C   UNL     1      -2.172   5.412  -6.541  0.00  0.00    +0.030 A 
ATOM     45  C   UNL     1      -0.884   5.434  -7.064  0.00  0.00    +0.003 A 
ENDBRANCH  35  38
BRANCH  35  46
ATOM     46  C   UNL     1       2.067   4.429  -5.666  0.00  0.00    +0.160 C 
BRANCH  46  47
ATOM     47  N   UNL     1       3.124   4.968  -4.836  0.00  0.00    -0.227 N 
ATOM     48  N   UNL     1       3.021   5.287  -3.550  0.00  0.00    -0.145 NA
ATOM     49  C   UNL     1       4.234   5.227  -2.964  0.00  0.00    +0.221 A 
ATOM     50  N   UNL     1       5.113   5.055  -3.978  0.00  0.00    -0.201 NA
ATOM     51  C   UNL     1       4.436   4.973  -5.135  0.00  0.00    +0.197 A 
ENDBRANCH  46  47
ENDBRANCH  35  46
ENDBRANCH  32  33
ENDBRANCH  31  32
ENDBRANCH   4  31
TORSDOF 12
ENDMDL
MODEL 9
REMARK VINA RESULT:      -8.7      3.812      5.422
REMARK  Name = 
REMARK  12 active torsions:
REMARK  status: ('A' for Active; 'I' for Inactive)
REMARK    1  A    between atoms: C_2  and  C_3
REMARK    2  A    between atoms: C_3  and  C_4
REMARK    3  A    between atoms: C_3  and  N_7
REMARK    4  A    between atoms: N_10  and  C_11
REMARK    5  A    between atoms: C_14  and  N_15
REMARK    6  A    between atoms: N_18  and  C_19
REMARK    7  A    between atoms: C_22  and  O_23
REMARK    8  A    between atoms: O_23  and  C_24
REMARK    9  A    between atoms: C_24  and  C_25
REMARK   10  A    between atoms: C_28  and  C_29
REMARK   11  A    between atoms: C_28  and  C_35
REMARK   12  A    between atoms: C_29  and  N_30
REMARK                            x       y       z     vdW  Elec       q    Type
REMARK                         _______ _______ _______ _____ _____    ______ ____
ROOT
ATOM      1  C   UNL     1       3.988   6.101  -5.457  0.00  0.00    +0.048 A 
ATOM      2  C   UNL     1       4.565   4.985  -4.859  0.00  0.00    +0.018 A 
ATOM      3  C   UNL     1       4.788   5.031  -3.487  0.00  0.00    +0.038 A 
ATOM      4  C   UNL     1       4.581   6.202  -2.776  0.00  0.00    +0.139 A 
ATOM      5  C   UNL     1       4.493   7.367  -3.528  0.00  0.00    +0.038 A 
ATOM      6  C   UNL     1       4.387   7.316  -4.913  0.00  0.00    +0.018 A 
ENDROOT
BRANCH   1  10
ATOM      7  N   UNL     1       0.762   5.689  -6.918  0.00  0.00    -0.304 N 
ATOM      8  C   UNL     1       1.219   6.997  -6.440  0.00  0.00    +0.112 C 
ATOM      9  C   UNL     1       2.570   7.167  -7.131  0.00  0.00    +0.112 C 
ATOM     10  N   UNL     1       3.417   6.033  -6.769  0.00  0.00    -0.304 N 
ATOM     11  C   UNL     1       2.901   4.718  -7.142  0.00  0.00    +0.112 C 
ATOM     12  C   UNL     1       1.574   4.586  -6.402  0.00  0.00    +0.112 C 
BRANCH   7  16
ATOM     13  C   UNL     1       1.353   5.593 -10.999  0.00  0.00    +0.070 A 
ATOM     14  C   UNL     1       0.890   6.782 -10.462  0.00  0.00    +0.019 A 
ATOM     15  C   UNL     1       0.547   6.811  -9.115  0.00  0.00    +0.016 A 
ATOM     16  C   UNL     1       0.567   5.675  -8.340  0.00  0.00    +0.048 A 
ATOM     17  C   UNL     1       0.502   4.467  -9.025  0.00  0.00    +0.016 A 
ATOM     18  C   UNL     1       0.973   4.439 -10.326  0.00  0.00    +0.019 A 
BRANCH  13  22
ATOM     19  N   UNL     1       4.452   6.159 -12.478  0.00  0.00    -0.200 N 
ATOM     20  C   UNL     1       3.754   5.536 -11.497  0.00  0.00    +0.352 A 
ATOM     21  O   UNL     1       4.116   5.134 -10.375  0.00  0.00    -0.244 OA
ATOM     22  N   UNL     1       2.462   5.538 -11.905  0.00  0.00    -0.240 N 
ATOM     23  C   UNL     1       2.459   6.117 -13.116  0.00  0.00    +0.207 A 
ATOM     24  N   UNL     1       3.743   6.014 -13.540  0.00  0.00    -0.144 NA
BRANCH  19  25
ATOM     25  C   UNL     1       6.011   5.989 -12.342  0.00  0.00    +0.140 C 
BRANCH  25  26
ATOM     26  C   UNL     1       6.313   7.675 -11.938  0.00  0.00    +0.174 C 
ATOM     27  O   UNL     1       5.248   7.720 -10.838  0.00  0.00    -0.221 OA
ATOM     28  C   UNL     1       7.520   7.294 -10.850  0.00  0.00    +0.038 C 
ENDBRANCH  25  26
BRANCH  25  30
ATOM     29  C   UNL     1       7.300   5.359 -14.159  0.00  0.00    +0.002 C 
ATOM     30  C   UNL     1       6.358   6.239 -13.941  0.00  0.00    +0.027 C 
ENDBRANCH  25  30
ENDBRANCH  19  25
ENDBRANCH  13  22
ENDBRANCH   7  16
ENDBRANCH   1  10
BRANCH   4  31
ATOM     31  O   UNL     1       4.126   6.193  -1.454  0.00  0.00    -0.475 OA
BRANCH  31  32
ATOM     32  C   UNL     1       4.228   7.435  -0.764  0.00  0.00    +0.208 C 
BRANCH  32  33
ATOM     33  C   UNL     1       2.757   7.495  -0.005  0.00  0.00    +0.076 C 
ATOM     34  C   UNL     1       2.603   9.117  -0.301  0.00  0.00    +0.040 C 
ATOM     35  C   UNL     1       2.309   9.611   1.084  0.00  0.00    +0.136 C 
ATOM     36  O   UNL     1       2.326   8.489   1.929  0.00  0.00    -0.352 OA
ATOM     37  C   UNL     1       3.465   7.815   1.457  0.00  0.00    +0.146 C 
BRANCH  35  38
ATOM     38  C   UNL     1       3.354  10.529   1.614  0.00  0.00    +0.032 A 
ATOM     39  C   UNL     1       3.035  11.305   2.723  0.00  0.00    +0.141 A 
ATOM     40  F   UNL     1       2.445  10.662   3.749  0.00  0.00    -0.204 F 
ATOM     41  C   UNL     1       3.643  12.547   2.868  0.00  0.00    +0.059 A 
ATOM     42  C   UNL     1       4.641  12.942   1.985  0.00  0.00    +0.142 A 
ATOM     43  F   UNL     1       4.928  14.254   1.752  0.00  0.00    -0.204 F 
ATOM     44  C   UNL     1       5.131  12.028   1.064  0.00  0.00    +0.030 A 
ATOM     45  C   UNL     1       4.412  10.870   0.790  0.00  0.00    +0.003 A 
ENDBRANCH  35  38
BRANCH  35  46
ATOM     46  C   UNL     1       0.931  10.251   1.100  0.00  0.00    +0.160 C 
BRANCH  46  47
ATOM     47  N   UNL     1      -0.073   9.273   1.466  0.00  0.00    -0.227 N 
ATOM     48  N   UNL     1      -0.749   8.496   0.625  0.00  0.00    -0.145 NA
ATOM     49  C   UNL     1      -1.160   7.380   1.260  0.00  0.00    +0.221 A 
ATOM     50  N   UNL     1      -0.885   7.592   2.568  0.00  0.00    -0.201 NA
ATOM     51  C   UNL     1      -0.287   8.788   2.702  0.00  0.00    +0.197 A 
ENDBRANCH  46  47
ENDBRANCH  35  46
ENDBRANCH  32  33
ENDBRANCH  31  32
ENDBRANCH   4  31
TORSDOF 12
ENDMDL
