MODEL 1
REMARK VINA RESULT:      -6.5      0.000      0.000
REMARK  Name = 
REMARK  2 active torsions:
REMARK  status: ('A' for Active; 'I' for Inactive)
REMARK    1  A    between atoms: N_4  and  C_5
REMARK    2  A    between atoms: C_8  and  C_9
REMARK                            x       y       z     vdW  Elec       q    Type
REMARK                         _______ _______ _______ _____ _____    ______ ____
ROOT
ATOM      1  C   UNL     1      -2.280   7.281  -1.998  0.00  0.00    +0.038 C 
ATOM      2  C   UNL     1      -2.245   6.811  -3.331  0.00  0.00    +0.053 A 
ATOM      3  C   UNL     1      -2.813   5.550  -3.547  0.00  0.00    +0.280 A 
ATOM      4  O   UNL     1      -2.644   4.671  -2.636  0.00  0.00    -0.265 OA
ATOM      5  N   UNL     1      -2.838   5.205  -4.863  0.00  0.00    -0.153 NA
ATOM      6  C   UNL     1      -1.984   5.751  -5.770  0.00  0.00    +0.355 A 
ATOM      7  O   UNL     1      -1.654   5.072  -6.793  0.00  0.00    -0.244 OA
ATOM      8  N   UNL     1      -1.038   6.671  -5.427  0.00  0.00    -0.252 N 
ATOM      9  C   UNL     1      -1.364   7.330  -4.286  0.00  0.00    +0.083 A 
ENDROOT
BRANCH   8  10
ATOM     10  C   UNL     1       0.417   5.991  -5.388  0.00  0.00    +0.232 C 
ATOM     11  O   UNL     1       1.005   6.987  -4.372  0.00  0.00    -0.327 OA
ATOM     12  C   UNL     1       2.223   6.131  -4.747  0.00  0.00    +0.172 C 
ATOM     13  C   UNL     1       2.301   6.917  -6.176  0.00  0.00    +0.005 C 
ATOM     14  C   UNL     1       1.023   6.919  -6.593  0.00  0.00    +0.025 C 
BRANCH  12  15
ATOM     15  C   UNL     1       3.290   7.150  -3.998  0.00  0.00    +0.216 C 
ATOM     16  O   UNL     1       4.029   7.534  -5.132  0.00  0.00    -0.217 OA
ENDBRANCH  12  15
ENDBRANCH   8  10
TORSDOF 2
ENDMDL
MODEL 2
REMARK VINA RESULT:      -6.2      1.903      4.960
REMARK  Name = 
REMARK  2 active torsions:
REMARK  status: ('A' for Active; 'I' for Inactive)
REMARK    1  A    between atoms: N_4  and  C_5
REMARK    2  A    between atoms: C_8  and  C_9
REMARK                            x       y       z     vdW  Elec       q    Type
REMARK                         _______ _______ _______ _____ _____    ______ ____
ROOT
ATOM      1  C   UNL     1       3.615   5.010  -3.226  0.00  0.00    +0.038 C 
ATOM      2  C   UNL     1       3.208   5.596  -4.446  0.00  0.00    +0.053 A 
ATOM      3  C   UNL     1       3.717   6.875  -4.706  0.00  0.00    +0.280 A 
ATOM      4  O   UNL     1       3.836   7.668  -3.712  0.00  0.00    -0.265 OA
ATOM      5  N   UNL     1       3.371   7.336  -5.939  0.00  0.00    -0.153 NA
ATOM      6  C   UNL     1       2.282   6.868  -6.605  0.00  0.00    +0.355 A 
ATOM      7  O   UNL     1       1.686   7.635  -7.427  0.00  0.00    -0.244 OA
ATOM      8  N   UNL     1       1.455   5.917  -6.086  0.00  0.00    -0.252 N 
ATOM      9  C   UNL     1       2.080   5.161  -5.148  0.00  0.00    +0.083 A 
ENDROOT
BRANCH   8  10
ATOM     10  C   UNL     1       0.087   6.584  -5.572  0.00  0.00    +0.232 C 
ATOM     11  O   UNL     1      -0.142   5.567  -4.438  0.00  0.00    -0.327 OA
ATOM     12  C   UNL     1      -1.418   6.418  -4.389  0.00  0.00    +0.172 C 
ATOM     13  C   UNL     1      -1.948   5.654  -5.730  0.00  0.00    +0.005 C 
ATOM     14  C   UNL     1      -0.870   5.669  -6.535  0.00  0.00    +0.025 C 
BRANCH  12  15
ATOM     15  C   UNL     1      -2.186   5.378  -3.355  0.00  0.00    +0.216 C 
ATOM     16  O   UNL     1      -1.078   5.034  -2.559  0.00  0.00    -0.217 OA
ENDBRANCH  12  15
ENDBRANCH   8  10
TORSDOF 2
ENDMDL
MODEL 3
REMARK VINA RESULT:      -6.1      2.127      3.115
REMARK  Name = 
REMARK  2 active torsions:
REMARK  status: ('A' for Active; 'I' for Inactive)
REMARK    1  A    between atoms: N_4  and  C_5
REMARK    2  A    between atoms: C_8  and  C_9
REMARK                            x       y       z     vdW  Elec       q    Type
REMARK                         _______ _______ _______ _____ _____    ______ ____
ROOT
ATOM      1  C   UNL     1      -2.291   6.105  -6.348  0.00  0.00    +0.038 C 
ATOM      2  C   UNL     1      -1.486   5.918  -5.202  0.00  0.00    +0.053 A 
ATOM      3  C   UNL     1      -1.712   6.811  -4.146  0.00  0.00    +0.280 A 
ATOM      4  O   UNL     1      -1.980   8.020  -4.455  0.00  0.00    -0.265 OA
ATOM      5  N   UNL     1      -0.979   6.510  -3.040  0.00  0.00    -0.153 NA
ATOM      6  C   UNL     1       0.170   5.786  -3.110  0.00  0.00    +0.355 A 
ATOM      7  O   UNL     1       1.073   5.978  -2.234  0.00  0.00    -0.244 OA
ATOM      8  N   UNL     1       0.675   5.321  -4.287  0.00  0.00    -0.252 N 
ATOM      9  C   UNL     1      -0.286   5.202  -5.238  0.00  0.00    +0.083 A 
ENDROOT
BRANCH   8  10
ATOM     10  C   UNL     1       1.934   6.207  -4.747  0.00  0.00    +0.232 C 
ATOM     11  O   UNL     1       1.448   6.390  -6.197  0.00  0.00    -0.327 OA
ATOM     12  C   UNL     1       2.835   7.048  -6.221  0.00  0.00    +0.172 C 
ATOM     13  C   UNL     1       3.510   5.562  -6.205  0.00  0.00    +0.005 C 
ATOM     14  C   UNL     1       2.819   4.923  -5.245  0.00  0.00    +0.025 C 
BRANCH  12  15
ATOM     15  C   UNL     1       2.855   7.165  -7.872  0.00  0.00    +0.216 C 
ATOM     16  O   UNL     1       2.144   8.373  -7.995  0.00  0.00    -0.217 OA
ENDBRANCH  12  15
ENDBRANCH   8  10
TORSDOF 2
ENDMDL
MODEL 4
REMARK VINA RESULT:      -6.0      5.540      7.434
REMARK  Name = 
REMARK  2 active torsions:
REMARK  status: ('A' for Active; 'I' for Inactive)
REMARK    1  A    between atoms: N_4  and  C_5
REMARK    2  A    between atoms: C_8  and  C_9
REMARK                            x       y       z     vdW  Elec       q    Type
REMARK                         _______ _______ _______ _____ _____    ______ ____
ROOT
ATOM      1  C   UNL     1       0.437   4.651 -12.221  0.00  0.00    +0.038 C 
ATOM      2  C   UNL     1       0.836   5.373 -11.073  0.00  0.00    +0.053 A 
ATOM      3  C   UNL     1       0.265   6.643 -10.923  0.00  0.00    +0.280 A 
ATOM      4  O   UNL     1       0.083   7.329 -11.985  0.00  0.00    -0.265 OA
ATOM      5  N   UNL     1       0.611   7.238  -9.750  0.00  0.00    -0.153 NA
ATOM      6  C   UNL     1       1.738   6.894  -9.070  0.00  0.00    +0.355 A 
ATOM      7  O   UNL     1       2.308   7.766  -8.342  0.00  0.00    -0.244 OA
ATOM      8  N   UNL     1       2.604   5.941  -9.518  0.00  0.00    -0.252 N 
ATOM      9  C   UNL     1       2.000   5.066 -10.362  0.00  0.00    +0.083 A 
ENDROOT
BRANCH   8  10
ATOM     10  C   UNL     1       3.923   6.624 -10.128  0.00  0.00    +0.232 C 
ATOM     11  O   UNL     1       4.147   5.547 -11.206  0.00  0.00    -0.327 OA
ATOM     12  C   UNL     1       5.386   6.440 -11.361  0.00  0.00    +0.172 C 
ATOM     13  C   UNL     1       5.998   5.783  -9.998  0.00  0.00    +0.005 C 
ATOM     14  C   UNL     1       4.952   5.809  -9.151  0.00  0.00    +0.025 C 
BRANCH  12  15
ATOM     15  C   UNL     1       6.153   5.366 -12.360  0.00  0.00    +0.216 C 
ATOM     16  O   UNL     1       5.014   4.836 -12.994  0.00  0.00    -0.217 OA
ENDBRANCH  12  15
ENDBRANCH   8  10
TORSDOF 2
ENDMDL
MODEL 5
REMARK VINA RESULT:      -5.8      3.954      5.450
REMARK  Name = 
REMARK  2 active torsions:
REMARK  status: ('A' for Active; 'I' for Inactive)
REMARK    1  A    between atoms: N_4  and  C_5
REMARK    2  A    between atoms: C_8  and  C_9
REMARK                            x       y       z     vdW  Elec       q    Type
REMARK                         _______ _______ _______ _____ _____    ______ ____
ROOT
ATOM      1  C   UNL     1       5.214   7.525  -4.465  0.00  0.00    +0.038 C 
ATOM      2  C   UNL     1       4.091   6.737  -4.806  0.00  0.00    +0.053 A 
ATOM      3  C   UNL     1       4.021   5.479  -4.194  0.00  0.00    +0.280 A 
ATOM      4  O   UNL     1       5.121   4.851  -4.027  0.00  0.00    -0.265 OA
ATOM      5  N   UNL     1       2.869   4.818  -4.485  0.00  0.00    -0.153 NA
ATOM      6  C   UNL     1       2.139   5.094  -5.599  0.00  0.00    +0.355 A 
ATOM      7  O   UNL     1       1.436   4.171  -6.120  0.00  0.00    -0.244 OA
ATOM      8  N   UNL     1       2.512   6.041  -6.506  0.00  0.00    -0.252 N 
ATOM      9  C   UNL     1       3.331   6.973  -5.955  0.00  0.00    +0.083 A 
ENDROOT
BRANCH   8  10
ATOM     10  C   UNL     1       3.115   5.348  -7.824  0.00  0.00    +0.232 C 
ATOM     11  O   UNL     1       4.576   5.727  -7.519  0.00  0.00    -0.327 OA
ATOM     12  C   UNL     1       4.678   5.083  -8.909  0.00  0.00    +0.172 C 
ATOM     13  C   UNL     1       4.036   6.438  -9.555  0.00  0.00    +0.005 C 
ATOM     14  C   UNL     1       2.996   6.698  -8.742  0.00  0.00    +0.025 C 
BRANCH  12  15
ATOM     15  C   UNL     1       6.241   5.581  -9.130  0.00  0.00    +0.216 C 
ATOM     16  O   UNL     1       6.247   5.598 -10.537  0.00  0.00    -0.217 OA
ENDBRANCH  12  15
ENDBRANCH   8  10
TORSDOF 2
ENDMDL
MODEL 6
REMARK VINA RESULT:      -5.8      4.620      7.088
REMARK  Name = 
REMARK  2 active torsions:
REMARK  status: ('A' for Active; 'I' for Inactive)
REMARK    1  A    between atoms: N_4  and  C_5
REMARK    2  A    between atoms: C_8  and  C_9
REMARK                            x       y       z     vdW  Elec       q    Type
REMARK                         _______ _______ _______ _____ _____    ______ ____
ROOT
ATOM      1  C   UNL     1       7.278   6.132  -9.432  0.00  0.00    +0.038 C 
ATOM      2  C   UNL     1       5.973   5.589  -9.480  0.00  0.00    +0.053 A 
ATOM      3  C   UNL     1       5.175   6.016 -10.549  0.00  0.00    +0.280 A 
ATOM      4  O   UNL     1       5.292   7.234 -10.913  0.00  0.00    -0.265 OA
ATOM      5  N   UNL     1       3.974   5.379 -10.593  0.00  0.00    -0.153 NA
ATOM      6  C   UNL     1       3.419   4.807  -9.491  0.00  0.00    +0.355 A 
ATOM      7  O   UNL     1       2.152   4.722  -9.413  0.00  0.00    -0.244 OA
ATOM      8  N   UNL     1       4.016   4.839  -8.267  0.00  0.00    -0.252 N 
ATOM      9  C   UNL     1       5.358   5.015  -8.363  0.00  0.00    +0.083 A 
ENDROOT
BRANCH   8  10
ATOM     10  C   UNL     1       3.290   5.912  -7.317  0.00  0.00    +0.232 C 
ATOM     11  O   UNL     1       4.553   6.249  -6.502  0.00  0.00    -0.327 OA
ATOM     12  C   UNL     1       3.461   7.047  -5.776  0.00  0.00    +0.172 C 
ATOM     13  C   UNL     1       2.916   5.655  -5.121  0.00  0.00    +0.005 C 
ATOM     14  C   UNL     1       2.887   4.815  -6.170  0.00  0.00    +0.025 C 
BRANCH  12  15
ATOM     15  C   UNL     1       4.442   7.402  -4.491  0.00  0.00    +0.216 C 
ATOM     16  O   UNL     1       3.505   7.197  -3.462  0.00  0.00    -0.217 OA
ENDBRANCH  12  15
ENDBRANCH   8  10
TORSDOF 2
ENDMDL
MODEL 7
REMARK VINA RESULT:      -5.8      1.555      1.825
REMARK  Name = 
REMARK  2 active torsions:
REMARK  status: ('A' for Active; 'I' for Inactive)
REMARK    1  A    between atoms: N_4  and  C_5
REMARK    2  A    between atoms: C_8  and  C_9
REMARK                            x       y       z     vdW  Elec       q    Type
REMARK                         _______ _______ _______ _____ _____    ______ ____
ROOT
ATOM      1  C   UNL     1      -2.682   7.090  -1.980  0.00  0.00    +0.038 C 
ATOM      2  C   UNL     1      -2.229   6.693  -3.258  0.00  0.00    +0.053 A 
ATOM      3  C   UNL     1      -2.796   5.517  -3.767  0.00  0.00    +0.280 A 
ATOM      4  O   UNL     1      -3.031   4.577  -2.935  0.00  0.00    -0.265 OA
ATOM      5  N   UNL     1      -2.394   5.250  -5.039  0.00  0.00    -0.153 NA
ATOM      6  C   UNL     1      -1.234   5.744  -5.549  0.00  0.00    +0.355 A 
ATOM      7  O   UNL     1      -0.632   5.087  -6.457  0.00  0.00    -0.244 OA
ATOM      8  N   UNL     1      -0.389   6.530  -4.825  0.00  0.00    -0.252 N 
ATOM      9  C   UNL     1      -1.030   7.159  -3.807  0.00  0.00    +0.083 A 
ENDROOT
BRANCH   8  10
ATOM     10  C   UNL     1       0.897   5.689  -4.358  0.00  0.00    +0.232 C 
ATOM     11  O   UNL     1       0.990   6.344  -2.967  0.00  0.00    -0.327 OA
ATOM     12  C   UNL     1       2.242   5.457  -3.005  0.00  0.00    +0.172 C 
ATOM     13  C   UNL     1       2.944   6.536  -4.009  0.00  0.00    +0.005 C 
ATOM     14  C   UNL     1       1.976   6.789  -4.908  0.00  0.00    +0.025 C 
BRANCH  12  15
ATOM     15  C   UNL     1       2.882   6.139  -1.639  0.00  0.00    +0.216 C 
ATOM     16  O   UNL     1       2.823   5.007  -0.805  0.00  0.00    -0.217 OA
ENDBRANCH  12  15
ENDBRANCH   8  10
TORSDOF 2
ENDMDL
MODEL 8
REMARK VINA RESULT:      -5.8      5.890      7.406
REMARK  Name = 
REMARK  2 active torsions:
REMARK  status: ('A' for Active; 'I' for Inactive)
REMARK    1  A    between atoms: N_4  and  C_5
REMARK    2  A    between atoms: C_8  and  C_9
REMARK                            x       y       z     vdW  Elec       q    Type
REMARK                         _______ _______ _______ _____ _____    ______ ____
ROOT
ATOM      1  C   UNL     1       3.926   5.520  -7.112  0.00  0.00    +0.038 C 
ATOM      2  C   UNL     1       3.398   5.787  -8.396  0.00  0.00    +0.053 A 
ATOM      3  C   UNL     1       2.638   4.758  -8.968  0.00  0.00    +0.280 A 
ATOM      4  O   UNL     1       3.026   3.560  -8.756  0.00  0.00    -0.265 OA
ATOM      5  N   UNL     1       2.077   5.119 -10.154  0.00  0.00    -0.153 NA
ATOM      6  C   UNL     1       2.588   6.119 -10.920  0.00  0.00    +0.355 A 
ATOM      7  O   UNL     1       2.422   6.076 -12.181  0.00  0.00    -0.244 OA
ATOM      8  N   UNL     1       3.699   6.823 -10.565  0.00  0.00    -0.252 N 
ATOM      9  C   UNL     1       3.912   6.789  -9.225  0.00  0.00    +0.083 A 
ENDROOT
BRANCH   8  10
ATOM     10  C   UNL     1       4.965   6.347 -11.432  0.00  0.00    +0.232 C 
ATOM     11  O   UNL     1       5.762   5.813 -10.227  0.00  0.00    -0.327 OA
ATOM     12  C   UNL     1       6.757   5.655 -11.386  0.00  0.00    +0.172 C 
ATOM     13  C   UNL     1       7.009   7.268 -11.355  0.00  0.00    +0.005 C 
ATOM     14  C   UNL     1       5.763   7.769 -11.283  0.00  0.00    +0.025 C 
BRANCH  12  15
ATOM     15  C   UNL     1       8.026   5.322 -10.376  0.00  0.00    +0.216 C 
ATOM     16  O   UNL     1       7.337   5.416  -9.153  0.00  0.00    -0.217 OA
ENDBRANCH  12  15
ENDBRANCH   8  10
TORSDOF 2
ENDMDL
MODEL 9
REMARK VINA RESULT:      -5.7      3.073      4.627
REMARK  Name = 
REMARK  2 active torsions:
REMARK  status: ('A' for Active; 'I' for Inactive)
REMARK    1  A    between atoms: N_4  and  C_5
REMARK    2  A    between atoms: C_8  and  C_9
REMARK                            x       y       z     vdW  Elec       q    Type
REMARK                         _______ _______ _______ _____ _____    ______ ____
ROOT
ATOM      1  C   UNL     1      -0.100   6.266  -5.379  0.00  0.00    +0.038 C 
ATOM      2  C   UNL     1       1.183   6.141  -5.961  0.00  0.00    +0.053 A 
ATOM      3  C   UNL     1       1.457   4.910  -6.570  0.00  0.00    +0.280 A 
ATOM      4  O   UNL     1       0.989   3.864  -6.006  0.00  0.00    -0.265 OA
ATOM      5  N   UNL     1       2.664   4.893  -7.197  0.00  0.00    -0.153 NA
ATOM      6  C   UNL     1       3.670   5.741  -6.852  0.00  0.00    +0.355 A 
ATOM      7  O   UNL     1       4.874   5.374  -7.030  0.00  0.00    -0.244 OA
ATOM      8  N   UNL     1       3.546   6.657  -5.850  0.00  0.00    -0.252 N 
ATOM      9  C   UNL     1       2.249   6.976  -5.613  0.00  0.00    +0.083 A 
ENDROOT
BRANCH   8  10
ATOM     10  C   UNL     1       4.341   6.168  -4.542  0.00  0.00    +0.232 C 
ATOM     11  O   UNL     1       3.174   6.426  -3.571  0.00  0.00    -0.327 OA
ATOM     12  C   UNL     1       4.314   6.019  -2.627  0.00  0.00    +0.172 C 
ATOM     13  C   UNL     1       4.987   7.489  -2.849  0.00  0.00    +0.005 C 
ATOM     14  C   UNL     1       4.920   7.657  -4.182  0.00  0.00    +0.025 C 
BRANCH  12  15
ATOM     15  C   UNL     1       3.483   6.477  -1.271  0.00  0.00    +0.216 C 
ATOM     16  O   UNL     1       3.970   5.490  -0.395  0.00  0.00    -0.217 OA
ENDBRANCH  12  15
ENDBRANCH   8  10
TORSDOF 2
ENDMDL
