MODEL 1
REMARK VINA RESULT:      -8.3      0.000      0.000
REMARK  Name = 
REMARK  6 active torsions:
REMARK  status: ('A' for Active; 'I' for Inactive)
REMARK    1  A    between atoms: C_2  and  C_3
REMARK    2  A    between atoms: C_2  and  C_20
REMARK    3  A    between atoms: C_3  and  C_4
REMARK    4  A    between atoms: C_4  and  C_5
REMARK    5  A    between atoms: C_5  and  N_6
REMARK    6  A    between atoms: C_9  and  C_11
REMARK                            x       y       z     vdW  Elec       q    Type
REMARK                         _______ _______ _______ _____ _____    ______ ____
ROOT
ATOM      1  N   UNL     1       2.479   5.674  -5.023  0.00  0.00    -0.272 NA
ATOM      2  C   UNL     1       1.477   6.708  -5.082  0.00  0.00    +0.075 C 
ATOM      3  C   UNL     1       1.162   6.971  -6.550  0.00  0.00    +0.052 C 
ATOM      4  C   UNL     1       0.420   5.782  -7.099  0.00  0.00    +0.148 C 
ATOM      5  O   UNL     1      -0.966   5.917  -6.985  0.00  0.00    -0.221 OA
ATOM      6  C   UNL     1       0.803   4.503  -6.372  0.00  0.00    +0.052 C 
ATOM      7  C   UNL     1       2.243   4.590  -5.939  0.00  0.00    +0.075 C 
ENDROOT
BRANCH   4   8
ATOM      8  C   UNL     1       0.770   5.573  -8.536  0.00  0.00    +0.005 A 
ATOM      9  C   UNL     1       1.444   6.558  -9.231  0.00  0.00    -0.001 A 
ATOM     10  C   UNL     1       1.455   6.528 -10.617  0.00  0.00    +0.011 A 
ATOM     11  C   UNL     1       0.761   5.587 -11.347  0.00  0.00    +0.058 A 
ATOM     12 CL   UNL     1       1.235   5.170 -12.977  0.00  0.00    -0.082 Cl
ATOM     13  C   UNL     1      -0.007   4.689 -10.626  0.00  0.00    +0.011 A 
ATOM     14  C   UNL     1      -0.045   4.706  -9.248  0.00  0.00    -0.001 A 
ENDBRANCH   4   8
BRANCH   1  15
ATOM     15  C   UNL     1       3.823   6.162  -5.194  0.00  0.00    +0.073 C 
BRANCH  15  16
ATOM     16  C   UNL     1       4.526   5.231  -6.171  0.00  0.00    +0.025 C 
BRANCH  16  17
ATOM     17  C   UNL     1       4.665   5.980  -7.488  0.00  0.00    +0.071 C 
BRANCH  17  19
ATOM     18  O   UNL     1       4.007   4.182  -8.833  0.00  0.00    -0.291 OA
ATOM     19  C   UNL     1       4.965   4.966  -8.548  0.00  0.00    +0.173 C 
BRANCH  19  20
ATOM     20  C   UNL     1       5.703   5.482  -9.709  0.00  0.00    +0.035 A 
ATOM     21  C   UNL     1       5.053   5.799 -10.897  0.00  0.00    +0.005 A 
ATOM     22  C   UNL     1       5.363   6.985 -11.551  0.00  0.00    +0.030 A 
ATOM     23  C   UNL     1       6.529   7.682 -11.248  0.00  0.00    +0.140 A 
ATOM     24  F   UNL     1       6.617   9.031 -11.418  0.00  0.00    -0.204 F 
ATOM     25  C   UNL     1       7.433   6.986 -10.457  0.00  0.00    +0.030 A 
ATOM     26  C   UNL     1       6.987   5.999  -9.586  0.00  0.00    +0.005 A 
ENDBRANCH  19  20
ENDBRANCH  17  19
ENDBRANCH  16  17
ENDBRANCH  15  16
ENDBRANCH   1  15
TORSDOF 6
ENDMDL
MODEL 2
REMARK VINA RESULT:      -8.2      3.709      7.118
REMARK  Name = 
REMARK  6 active torsions:
REMARK  status: ('A' for Active; 'I' for Inactive)
REMARK    1  A    between atoms: C_2  and  C_3
REMARK    2  A    between atoms: C_2  and  C_20
REMARK    3  A    between atoms: C_3  and  C_4
REMARK    4  A    between atoms: C_4  and  C_5
REMARK    5  A    between atoms: C_5  and  N_6
REMARK    6  A    between atoms: C_9  and  C_11
REMARK                            x       y       z     vdW  Elec       q    Type
REMARK                         _______ _______ _______ _____ _____    ______ ____
ROOT
ATOM      1  N   UNL     1       2.171   5.077 -10.304  0.00  0.00    -0.272 NA
ATOM      2  C   UNL     1       3.200   6.027 -10.644  0.00  0.00    +0.075 C 
ATOM      3  C   UNL     1       3.636   6.723  -9.360  0.00  0.00    +0.052 C 
ATOM      4  C   UNL     1       4.390   5.733  -8.512  0.00  0.00    +0.148 C 
ATOM      5  O   UNL     1       5.766   5.757  -8.756  0.00  0.00    -0.221 OA
ATOM      6  C   UNL     1       3.918   4.310  -8.768  0.00  0.00    +0.052 C 
ATOM      7  C   UNL     1       2.452   4.327  -9.109  0.00  0.00    +0.075 C 
ENDROOT
BRANCH   4   8
ATOM      8  C   UNL     1       4.149   6.005  -7.064  0.00  0.00    +0.005 A 
ATOM      9  C   UNL     1       4.418   5.029  -6.125  0.00  0.00    -0.001 A 
ATOM     10  C   UNL     1       3.875   5.137  -4.854  0.00  0.00    +0.011 A 
ATOM     11  C   UNL     1       3.012   6.151  -4.496  0.00  0.00    +0.058 A 
ATOM     12 CL   UNL     1       2.819   6.636  -2.828  0.00  0.00    -0.082 Cl
ATOM     13  C   UNL     1       2.661   7.044  -5.494  0.00  0.00    +0.011 A 
ATOM     14  C   UNL     1       3.177   6.951  -6.769  0.00  0.00    -0.001 A 
ENDBRANCH   4   8
BRANCH   1  15
ATOM     15  C   UNL     1       0.858   5.659 -10.207  0.00  0.00    +0.073 C 
BRANCH  15  16
ATOM     16  C   UNL     1       0.092   4.883  -9.144  0.00  0.00    +0.025 C 
BRANCH  16  17
ATOM     17  C   UNL     1      -0.121   5.822  -7.966  0.00  0.00    +0.071 C 
BRANCH  17  19
ATOM     18  O   UNL     1       0.640   4.350  -6.316  0.00  0.00    -0.291 OA
ATOM     19  C   UNL     1      -0.373   4.973  -6.760  0.00  0.00    +0.173 C 
BRANCH  19  20
ATOM     20  C   UNL     1      -1.212   5.597  -5.726  0.00  0.00    +0.035 A 
ATOM     21  C   UNL     1      -0.718   5.855  -4.452  0.00  0.00    +0.005 A 
ATOM     22  C   UNL     1      -0.978   7.082  -3.854  0.00  0.00    +0.030 A 
ATOM     23  C   UNL     1      -1.989   7.909  -4.333  0.00  0.00    +0.140 A 
ATOM     24  F   UNL     1      -1.936   9.262  -4.180  0.00  0.00    -0.204 F 
ATOM     25  C   UNL     1      -2.839   7.313  -5.255  0.00  0.00    +0.030 A 
ATOM     26  C   UNL     1      -2.389   6.262  -6.046  0.00  0.00    +0.005 A 
ENDBRANCH  19  20
ENDBRANCH  17  19
ENDBRANCH  16  17
ENDBRANCH  15  16
ENDBRANCH   1  15
TORSDOF 6
ENDMDL
MODEL 3
REMARK VINA RESULT:      -8.1      3.864      6.688
REMARK  Name = 
REMARK  6 active torsions:
REMARK  status: ('A' for Active; 'I' for Inactive)
REMARK    1  A    between atoms: C_2  and  C_3
REMARK    2  A    between atoms: C_2  and  C_20
REMARK    3  A    between atoms: C_3  and  C_4
REMARK    4  A    between atoms: C_4  and  C_5
REMARK    5  A    between atoms: C_5  and  N_6
REMARK    6  A    between atoms: C_9  and  C_11
REMARK                            x       y       z     vdW  Elec       q    Type
REMARK                         _______ _______ _______ _____ _____    ______ ____
ROOT
ATOM      1  N   UNL     1       3.411   6.059  -2.608  0.00  0.00    -0.272 NA
ATOM      2  C   UNL     1       4.316   5.098  -3.185  0.00  0.00    +0.075 C 
ATOM      3  C   UNL     1       3.774   4.707  -4.555  0.00  0.00    +0.052 C 
ATOM      4  C   UNL     1       3.930   5.883  -5.483  0.00  0.00    +0.148 C 
ATOM      5  O   UNL     1       5.142   5.859  -6.178  0.00  0.00    -0.221 OA
ATOM      6  C   UNL     1       3.878   7.200  -4.725  0.00  0.00    +0.052 C 
ATOM      7  C   UNL     1       2.959   7.056  -3.541  0.00  0.00    +0.075 C 
ENDROOT
BRANCH   4   8
ATOM      8  C   UNL     1       2.807   5.916  -6.466  0.00  0.00    +0.005 A 
ATOM      9  C   UNL     1       2.410   4.755  -7.100  0.00  0.00    -0.001 A 
ATOM     10  C   UNL     1       1.635   4.835  -8.246  0.00  0.00    +0.011 A 
ATOM     11  C   UNL     1       1.290   6.035  -8.831  0.00  0.00    +0.058 A 
ATOM     12 CL   UNL     1      -0.121   6.177  -9.853  0.00  0.00    -0.082 Cl
ATOM     13  C   UNL     1       1.807   7.178  -8.246  0.00  0.00    +0.011 A 
ATOM     14  C   UNL     1       2.591   7.125  -7.113  0.00  0.00    -0.001 A 
ENDBRANCH   4   8
BRANCH   1  15
ATOM     15  C   UNL     1       2.275   5.462  -1.956  0.00  0.00    +0.073 C 
BRANCH  15  16
ATOM     16  C   UNL     1       1.136   6.471  -2.008  0.00  0.00    +0.025 C 
BRANCH  16  17
ATOM     17  C   UNL     1      -0.047   5.857  -1.275  0.00  0.00    +0.071 C 
BRANCH  17  19
ATOM     18  O   UNL     1      -2.082   4.872  -1.874  0.00  0.00    -0.291 OA
ATOM     19  C   UNL     1      -0.961   5.279  -2.309  0.00  0.00    +0.173 C 
BRANCH  19  20
ATOM     20  C   UNL     1      -1.027   6.033  -3.569  0.00  0.00    +0.035 A 
ATOM     21  C   UNL     1      -0.419   5.562  -4.727  0.00  0.00    +0.005 A 
ATOM     22  C   UNL     1      -1.111   5.612  -5.931  0.00  0.00    +0.030 A 
ATOM     23  C   UNL     1      -2.232   6.423  -6.076  0.00  0.00    +0.140 A 
ATOM     24  F   UNL     1      -3.220   6.122  -6.965  0.00  0.00    -0.204 F 
ATOM     25  C   UNL     1      -2.435   7.326  -5.040  0.00  0.00    +0.030 A 
ATOM     26  C   UNL     1      -1.959   7.045  -3.764  0.00  0.00    +0.005 A 
ENDBRANCH  19  20
ENDBRANCH  17  19
ENDBRANCH  16  17
ENDBRANCH  15  16
ENDBRANCH   1  15
TORSDOF 6
ENDMDL
MODEL 4
REMARK VINA RESULT:      -8.1      4.238      5.872
REMARK  Name = 
REMARK  6 active torsions:
REMARK  status: ('A' for Active; 'I' for Inactive)
REMARK    1  A    between atoms: C_2  and  C_3
REMARK    2  A    between atoms: C_2  and  C_20
REMARK    3  A    between atoms: C_3  and  C_4
REMARK    4  A    between atoms: C_4  and  C_5
REMARK    5  A    between atoms: C_5  and  N_6
REMARK    6  A    between atoms: C_9  and  C_11
REMARK                            x       y       z     vdW  Elec       q    Type
REMARK                         _______ _______ _______ _____ _____    ______ ____
ROOT
ATOM      1  N   UNL     1      -2.270   6.100  -1.762  0.00  0.00    -0.272 NA
ATOM      2  C   UNL     1      -2.562   7.405  -2.298  0.00  0.00    +0.075 C 
ATOM      3  C   UNL     1      -1.659   7.628  -3.505  0.00  0.00    +0.052 C 
ATOM      4  C   UNL     1      -2.116   6.722  -4.617  0.00  0.00    +0.148 C 
ATOM      5  O   UNL     1      -3.051   7.334  -5.456  0.00  0.00    -0.221 OA
ATOM      6  C   UNL     1      -2.765   5.459  -4.073  0.00  0.00    +0.052 C 
ATOM      7  C   UNL     1      -2.111   5.086  -2.770  0.00  0.00    +0.075 C 
ENDROOT
BRANCH   4   8
ATOM      8  C   UNL     1      -0.947   6.279  -5.434  0.00  0.00    +0.005 A 
ATOM      9  C   UNL     1       0.246   6.969  -5.362  0.00  0.00    -0.001 A 
ATOM     10  C   UNL     1       1.197   6.793  -6.355  0.00  0.00    +0.011 A 
ATOM     11  C   UNL     1       0.980   6.002  -7.463  0.00  0.00    +0.058 A 
ATOM     12 CL   UNL     1       2.309   5.306  -8.359  0.00  0.00    -0.082 Cl
ATOM     13  C   UNL     1      -0.273   5.423  -7.572  0.00  0.00    +0.011 A 
ATOM     14  C   UNL     1      -1.240   5.593  -6.605  0.00  0.00    -0.001 A 
ENDBRANCH   4   8
BRANCH   1  15
ATOM     15  C   UNL     1      -1.133   6.080  -0.878  0.00  0.00    +0.073 C 
BRANCH  15  16
ATOM     16  C   UNL     1      -0.003   5.363  -1.604  0.00  0.00    +0.025 C 
BRANCH  16  17
ATOM     17  C   UNL     1       1.129   6.364  -1.779  0.00  0.00    +0.071 C 
BRANCH  17  19
ATOM     18  O   UNL     1       2.234   4.534  -0.829  0.00  0.00    -0.291 OA
ATOM     19  C   UNL     1       2.381   5.711  -1.282  0.00  0.00    +0.173 C 
BRANCH  19  20
ATOM     20  C   UNL     1       3.559   5.896  -2.141  0.00  0.00    +0.035 A 
ATOM     21  C   UNL     1       4.115   4.833  -2.845  0.00  0.00    +0.005 A 
ATOM     22  C   UNL     1       4.477   5.009  -4.175  0.00  0.00    +0.030 A 
ATOM     23  C   UNL     1       4.623   6.285  -4.711  0.00  0.00    +0.140 A 
ATOM     24  F   UNL     1       4.432   6.527  -6.039  0.00  0.00    -0.204 F 
ATOM     25  C   UNL     1       4.625   7.312  -3.777  0.00  0.00    +0.030 A 
ATOM     26  C   UNL     1       3.963   7.156  -2.564  0.00  0.00    +0.005 A 
ENDBRANCH  19  20
ENDBRANCH  17  19
ENDBRANCH  16  17
ENDBRANCH  15  16
ENDBRANCH   1  15
TORSDOF 6
ENDMDL
MODEL 5
REMARK VINA RESULT:      -8.0      4.899      8.327
REMARK  Name = 
REMARK  6 active torsions:
REMARK  status: ('A' for Active; 'I' for Inactive)
REMARK    1  A    between atoms: C_2  and  C_3
REMARK    2  A    between atoms: C_2  and  C_20
REMARK    3  A    between atoms: C_3  and  C_4
REMARK    4  A    between atoms: C_4  and  C_5
REMARK    5  A    between atoms: C_5  and  N_6
REMARK    6  A    between atoms: C_9  and  C_11
REMARK                            x       y       z     vdW  Elec       q    Type
REMARK                         _______ _______ _______ _____ _____    ______ ____
ROOT
ATOM      1  N   UNL     1       0.933   5.240  -7.452  0.00  0.00    -0.272 NA
ATOM      2  C   UNL     1       2.075   5.994  -7.904  0.00  0.00    +0.075 C 
ATOM      3  C   UNL     1       2.725   6.635  -6.683  0.00  0.00    +0.052 C 
ATOM      4  C   UNL     1       3.369   5.550  -5.861  0.00  0.00    +0.148 C 
ATOM      5  O   UNL     1       4.705   5.335  -6.210  0.00  0.00    -0.221 OA
ATOM      6  C   UNL     1       2.647   4.223  -6.028  0.00  0.00    +0.052 C 
ATOM      7  C   UNL     1       1.181   4.481  -6.256  0.00  0.00    +0.075 C 
ENDROOT
BRANCH   4   8
ATOM      8  C   UNL     1       3.296   5.892  -4.409  0.00  0.00    +0.005 A 
ATOM      9  C   UNL     1       3.261   7.214  -4.013  0.00  0.00    -0.001 A 
ATOM     10  C   UNL     1       3.549   7.539  -2.696  0.00  0.00    +0.011 A 
ATOM     11  C   UNL     1       3.941   6.601  -1.765  0.00  0.00    +0.058 A 
ATOM     12 CL   UNL     1       3.717   6.869  -0.053  0.00  0.00    -0.082 Cl
ATOM     13  C   UNL     1       4.090   5.303  -2.223  0.00  0.00    +0.011 A 
ATOM     14  C   UNL     1       3.822   4.955  -3.529  0.00  0.00    -0.001 A 
ENDBRANCH   4   8
BRANCH   1  15
ATOM     15  C   UNL     1      -0.252   6.039  -7.276  0.00  0.00    +0.073 C 
BRANCH  15  16
ATOM     16  C   UNL     1      -1.354   5.116  -6.772  0.00  0.00    +0.025 C 
BRANCH  16  17
ATOM     17  C   UNL     1      -2.348   5.976  -6.006  0.00  0.00    +0.071 C 
BRANCH  17  19
ATOM     18  O   UNL     1      -1.894   7.891  -4.741  0.00  0.00    -0.291 OA
ATOM     19  C   UNL     1      -1.590   6.671  -4.918  0.00  0.00    +0.173 C 
BRANCH  19  20
ATOM     20  C   UNL     1      -1.427   5.893  -3.682  0.00  0.00    +0.035 A 
ATOM     21  C   UNL     1      -0.169   5.510  -3.229  0.00  0.00    +0.005 A 
ATOM     22  C   UNL     1       0.147   5.656  -1.884  0.00  0.00    +0.030 A 
ATOM     23  C   UNL     1      -0.852   5.841  -0.933  0.00  0.00    +0.140 A 
ATOM     24  F   UNL     1      -0.614   6.509   0.231  0.00  0.00    -0.204 F 
ATOM     25  C   UNL     1      -2.143   5.621  -1.395  0.00  0.00    +0.030 A 
ATOM     26  C   UNL     1      -2.445   5.797  -2.741  0.00  0.00    +0.005 A 
ENDBRANCH  19  20
ENDBRANCH  17  19
ENDBRANCH  16  17
ENDBRANCH  15  16
ENDBRANCH   1  15
TORSDOF 6
ENDMDL
MODEL 6
REMARK VINA RESULT:      -7.9      4.424      7.694
REMARK  Name = 
REMARK  6 active torsions:
REMARK  status: ('A' for Active; 'I' for Inactive)
REMARK    1  A    between atoms: C_2  and  C_3
REMARK    2  A    between atoms: C_2  and  C_20
REMARK    3  A    between atoms: C_3  and  C_4
REMARK    4  A    between atoms: C_4  and  C_5
REMARK    5  A    between atoms: C_5  and  N_6
REMARK    6  A    between atoms: C_9  and  C_11
REMARK                            x       y       z     vdW  Elec       q    Type
REMARK                         _______ _______ _______ _____ _____    ______ ____
ROOT
ATOM      1  N   UNL     1       2.681   6.114  -1.220  0.00  0.00    -0.272 NA
ATOM      2  C   UNL     1       3.845   5.303  -1.474  0.00  0.00    +0.075 C 
ATOM      3  C   UNL     1       3.803   4.868  -2.934  0.00  0.00    +0.052 C 
ATOM      4  C   UNL     1       4.064   6.073  -3.799  0.00  0.00    +0.148 C 
ATOM      5  O   UNL     1       5.420   6.236  -4.095  0.00  0.00    -0.221 OA
ATOM      6  C   UNL     1       3.600   7.353  -3.122  0.00  0.00    +0.052 C 
ATOM      7  C   UNL     1       2.396   7.056  -2.268  0.00  0.00    +0.075 C 
ENDROOT
BRANCH   4   8
ATOM      8  C   UNL     1       3.297   5.968  -5.076  0.00  0.00    +0.005 A 
ATOM      9  C   UNL     1       3.124   7.084  -5.870  0.00  0.00    -0.001 A 
ATOM     10  C   UNL     1       2.139   7.081  -6.845  0.00  0.00    +0.011 A 
ATOM     11  C   UNL     1       1.266   6.028  -7.019  0.00  0.00    +0.058 A 
ATOM     12 CL   UNL     1       0.472   5.747  -8.550  0.00  0.00    -0.082 Cl
ATOM     13  C   UNL     1       1.381   4.976  -6.126  0.00  0.00    +0.011 A 
ATOM     14  C   UNL     1       2.344   4.961  -5.140  0.00  0.00    -0.001 A 
ENDBRANCH   4   8
BRANCH   1  15
ATOM     15  C   UNL     1       1.497   5.348  -0.927  0.00  0.00    +0.073 C 
BRANCH  15  16
ATOM     16  C   UNL     1       0.335   6.011  -1.654  0.00  0.00    +0.025 C 
BRANCH  16  17
ATOM     17  C   UNL     1      -0.882   5.910  -0.746  0.00  0.00    +0.071 C 
BRANCH  17  19
ATOM     18  O   UNL     1      -1.364   8.196  -0.864  0.00  0.00    -0.291 OA
ATOM     19  C   UNL     1      -1.804   7.031  -1.110  0.00  0.00    +0.173 C 
BRANCH  19  20
ATOM     20  C   UNL     1      -2.468   6.888  -2.414  0.00  0.00    +0.035 A 
ATOM     21  C   UNL     1      -2.184   7.748  -3.468  0.00  0.00    +0.005 A 
ATOM     22  C   UNL     1      -1.985   7.227  -4.741  0.00  0.00    +0.030 A 
ATOM     23  C   UNL     1      -2.399   5.936  -5.055  0.00  0.00    +0.140 A 
ATOM     24  F   UNL     1      -1.781   5.206  -6.026  0.00  0.00    -0.204 F 
ATOM     25  C   UNL     1      -3.217   5.340  -4.104  0.00  0.00    +0.030 A 
ATOM     26  C   UNL     1      -3.131   5.720  -2.770  0.00  0.00    +0.005 A 
ENDBRANCH  19  20
ENDBRANCH  17  19
ENDBRANCH  16  17
ENDBRANCH  15  16
ENDBRANCH   1  15
TORSDOF 6
ENDMDL
MODEL 7
REMARK VINA RESULT:      -7.9      1.706      2.346
REMARK  Name = 
REMARK  6 active torsions:
REMARK  status: ('A' for Active; 'I' for Inactive)
REMARK    1  A    between atoms: C_2  and  C_3
REMARK    2  A    between atoms: C_2  and  C_20
REMARK    3  A    between atoms: C_3  and  C_4
REMARK    4  A    between atoms: C_4  and  C_5
REMARK    5  A    between atoms: C_5  and  N_6
REMARK    6  A    between atoms: C_9  and  C_11
REMARK                            x       y       z     vdW  Elec       q    Type
REMARK                         _______ _______ _______ _____ _____    ______ ____
ROOT
ATOM      1  N   UNL     1       3.508   5.514  -6.452  0.00  0.00    -0.272 NA
ATOM      2  C   UNL     1       2.640   6.604  -6.084  0.00  0.00    +0.075 C 
ATOM      3  C   UNL     1       1.882   7.041  -7.331  0.00  0.00    +0.052 C 
ATOM      4  C   UNL     1       0.896   5.962  -7.693  0.00  0.00    +0.148 C 
ATOM      5  O   UNL     1      -0.356   6.162  -7.107  0.00  0.00    -0.221 OA
ATOM      6  C   UNL     1       1.382   4.592  -7.246  0.00  0.00    +0.052 C 
ATOM      7  C   UNL     1       2.886   4.550  -7.320  0.00  0.00    +0.075 C 
ENDROOT
BRANCH   4   8
ATOM      8  C   UNL     1       0.731   5.889  -9.176  0.00  0.00    +0.005 A 
ATOM      9  C   UNL     1       0.073   4.817  -9.745  0.00  0.00    -0.001 A 
ATOM     10  C   UNL     1       0.225   4.564 -11.099  0.00  0.00    +0.011 A 
ATOM     11  C   UNL     1       1.067   5.301 -11.905  0.00  0.00    +0.058 A 
ATOM     12 CL   UNL     1       0.819   5.399 -13.632  0.00  0.00    -0.082 Cl
ATOM     13  C   UNL     1       1.810   6.288 -11.281  0.00  0.00    +0.011 A 
ATOM     14  C   UNL     1       1.687   6.552  -9.934  0.00  0.00    -0.001 A 
ENDBRANCH   4   8
BRANCH   1  15
ATOM     15  C   UNL     1       4.757   5.941  -7.026  0.00  0.00    +0.073 C 
BRANCH  15  16
ATOM     16  C   UNL     1       5.047   5.032  -8.213  0.00  0.00    +0.025 C 
BRANCH  16  17
ATOM     17  C   UNL     1       5.298   5.928  -9.417  0.00  0.00    +0.071 C 
BRANCH  17  19
ATOM     18  O   UNL     1       7.465   5.106  -9.102  0.00  0.00    -0.291 OA
ATOM     19  C   UNL     1       6.781   6.069  -9.567  0.00  0.00    +0.173 C 
BRANCH  19  20
ATOM     20  C   UNL     1       7.227   6.563 -10.877  0.00  0.00    +0.035 A 
ATOM     21  C   UNL     1       8.378   6.070 -11.482  0.00  0.00    +0.005 A 
ATOM     22  C   UNL     1       8.355   5.748 -12.834  0.00  0.00    +0.030 A 
ATOM     23  C   UNL     1       7.343   6.223 -13.663  0.00  0.00    +0.140 A 
ATOM     24  F   UNL     1       6.961   5.545 -14.781  0.00  0.00    -0.204 F 
ATOM     25  C   UNL     1       6.543   7.207 -13.098  0.00  0.00    +0.030 A 
ATOM     26  C   UNL     1       6.376   7.268 -11.719  0.00  0.00    +0.005 A 
ENDBRANCH  19  20
ENDBRANCH  17  19
ENDBRANCH  16  17
ENDBRANCH  15  16
ENDBRANCH   1  15
TORSDOF 6
ENDMDL
MODEL 8
REMARK VINA RESULT:      -7.8      3.443      6.641
REMARK  Name = 
REMARK  6 active torsions:
REMARK  status: ('A' for Active; 'I' for Inactive)
REMARK    1  A    between atoms: C_2  and  C_3
REMARK    2  A    between atoms: C_2  and  C_20
REMARK    3  A    between atoms: C_3  and  C_4
REMARK    4  A    between atoms: C_4  and  C_5
REMARK    5  A    between atoms: C_5  and  N_6
REMARK    6  A    between atoms: C_9  and  C_11
REMARK                            x       y       z     vdW  Elec       q    Type
REMARK                         _______ _______ _______ _____ _____    ______ ____
ROOT
ATOM      1  N   UNL     1       2.829   5.977  -7.042  0.00  0.00    -0.272 NA
ATOM      2  C   UNL     1       2.207   6.748  -8.089  0.00  0.00    +0.075 C 
ATOM      3  C   UNL     1       3.229   6.932  -9.204  0.00  0.00    +0.052 C 
ATOM      4  C   UNL     1       3.444   5.603  -9.878  0.00  0.00    +0.148 C 
ATOM      5  O   UNL     1       2.590   5.410 -10.966  0.00  0.00    -0.221 OA
ATOM      6  C   UNL     1       3.208   4.448  -8.917  0.00  0.00    +0.052 C 
ATOM      7  C   UNL     1       3.606   4.869  -7.528  0.00  0.00    +0.075 C 
ENDROOT
BRANCH   4   8
ATOM      8  C   UNL     1       4.858   5.483 -10.345  0.00  0.00    +0.005 A 
ATOM      9  C   UNL     1       5.893   5.863  -9.513  0.00  0.00    -0.001 A 
ATOM     10  C   UNL     1       7.150   6.091 -10.050  0.00  0.00    +0.011 A 
ATOM     11  C   UNL     1       7.407   6.020 -11.402  0.00  0.00    +0.058 A 
ATOM     12 CL   UNL     1       9.016   5.704 -12.008  0.00  0.00    -0.082 Cl
ATOM     13  C   UNL     1       6.324   5.762 -12.224  0.00  0.00    +0.011 A 
ATOM     14  C   UNL     1       5.061   5.544 -11.716  0.00  0.00    -0.001 A 
ENDBRANCH   4   8
BRANCH   1  15
ATOM     15  C   UNL     1       3.627   6.766  -6.141  0.00  0.00    +0.073 C 
BRANCH  15  16
ATOM     16  C   UNL     1       3.370   6.249  -4.732  0.00  0.00    +0.025 C 
BRANCH  16  17
ATOM     17  C   UNL     1       1.987   6.731  -4.319  0.00  0.00    +0.071 C 
BRANCH  17  19
ATOM     18  O   UNL     1       1.359   5.293  -2.584  0.00  0.00    -0.291 OA
ATOM     19  C   UNL     1       1.230   5.539  -3.823  0.00  0.00    +0.173 C 
BRANCH  19  20
ATOM     20  C   UNL     1      -0.143   5.420  -4.333  0.00  0.00    +0.035 A 
ATOM     21  C   UNL     1      -1.242   5.579  -3.496  0.00  0.00    +0.005 A 
ATOM     22  C   UNL     1      -2.318   6.351  -3.919  0.00  0.00    +0.030 A 
ATOM     23  C   UNL     1      -2.479   6.674  -5.262  0.00  0.00    +0.140 A 
ATOM     24  F   UNL     1      -3.131   7.806  -5.650  0.00  0.00    -0.204 F 
ATOM     25  C   UNL     1      -1.651   5.976  -6.132  0.00  0.00    +0.030 A 
ATOM     26  C   UNL     1      -0.425   5.490  -5.692  0.00  0.00    +0.005 A 
ENDBRANCH  19  20
ENDBRANCH  17  19
ENDBRANCH  16  17
ENDBRANCH  15  16
ENDBRANCH   1  15
TORSDOF 6
ENDMDL
MODEL 9
REMARK VINA RESULT:      -7.8      3.222      4.585
REMARK  Name = 
REMARK  6 active torsions:
REMARK  status: ('A' for Active; 'I' for Inactive)
REMARK    1  A    between atoms: C_2  and  C_3
REMARK    2  A    between atoms: C_2  and  C_20
REMARK    3  A    between atoms: C_3  and  C_4
REMARK    4  A    between atoms: C_4  and  C_5
REMARK    5  A    between atoms: C_5  and  N_6
REMARK    6  A    between atoms: C_9  and  C_11
REMARK                            x       y       z     vdW  Elec       q    Type
REMARK                         _______ _______ _______ _____ _____    ______ ____
ROOT
ATOM      1  N   UNL     1       3.395   5.105  -6.783  0.00  0.00    -0.272 NA
ATOM      2  C   UNL     1       3.622   6.496  -6.483  0.00  0.00    +0.075 C 
ATOM      3  C   UNL     1       2.326   7.072  -5.926  0.00  0.00    +0.052 C 
ATOM      4  C   UNL     1       2.094   6.489  -4.557  0.00  0.00    +0.148 C 
ATOM      5  O   UNL     1       2.645   7.274  -3.540  0.00  0.00    -0.221 OA
ATOM      6  C   UNL     1       2.709   5.104  -4.431  0.00  0.00    +0.052 C 
ATOM      7  C   UNL     1       2.649   4.411  -5.767  0.00  0.00    +0.075 C 
ENDROOT
BRANCH   4   8
ATOM      8  C   UNL     1       0.631   6.327  -4.306  0.00  0.00    +0.005 A 
ATOM      9  C   UNL     1      -0.273   7.156  -4.940  0.00  0.00    -0.001 A 
ATOM     10  C   UNL     1      -1.568   7.251  -4.454  0.00  0.00    +0.011 A 
ATOM     11  C   UNL     1      -1.986   6.599  -3.313  0.00  0.00    +0.058 A 
ATOM     12 CL   UNL     1      -3.671   6.222  -3.045  0.00  0.00    -0.082 Cl
ATOM     13  C   UNL     1      -1.024   5.877  -2.628  0.00  0.00    +0.011 A 
ATOM     14  C   UNL     1       0.273   5.777  -3.083  0.00  0.00    -0.001 A 
ENDBRANCH   4   8
BRANCH   1  15
ATOM     15  C   UNL     1       2.780   4.884  -8.065  0.00  0.00    +0.073 C 
BRANCH  15  16
ATOM     16  C   UNL     1       3.847   4.317  -8.992  0.00  0.00    +0.025 C 
BRANCH  16  17
ATOM     17  C   UNL     1       4.274   5.438  -9.928  0.00  0.00    +0.071 C 
BRANCH  17  19
ATOM     18  O   UNL     1       6.238   5.069  -8.713  0.00  0.00    -0.291 OA
ATOM     19  C   UNL     1       5.658   5.846  -9.534  0.00  0.00    +0.173 C 
BRANCH  19  20
ATOM     20  C   UNL     1       6.505   6.315 -10.640  0.00  0.00    +0.035 A 
ATOM     21  C   UNL     1       7.741   5.733 -10.901  0.00  0.00    +0.005 A 
ATOM     22  C   UNL     1       8.090   5.428 -12.211  0.00  0.00    +0.030 A 
ATOM     23  C   UNL     1       7.404   5.995 -13.281  0.00  0.00    +0.140 A 
ATOM     24  F   UNL     1       7.314   5.363 -14.486  0.00  0.00    -0.204 F 
ATOM     25  C   UNL     1       6.552   7.037 -12.940  0.00  0.00    +0.030 A 
ATOM     26  C   UNL     1       5.995   7.098 -11.668  0.00  0.00    +0.005 A 
ENDBRANCH  19  20
ENDBRANCH  17  19
ENDBRANCH  16  17
ENDBRANCH  15  16
ENDBRANCH   1  15
TORSDOF 6
ENDMDL
