MODEL 1
REMARK VINA RESULT:      -9.5      0.000      0.000
REMARK  Name = 
REMARK  9 active torsions:
REMARK  status: ('A' for Active; 'I' for Inactive)
REMARK    1  A    between atoms: C_12  and  C_13
REMARK    2  A    between atoms: C_13  and  N_14
REMARK    3  A    between atoms: N_14  and  C_15
REMARK    4  A    between atoms: C_18  and  C_19
REMARK    5  A    between atoms: N_21  and  CA_22
REMARK    6  A    between atoms: CA_22  and  CB_23
REMARK    7  A    between atoms: CA_22  and  C_28
REMARK    8  A    between atoms: CB_23  and  CG_24
REMARK    9  A    between atoms: CG_24  and  CD_25
REMARK                            x       y       z     vdW  Elec       q    Type
REMARK                         _______ _______ _______ _____ _____    ______ ____
ROOT
ATOM      1  C   UNK A   0       0.289   5.632  -8.300  0.00  0.00    +0.065 A 
ATOM      2  C   UNK A   0       0.184   5.143  -9.586  0.00  0.00    +0.016 A 
ATOM      3  C   UNK A   0       1.023   5.586 -10.593  0.00  0.00    +0.006 A 
ATOM      4  C   UNK A   0       2.108   6.375 -10.232  0.00  0.00    +0.055 A 
ATOM      5  C   UNK A   0       2.099   6.978  -8.983  0.00  0.00    +0.006 A 
ATOM      6  C   UNK A   0       1.036   6.787  -8.110  0.00  0.00    +0.016 A 
ENDROOT
BRANCH   4   7
ATOM      7  C   UNK A   0       3.387   6.291 -10.943  0.00  0.00    +0.265 C 
ATOM      8  N   GLU A   1       4.601   6.821 -10.398  0.00  0.00    -0.192 NA
ATOM      9  O   UNK A   0       3.371   5.652 -12.033  0.00  0.00    -0.268 OA
BRANCH   8  10
ATOM     10  CA  GLU A   1       5.805   5.864 -10.826  0.00  0.00    +0.199 C 
BRANCH  10  11
ATOM     11  C   GLU A   1       6.364   5.751  -9.297  0.00  0.00    +0.384 C 
ATOM     12  OXT GLU A   1       5.485   5.316  -8.350  0.00  0.00    -0.244 OA
ATOM     13  O   GLU A   1       7.564   5.338  -9.308  0.00  0.00    -0.244 OA
ENDBRANCH  10  11
BRANCH  10  14
ATOM     14  CB  GLU A   1       6.793   7.152 -11.173  0.00  0.00    +0.045 C 
BRANCH  14  15
ATOM     15  CG  GLU A   1       7.345   6.962 -12.506  0.00  0.00    +0.116 C 
BRANCH  15  16
ATOM     16  CD  GLU A   1       8.153   5.815 -12.824  0.00  0.00    +0.365 C 
ATOM     17  OE2 GLU A   1       9.418   5.773 -12.220  0.00  0.00    -0.246 OA
ATOM     18  OE1 GLU A   1       7.790   4.695 -13.266  0.00  0.00    -0.246 OA
ENDBRANCH  15  16
ENDBRANCH  14  15
ENDBRANCH  10  14
ENDBRANCH   8  10
ENDBRANCH   4   7
BRANCH   1  19
ATOM     19  N   UNK A   0      -0.381   5.025  -7.218  0.00  0.00    -0.236 NA
BRANCH  19  20
ATOM     20  C   UNK A   0      -0.020   5.218  -5.840  0.00  0.00    +0.134 C 
BRANCH  20  28
ATOM     21  N   UNK A   0       4.058   6.549  -1.502  0.00  0.00    -0.086 NA
ATOM     22  C   UNK A   0       2.851   6.226  -2.153  0.00  0.00    +0.260 A 
ATOM     23  N   UNK A   0       2.056   5.221  -1.709  0.00  0.00    -0.171 NA
ATOM     24  C   UNK A   0       0.736   5.221  -2.023  0.00  0.00    +0.298 A 
ATOM     25  O   UNK A   0      -0.118   4.578  -1.343  0.00  0.00    -0.264 OA
ATOM     26  C   UNK A   0       0.394   5.679  -3.291  0.00  0.00    +0.146 A 
ATOM     27  N   UNK A   0      -0.928   5.541  -3.678  0.00  0.00    -0.243 N 
ATOM     28  C   UNK A   0      -1.343   5.952  -5.151  0.00  0.00    +0.124 C 
ATOM     29  C   UNK A   0      -0.630   7.443  -5.032  0.00  0.00    +0.136 C 
ATOM     30  N   UNK A   0       0.764   7.291  -4.959  0.00  0.00    -0.217 NA
ATOM     31  C   UNK A   0      -1.986   5.522  -2.741  0.00  0.00    +0.307 C 
ATOM     32  O   UNK A   0      -2.832   4.592  -2.667  0.00  0.00    -0.265 OA
ATOM     33  C   UNK A   0       1.342   6.445  -3.958  0.00  0.00    +0.169 A 
ATOM     34  N   UNK A   0       2.524   6.739  -3.364  0.00  0.00    -0.193 NA
ENDBRANCH  20  28
ENDBRANCH  19  20
ENDBRANCH   1  19
TORSDOF 9
ENDMDL
MODEL 2
REMARK VINA RESULT:      -9.0      1.987      2.696
REMARK  Name = 
REMARK  9 active torsions:
REMARK  status: ('A' for Active; 'I' for Inactive)
REMARK    1  A    between atoms: C_12  and  C_13
REMARK    2  A    between atoms: C_13  and  N_14
REMARK    3  A    between atoms: N_14  and  C_15
REMARK    4  A    between atoms: C_18  and  C_19
REMARK    5  A    between atoms: N_21  and  CA_22
REMARK    6  A    between atoms: CA_22  and  CB_23
REMARK    7  A    between atoms: CA_22  and  C_28
REMARK    8  A    between atoms: CB_23  and  CG_24
REMARK    9  A    between atoms: CG_24  and  CD_25
REMARK                            x       y       z     vdW  Elec       q    Type
REMARK                         _______ _______ _______ _____ _____    ______ ____
ROOT
ATOM      1  C   UNK A   0       2.595   4.851  -8.281  0.00  0.00    +0.065 A 
ATOM      2  C   UNK A   0       1.901   5.061  -9.455  0.00  0.00    +0.016 A 
ATOM      3  C   UNK A   0       2.507   5.647 -10.552  0.00  0.00    +0.006 A 
ATOM      4  C   UNK A   0       3.885   5.825 -10.514  0.00  0.00    +0.055 A 
ATOM      5  C   UNK A   0       4.524   5.761  -9.285  0.00  0.00    +0.006 A 
ATOM      6  C   UNK A   0       3.805   5.514  -8.122  0.00  0.00    +0.016 A 
ENDROOT
BRANCH   4   7
ATOM      7  C   UNK A   0       4.707   5.705 -11.721  0.00  0.00    +0.265 C 
ATOM      8  N   GLU A   1       6.063   6.163 -11.770  0.00  0.00    -0.192 NA
ATOM      9  O   UNK A   0       4.174   5.099 -12.693  0.00  0.00    -0.268 OA
BRANCH   8  10
ATOM     10  CA  GLU A   1       6.897   5.165 -12.696  0.00  0.00    +0.199 C 
BRANCH  10  11
ATOM     11  C   GLU A   1       8.233   5.293 -11.767  0.00  0.00    +0.384 C 
ATOM     12  OXT GLU A   1       9.288   5.977 -12.294  0.00  0.00    -0.244 OA
ATOM     13  O   GLU A   1       7.897   5.450 -10.553  0.00  0.00    -0.244 OA
ENDBRANCH  10  11
BRANCH  10  14
ATOM     14  CB  GLU A   1       7.385   6.396 -13.697  0.00  0.00    +0.045 C 
BRANCH  14  15
ATOM     15  CG  GLU A   1       6.799   6.179 -15.013  0.00  0.00    +0.116 C 
BRANCH  15  16
ATOM     16  CD  GLU A   1       5.860   7.110 -15.576  0.00  0.00    +0.365 C 
ATOM     17  OE2 GLU A   1       4.522   6.690 -15.597  0.00  0.00    -0.246 OA
ATOM     18  OE1 GLU A   1       5.979   8.352 -15.730  0.00  0.00    -0.246 OA
ENDBRANCH  15  16
ENDBRANCH  14  15
ENDBRANCH  10  14
ENDBRANCH   8  10
ENDBRANCH   4   7
BRANCH   1  19
ATOM     19  N   UNK A   0       2.079   4.043  -7.247  0.00  0.00    -0.236 NA
BRANCH  19  20
ATOM     20  C   UNK A   0       1.493   4.560  -6.041  0.00  0.00    +0.134 C 
BRANCH  20  28
ATOM     21  N   UNK A   0       1.460   5.968  -0.105  0.00  0.00    -0.086 NA
ATOM     22  C   UNK A   0       1.045   5.758  -1.434  0.00  0.00    +0.260 A 
ATOM     23  N   UNK A   0      -0.079   5.056  -1.722  0.00  0.00    -0.171 NA
ATOM     24  C   UNK A   0      -0.708   5.252  -2.907  0.00  0.00    +0.298 A 
ATOM     25  O   UNK A   0      -1.929   4.959  -3.079  0.00  0.00    -0.264 OA
ATOM     26  C   UNK A   0       0.101   5.479  -4.016  0.00  0.00    +0.146 A 
ATOM     27  N   UNK A   0      -0.518   5.527  -5.252  0.00  0.00    -0.243 N 
ATOM     28  C   UNK A   0       0.374   5.678  -6.553  0.00  0.00    +0.124 C 
ATOM     29  C   UNK A   0       1.195   6.984  -5.947  0.00  0.00    +0.136 C 
ATOM     30  N   UNK A   0       1.995   6.575  -4.868  0.00  0.00    -0.217 NA
ATOM     31  C   UNK A   0      -1.865   5.927  -5.401  0.00  0.00    +0.307 C 
ATOM     32  O   UNK A   0      -2.740   5.226  -5.976  0.00  0.00    -0.265 OA
ATOM     33  C   UNK A   0       1.410   5.873  -3.766  0.00  0.00    +0.169 A 
ATOM     34  N   UNK A   0       1.841   6.047  -2.493  0.00  0.00    -0.193 NA
ENDBRANCH  20  28
ENDBRANCH  19  20
ENDBRANCH   1  19
TORSDOF 9
ENDMDL
MODEL 3
REMARK VINA RESULT:      -8.9      2.383      3.886
REMARK  Name = 
REMARK  9 active torsions:
REMARK  status: ('A' for Active; 'I' for Inactive)
REMARK    1  A    between atoms: C_12  and  C_13
REMARK    2  A    between atoms: C_13  and  N_14
REMARK    3  A    between atoms: N_14  and  C_15
REMARK    4  A    between atoms: C_18  and  C_19
REMARK    5  A    between atoms: N_21  and  CA_22
REMARK    6  A    between atoms: CA_22  and  CB_23
REMARK    7  A    between atoms: CA_22  and  C_28
REMARK    8  A    between atoms: CB_23  and  CG_24
REMARK    9  A    between atoms: CG_24  and  CD_25
REMARK                            x       y       z     vdW  Elec       q    Type
REMARK                         _______ _______ _______ _____ _____    ______ ____
ROOT
ATOM      1  C   UNK A   0       3.748   6.861  -6.355  0.00  0.00    +0.065 A 
ATOM      2  C   UNK A   0       4.492   5.780  -6.781  0.00  0.00    +0.016 A 
ATOM      3  C   UNK A   0       4.428   5.335  -8.090  0.00  0.00    +0.006 A 
ATOM      4  C   UNK A   0       3.761   6.130  -9.013  0.00  0.00    +0.055 A 
ATOM      5  C   UNK A   0       2.897   7.107  -8.540  0.00  0.00    +0.006 A 
ATOM      6  C   UNK A   0       2.713   7.292  -7.176  0.00  0.00    +0.016 A 
ENDROOT
BRANCH   4   7
ATOM      7  C   UNK A   0       4.206   6.225 -10.406  0.00  0.00    +0.265 C 
ATOM      8  N   GLU A   1       5.579   6.436 -10.758  0.00  0.00    -0.192 NA
ATOM      9  O   UNK A   0       3.318   6.031 -11.283  0.00  0.00    -0.268 OA
BRANCH   8  10
ATOM     10  CA  GLU A   1       5.886   5.621 -12.096  0.00  0.00    +0.199 C 
BRANCH  10  11
ATOM     11  C   GLU A   1       7.438   5.352 -11.670  0.00  0.00    +0.384 C 
ATOM     12  OXT GLU A   1       7.708   5.274 -10.336  0.00  0.00    -0.244 OA
ATOM     13  O   GLU A   1       7.974   4.544 -12.489  0.00  0.00    -0.244 OA
ENDBRANCH  10  11
BRANCH  10  14
ATOM     14  CB  GLU A   1       6.275   7.004 -12.927  0.00  0.00    +0.045 C 
BRANCH  14  15
ATOM     15  CG  GLU A   1       5.811   6.861 -14.300  0.00  0.00    +0.116 C 
BRANCH  15  16
ATOM     16  CD  GLU A   1       6.417   7.601 -15.374  0.00  0.00    +0.365 C 
ATOM     17  OE2 GLU A   1       7.413   6.925 -16.095  0.00  0.00    -0.246 OA
ATOM     18  OE1 GLU A   1       5.973   8.604 -15.988  0.00  0.00    -0.246 OA
ENDBRANCH  15  16
ENDBRANCH  14  15
ENDBRANCH  10  14
ENDBRANCH   8  10
ENDBRANCH   4   7
BRANCH   1  19
ATOM     19  N   UNK A   0       3.979   7.478  -5.109  0.00  0.00    -0.236 NA
BRANCH  19  20
ATOM     20  C   UNK A   0       3.217   7.200  -3.922  0.00  0.00    +0.134 C 
BRANCH  20  28
ATOM     21  N   UNK A   0      -2.085   5.119  -1.736  0.00  0.00    -0.086 NA
ATOM     22  C   UNK A   0      -0.742   5.535  -1.822  0.00  0.00    +0.260 A 
ATOM     23  N   UNK A   0      -0.213   6.405  -0.926  0.00  0.00    -0.171 NA
ATOM     24  C   UNK A   0       1.129   6.432  -0.730  0.00  0.00    +0.298 A 
ATOM     25  O   UNK A   0       1.645   6.898   0.330  0.00  0.00    -0.264 OA
ATOM     26  C   UNK A   0       1.930   6.236  -1.849  0.00  0.00    +0.146 A 
ATOM     27  N   UNK A   0       3.294   6.413  -1.691  0.00  0.00    -0.243 N 
ATOM     28  C   UNK A   0       4.235   6.303  -2.961  0.00  0.00    +0.124 C 
ATOM     29  C   UNK A   0       3.602   4.840  -3.415  0.00  0.00    +0.136 C 
ATOM     30  N   UNK A   0       2.271   5.013  -3.825  0.00  0.00    -0.217 NA
ATOM     31  C   UNK A   0       3.937   6.210  -0.449  0.00  0.00    +0.307 C 
ATOM     32  O   UNK A   0       4.652   7.081   0.115  0.00  0.00    -0.265 OA
ATOM     33  C   UNK A   0       1.328   5.650  -2.956  0.00  0.00    +0.169 A 
ATOM     34  N   UNK A   0       0.027   5.273  -2.907  0.00  0.00    -0.193 NA
ENDBRANCH  20  28
ENDBRANCH  19  20
ENDBRANCH   1  19
TORSDOF 9
ENDMDL
MODEL 4
REMARK VINA RESULT:      -8.7      2.345     10.072
REMARK  Name = 
REMARK  9 active torsions:
REMARK  status: ('A' for Active; 'I' for Inactive)
REMARK    1  A    between atoms: C_12  and  C_13
REMARK    2  A    between atoms: C_13  and  N_14
REMARK    3  A    between atoms: N_14  and  C_15
REMARK    4  A    between atoms: C_18  and  C_19
REMARK    5  A    between atoms: N_21  and  CA_22
REMARK    6  A    between atoms: CA_22  and  CB_23
REMARK    7  A    between atoms: CA_22  and  C_28
REMARK    8  A    between atoms: CB_23  and  CG_24
REMARK    9  A    between atoms: CG_24  and  CD_25
REMARK                            x       y       z     vdW  Elec       q    Type
REMARK                         _______ _______ _______ _____ _____    ______ ____
ROOT
ATOM      1  C   UNK A   0       2.947   5.245  -7.563  0.00  0.00    +0.065 A 
ATOM      2  C   UNK A   0       2.529   6.542  -7.348  0.00  0.00    +0.016 A 
ATOM      3  C   UNK A   0       1.469   6.825  -6.505  0.00  0.00    +0.006 A 
ATOM      4  C   UNK A   0       0.974   5.793  -5.719  0.00  0.00    +0.055 A 
ATOM      5  C   UNK A   0       1.292   4.488  -6.066  0.00  0.00    +0.006 A 
ATOM      6  C   UNK A   0       2.096   4.221  -7.166  0.00  0.00    +0.016 A 
ENDROOT
BRANCH   4   7
ATOM      7  C   UNK A   0       0.460   6.037  -4.368  0.00  0.00    +0.265 C 
ATOM      8  N   GLU A   1       0.895   5.275  -3.235  0.00  0.00    -0.192 NA
ATOM      9  O   UNK A   0      -0.332   7.014  -4.248  0.00  0.00    -0.268 OA
BRANCH   8  10
ATOM     10  CA  GLU A   1       0.945   6.243  -1.967  0.00  0.00    +0.199 C 
BRANCH  10  11
ATOM     11  C   GLU A   1       2.214   5.452  -1.313  0.00  0.00    +0.384 C 
ATOM     12  OXT GLU A   1       1.951   4.259  -0.707  0.00  0.00    -0.244 OA
ATOM     13  O   GLU A   1       3.235   5.593  -2.053  0.00  0.00    -0.244 OA
ENDBRANCH  10  11
BRANCH  10  14
ATOM     14  CB  GLU A   1      -0.156   5.320  -1.136  0.00  0.00    +0.045 C 
BRANCH  14  15
ATOM     15  CG  GLU A   1      -1.411   6.056  -1.063  0.00  0.00    +0.116 C 
BRANCH  15  16
ATOM     16  CD  GLU A   1      -2.513   5.740  -1.931  0.00  0.00    +0.365 C 
ATOM     17  OE2 GLU A   1      -3.283   6.830  -2.362  0.00  0.00    -0.246 OA
ATOM     18  OE1 GLU A   1      -2.692   4.714  -2.635  0.00  0.00    -0.246 OA
ENDBRANCH  15  16
ENDBRANCH  14  15
ENDBRANCH  10  14
ENDBRANCH   8  10
ENDBRANCH   4   7
BRANCH   1  19
ATOM     19  N   UNK A   0       4.163   4.954  -8.214  0.00  0.00    -0.236 NA
BRANCH  19  20
ATOM     20  C   UNK A   0       4.326   4.939  -9.642  0.00  0.00    +0.134 C 
BRANCH  20  28
ATOM     21  N   UNK A   0       1.356   6.101 -14.843  0.00  0.00    -0.086 NA
ATOM     22  C   UNK A   0       2.387   5.874 -13.912  0.00  0.00    +0.260 A 
ATOM     23  N   UNK A   0       3.395   5.003 -14.170  0.00  0.00    -0.171 NA
ATOM     24  C   UNK A   0       4.578   5.134 -13.521  0.00  0.00    +0.298 A 
ATOM     25  O   UNK A   0       5.655   4.646 -13.977  0.00  0.00    -0.264 OA
ATOM     26  C   UNK A   0       4.522   5.534 -12.190  0.00  0.00    +0.146 A 
ATOM     27  N   UNK A   0       5.706   5.523 -11.474  0.00  0.00    -0.243 N 
ATOM     28  C   UNK A   0       5.673   5.871  -9.929  0.00  0.00    +0.124 C 
ATOM     29  C   UNK A   0       4.824   7.273 -10.171  0.00  0.00    +0.136 C 
ATOM     30  N   UNK A   0       3.528   6.966 -10.615  0.00  0.00    -0.217 NA
ATOM     31  C   UNK A   0       6.962   5.696 -12.100  0.00  0.00    +0.307 C 
ATOM     32  O   UNK A   0       7.913   4.879 -11.986  0.00  0.00    -0.265 OA
ATOM     33  C   UNK A   0       3.342   6.134 -11.766  0.00  0.00    +0.169 A 
ATOM     34  N   UNK A   0       2.323   6.331 -12.637  0.00  0.00    -0.193 NA
ENDBRANCH  20  28
ENDBRANCH  19  20
ENDBRANCH   1  19
TORSDOF 9
ENDMDL
MODEL 5
REMARK VINA RESULT:      -8.7      1.369      2.249
REMARK  Name = 
REMARK  9 active torsions:
REMARK  status: ('A' for Active; 'I' for Inactive)
REMARK    1  A    between atoms: C_12  and  C_13
REMARK    2  A    between atoms: C_13  and  N_14
REMARK    3  A    between atoms: N_14  and  C_15
REMARK    4  A    between atoms: C_18  and  C_19
REMARK    5  A    between atoms: N_21  and  CA_22
REMARK    6  A    between atoms: CA_22  and  CB_23
REMARK    7  A    between atoms: CA_22  and  C_28
REMARK    8  A    between atoms: CB_23  and  CG_24
REMARK    9  A    between atoms: CG_24  and  CD_25
REMARK                            x       y       z     vdW  Elec       q    Type
REMARK                         _______ _______ _______ _____ _____    ______ ____
ROOT
ATOM      1  C   UNK A   0       0.707   5.171  -8.380  0.00  0.00    +0.065 A 
ATOM      2  C   UNK A   0       1.853   4.462  -8.082  0.00  0.00    +0.016 A 
ATOM      3  C   UNK A   0       2.923   4.424  -8.958  0.00  0.00    +0.006 A 
ATOM      4  C   UNK A   0       2.900   5.288 -10.046  0.00  0.00    +0.055 A 
ATOM      5  C   UNK A   0       1.689   5.860 -10.409  0.00  0.00    +0.006 A 
ATOM      6  C   UNK A   0       0.531   5.584  -9.694  0.00  0.00    +0.016 A 
ENDROOT
BRANCH   4   7
ATOM      7  C   UNK A   0       4.128   5.891 -10.572  0.00  0.00    +0.265 C 
ATOM      8  N   GLU A   1       4.995   5.195 -11.475  0.00  0.00    -0.192 NA
ATOM      9  O   UNK A   0       4.335   7.094 -10.244  0.00  0.00    -0.268 OA
BRANCH   8  10
ATOM     10  CA  GLU A   1       5.600   6.253 -12.506  0.00  0.00    +0.199 C 
BRANCH  10  11
ATOM     11  C   GLU A   1       4.993   5.461 -13.797  0.00  0.00    +0.384 C 
ATOM     12  OXT GLU A   1       4.357   4.280 -13.553  0.00  0.00    -0.244 OA
ATOM     13  O   GLU A   1       4.518   6.295 -14.627  0.00  0.00    -0.244 OA
ENDBRANCH  10  11
BRANCH  10  14
ATOM     14  CB  GLU A   1       7.046   5.441 -12.593  0.00  0.00    +0.045 C 
BRANCH  14  15
ATOM     15  CG  GLU A   1       8.028   6.164 -11.798  0.00  0.00    +0.116 C 
BRANCH  15  16
ATOM     16  CD  GLU A   1       7.655   6.845 -10.587  0.00  0.00    +0.365 C 
ATOM     17  OE2 GLU A   1       7.630   6.056  -9.427  0.00  0.00    -0.246 OA
ATOM     18  OE1 GLU A   1       7.686   8.076 -10.335  0.00  0.00    -0.246 OA
ENDBRANCH  15  16
ENDBRANCH  14  15
ENDBRANCH  10  14
ENDBRANCH   8  10
ENDBRANCH   4   7
BRANCH   1  19
ATOM     19  N   UNK A   0      -0.284   5.423  -7.410  0.00  0.00    -0.236 NA
BRANCH  19  20
ATOM     20  C   UNK A   0      -0.099   5.215  -6.000  0.00  0.00    +0.134 C 
BRANCH  20  28
ATOM     21  N   UNK A   0       4.067   6.588  -1.760  0.00  0.00    -0.086 NA
ATOM     22  C   UNK A   0       2.849   6.256  -2.382  0.00  0.00    +0.260 A 
ATOM     23  N   UNK A   0       2.069   5.248  -1.917  0.00  0.00    -0.171 NA
ATOM     24  C   UNK A   0       0.743   5.239  -2.201  0.00  0.00    +0.298 A 
ATOM     25  O   UNK A   0      -0.092   4.594  -1.499  0.00  0.00    -0.264 OA
ATOM     26  C   UNK A   0       0.369   5.689  -3.462  0.00  0.00    +0.146 A 
ATOM     27  N   UNK A   0      -0.960   5.543  -3.819  0.00  0.00    -0.243 N 
ATOM     28  C   UNK A   0      -1.411   5.945  -5.284  0.00  0.00    +0.124 C 
ATOM     29  C   UNK A   0      -0.703   7.440  -5.188  0.00  0.00    +0.136 C 
ATOM     30  N   UNK A   0       0.693   7.296  -5.145  0.00  0.00    -0.217 NA
ATOM     31  C   UNK A   0      -1.997   5.521  -2.859  0.00  0.00    +0.307 C 
ATOM     32  O   UNK A   0      -2.836   4.587  -2.762  0.00  0.00    -0.265 OA
ATOM     33  C   UNK A   0       1.298   6.458  -4.154  0.00  0.00    +0.169 A 
ATOM     34  N   UNK A   0       2.492   6.761  -3.588  0.00  0.00    -0.193 NA
ENDBRANCH  20  28
ENDBRANCH  19  20
ENDBRANCH   1  19
TORSDOF 9
ENDMDL
MODEL 6
REMARK VINA RESULT:      -8.5      2.414     10.251
REMARK  Name = 
REMARK  9 active torsions:
REMARK  status: ('A' for Active; 'I' for Inactive)
REMARK    1  A    between atoms: C_12  and  C_13
REMARK    2  A    between atoms: C_13  and  N_14
REMARK    3  A    between atoms: N_14  and  C_15
REMARK    4  A    between atoms: C_18  and  C_19
REMARK    5  A    between atoms: N_21  and  CA_22
REMARK    6  A    between atoms: CA_22  and  CB_23
REMARK    7  A    between atoms: CA_22  and  C_28
REMARK    8  A    between atoms: CB_23  and  CG_24
REMARK    9  A    between atoms: CG_24  and  CD_25
REMARK                            x       y       z     vdW  Elec       q    Type
REMARK                         _______ _______ _______ _____ _____    ______ ____
ROOT
ATOM      1  C   UNK A   0       1.919   4.734  -6.441  0.00  0.00    +0.065 A 
ATOM      2  C   UNK A   0       2.767   5.072  -5.406  0.00  0.00    +0.016 A 
ATOM      3  C   UNK A   0       2.286   5.639  -4.239  0.00  0.00    +0.006 A 
ATOM      4  C   UNK A   0       0.911   5.666  -4.051  0.00  0.00    +0.055 A 
ATOM      5  C   UNK A   0       0.090   5.477  -5.153  0.00  0.00    +0.006 A 
ATOM      6  C   UNK A   0       0.631   5.256  -6.412  0.00  0.00    +0.016 A 
ENDROOT
BRANCH   4   7
ATOM      7  C   UNK A   0       0.316   5.514  -2.719  0.00  0.00    +0.265 C 
ATOM      8  N   GLU A   1      -0.559   6.500  -2.156  0.00  0.00    -0.192 NA
ATOM      9  O   UNK A   0       0.557   4.424  -2.129  0.00  0.00    -0.268 OA
BRANCH   8  10
ATOM     10  CA  GLU A   1      -1.673   5.748  -1.294  0.00  0.00    +0.199 C 
BRANCH  10  11
ATOM     11  C   GLU A   1      -2.745   5.761  -2.524  0.00  0.00    +0.384 C 
ATOM     12  OXT GLU A   1      -3.053   4.558  -3.087  0.00  0.00    -0.244 OA
ATOM     13  O   GLU A   1      -3.650   6.621  -2.296  0.00  0.00    -0.244 OA
ENDBRANCH  10  11
BRANCH  10  14
ATOM     14  CB  GLU A   1      -2.251   7.176  -0.675  0.00  0.00    +0.045 C 
BRANCH  14  15
ATOM     15  CG  GLU A   1      -1.750   7.324   0.684  0.00  0.00    +0.116 C 
BRANCH  15  16
ATOM     16  CD  GLU A   1      -0.480   7.945   0.948  0.00  0.00    +0.365 C 
ATOM     17  OE2 GLU A   1       0.605   7.071   1.113  0.00  0.00    -0.246 OA
ATOM     18  OE1 GLU A   1      -0.119   9.127   0.716  0.00  0.00    -0.246 OA
ENDBRANCH  15  16
ENDBRANCH  14  15
ENDBRANCH  10  14
ENDBRANCH   8  10
ENDBRANCH   4   7
BRANCH   1  19
ATOM     19  N   UNK A   0       2.347   3.940  -7.523  0.00  0.00    -0.236 NA
BRANCH  19  20
ATOM     20  C   UNK A   0       2.824   4.471  -8.770  0.00  0.00    +0.134 C 
BRANCH  20  28
ATOM     21  N   UNK A   0       2.229   5.963 -14.656  0.00  0.00    -0.086 NA
ATOM     22  C   UNK A   0       2.776   5.758 -13.375  0.00  0.00    +0.260 A 
ATOM     23  N   UNK A   0       3.958   5.114 -13.206  0.00  0.00    -0.171 NA
ATOM     24  C   UNK A   0       4.684   5.327 -12.080  0.00  0.00    +0.298 A 
ATOM     25  O   UNK A   0       5.929   5.099 -12.028  0.00  0.00    -0.264 OA
ATOM     26  C   UNK A   0       3.971   5.493 -10.897  0.00  0.00    +0.146 A 
ATOM     27  N   UNK A   0       4.699   5.558  -9.722  0.00  0.00    -0.243 N 
ATOM     28  C   UNK A   0       3.926   5.642  -8.342  0.00  0.00    +0.124 C 
ATOM     29  C   UNK A   0       2.984   6.909  -8.845  0.00  0.00    +0.136 C 
ATOM     30  N   UNK A   0       2.109   6.473  -9.852  0.00  0.00    -0.217 NA
ATOM     31  C   UNK A   0       6.032   6.029  -9.691  0.00  0.00    +0.307 C 
ATOM     32  O   UNK A   0       6.992   5.368  -9.214  0.00  0.00    -0.265 OA
ATOM     33  C   UNK A   0       2.625   5.819 -11.017  0.00  0.00    +0.169 A 
ATOM     34  N   UNK A   0       2.068   5.987 -12.242  0.00  0.00    -0.193 NA
ENDBRANCH  20  28
ENDBRANCH  19  20
ENDBRANCH   1  19
TORSDOF 9
ENDMDL
MODEL 7
REMARK VINA RESULT:      -8.5      2.427     10.210
REMARK  Name = 
REMARK  9 active torsions:
REMARK  status: ('A' for Active; 'I' for Inactive)
REMARK    1  A    between atoms: C_12  and  C_13
REMARK    2  A    between atoms: C_13  and  N_14
REMARK    3  A    between atoms: N_14  and  C_15
REMARK    4  A    between atoms: C_18  and  C_19
REMARK    5  A    between atoms: N_21  and  CA_22
REMARK    6  A    between atoms: CA_22  and  CB_23
REMARK    7  A    between atoms: CA_22  and  C_28
REMARK    8  A    between atoms: CB_23  and  CG_24
REMARK    9  A    between atoms: CG_24  and  CD_25
REMARK                            x       y       z     vdW  Elec       q    Type
REMARK                         _______ _______ _______ _____ _____    ______ ____
ROOT
ATOM      1  C   UNK A   0       2.278   4.126  -7.997  0.00  0.00    +0.065 A 
ATOM      2  C   UNK A   0       1.251   4.891  -8.510  0.00  0.00    +0.016 A 
ATOM      3  C   UNK A   0       0.205   5.319  -7.711  0.00  0.00    +0.006 A 
ATOM      4  C   UNK A   0       0.324   5.139  -6.339  0.00  0.00    +0.055 A 
ATOM      5  C   UNK A   0       1.268   4.238  -5.870  0.00  0.00    +0.006 A 
ATOM      6  C   UNK A   0       2.084   3.541  -6.753  0.00  0.00    +0.016 A 
ENDROOT
BRANCH   4   7
ATOM      7  C   UNK A   0      -0.230   6.108  -5.388  0.00  0.00    +0.265 C 
ATOM      8  N   GLU A   1      -1.133   5.724  -4.345  0.00  0.00    -0.192 NA
ATOM      9  O   UNK A   0       0.201   7.291  -5.493  0.00  0.00    -0.268 OA
BRANCH   8  10
ATOM     10  CA  GLU A   1      -0.830   6.623  -3.061  0.00  0.00    +0.199 C 
BRANCH  10  11
ATOM     11  C   GLU A   1       0.361   5.632  -2.550  0.00  0.00    +0.384 C 
ATOM     12  OXT GLU A   1       1.538   6.217  -2.186  0.00  0.00    -0.244 OA
ATOM     13  O   GLU A   1      -0.133   4.685  -1.864  0.00  0.00    -0.244 OA
ENDBRANCH  10  11
BRANCH  10  14
ATOM     14  CB  GLU A   1      -1.977   5.835  -2.156  0.00  0.00    +0.045 C 
BRANCH  14  15
ATOM     15  CG  GLU A   1      -2.703   6.824  -1.372  0.00  0.00    +0.116 C 
BRANCH  15  16
ATOM     16  CD  GLU A   1      -2.120   7.428  -0.205  0.00  0.00    +0.365 C 
ATOM     17  OE2 GLU A   1      -1.859   6.559   0.866  0.00  0.00    -0.246 OA
ATOM     18  OE1 GLU A   1      -1.494   8.514  -0.109  0.00  0.00    -0.246 OA
ENDBRANCH  15  16
ENDBRANCH  14  15
ENDBRANCH  10  14
ENDBRANCH   8  10
ENDBRANCH   4   7
BRANCH   1  19
ATOM     19  N   UNK A   0       3.463   3.890  -8.724  0.00  0.00    -0.236 NA
BRANCH  19  20
ATOM     20  C   UNK A   0       3.909   4.707  -9.820  0.00  0.00    +0.134 C 
BRANCH  20  28
ATOM     21  N   UNK A   0       4.636   6.275 -15.670  0.00  0.00    -0.086 NA
ATOM     22  C   UNK A   0       4.900   5.993 -14.316  0.00  0.00    +0.260 A 
ATOM     23  N   UNK A   0       5.930   5.189 -13.949  0.00  0.00    -0.171 NA
ATOM     24  C   UNK A   0       6.454   5.296 -12.703  0.00  0.00    +0.298 A 
ATOM     25  O   UNK A   0       7.624   4.895 -12.428  0.00  0.00    -0.264 OA
ATOM     26  C   UNK A   0       5.563   5.560 -11.669  0.00  0.00    +0.146 A 
ATOM     27  N   UNK A   0       6.061   5.520 -10.378  0.00  0.00    -0.243 N 
ATOM     28  C   UNK A   0       5.062   5.710  -9.163  0.00  0.00    +0.124 C 
ATOM     29  C   UNK A   0       4.414   7.098  -9.796  0.00  0.00    +0.136 C 
ATOM     30  N   UNK A   0       3.692   6.790 -10.959  0.00  0.00    -0.217 NA
ATOM     31  C   UNK A   0       7.416   5.798 -10.088  0.00  0.00    +0.307 C 
ATOM     32  O   UNK A   0       8.169   5.008  -9.460  0.00  0.00    -0.265 OA
ATOM     33  C   UNK A   0       4.321   6.072 -12.027  0.00  0.00    +0.169 A 
ATOM     34  N   UNK A   0       4.032   6.318 -13.328  0.00  0.00    -0.193 NA
ENDBRANCH  20  28
ENDBRANCH  19  20
ENDBRANCH   1  19
TORSDOF 9
ENDMDL
MODEL 8
REMARK VINA RESULT:      -8.4      3.741      9.524
REMARK  Name = 
REMARK  9 active torsions:
REMARK  status: ('A' for Active; 'I' for Inactive)
REMARK    1  A    between atoms: C_12  and  C_13
REMARK    2  A    between atoms: C_13  and  N_14
REMARK    3  A    between atoms: N_14  and  C_15
REMARK    4  A    between atoms: C_18  and  C_19
REMARK    5  A    between atoms: N_21  and  CA_22
REMARK    6  A    between atoms: CA_22  and  CB_23
REMARK    7  A    between atoms: CA_22  and  C_28
REMARK    8  A    between atoms: CB_23  and  CG_24
REMARK    9  A    between atoms: CG_24  and  CD_25
REMARK                            x       y       z     vdW  Elec       q    Type
REMARK                         _______ _______ _______ _____ _____    ______ ____
ROOT
ATOM      1  C   UNK A   0       4.240   6.013  -5.343  0.00  0.00    +0.065 A 
ATOM      2  C   UNK A   0       4.508   4.978  -4.470  0.00  0.00    +0.016 A 
ATOM      3  C   UNK A   0       4.070   5.013  -3.158  0.00  0.00    +0.006 A 
ATOM      4  C   UNK A   0       3.176   6.014  -2.800  0.00  0.00    +0.055 A 
ATOM      5  C   UNK A   0       3.053   7.118  -3.632  0.00  0.00    +0.006 A 
ATOM      6  C   UNK A   0       3.799   7.213  -4.800  0.00  0.00    +0.016 A 
ENDROOT
BRANCH   4   7
ATOM      7  C   UNK A   0       2.120   5.782  -1.811  0.00  0.00    +0.265 C 
ATOM      8  N   GLU A   1       0.814   6.358  -1.936  0.00  0.00    -0.192 NA
ATOM      9  O   UNK A   0       2.404   4.976  -0.880  0.00  0.00    -0.268 OA
BRANCH   8  10
ATOM     10  CA  GLU A   1      -0.253   5.311  -1.378  0.00  0.00    +0.199 C 
BRANCH  10  11
ATOM     11  C   GLU A   1      -1.185   5.429  -2.713  0.00  0.00    +0.384 C 
ATOM     12  OXT GLU A   1      -0.549   5.356  -3.917  0.00  0.00    -0.244 OA
ATOM     13  O   GLU A   1      -2.286   4.828  -2.522  0.00  0.00    -0.244 OA
ENDBRANCH  10  11
BRANCH  10  14
ATOM     14  CB  GLU A   1      -1.103   6.498  -0.588  0.00  0.00    +0.045 C 
BRANCH  14  15
ATOM     15  CG  GLU A   1      -0.261   7.041   0.468  0.00  0.00    +0.116 C 
BRANCH  15  16
ATOM     16  CD  GLU A   1      -0.259   8.446   0.774  0.00  0.00    +0.365 C 
ATOM     17  OE2 GLU A   1       0.995   9.074   0.750  0.00  0.00    -0.246 OA
ATOM     18  OE1 GLU A   1      -1.211   9.265   0.719  0.00  0.00    -0.246 OA
ENDBRANCH  15  16
ENDBRANCH  14  15
ENDBRANCH  10  14
ENDBRANCH   8  10
ENDBRANCH   4   7
BRANCH   1  19
ATOM     19  N   UNK A   0       4.460   5.891  -6.730  0.00  0.00    -0.236 NA
BRANCH  19  20
ATOM     20  C   UNK A   0       3.445   6.105  -7.725  0.00  0.00    +0.134 C 
BRANCH  20  28
ATOM     21  N   UNK A   0       2.867   6.116 -13.798  0.00  0.00    -0.086 NA
ATOM     22  C   UNK A   0       2.568   6.043 -12.424  0.00  0.00    +0.260 A 
ATOM     23  N   UNK A   0       1.537   6.742 -11.887  0.00  0.00    -0.171 NA
ATOM     24  C   UNK A   0       0.976   6.325 -10.725  0.00  0.00    +0.298 A 
ATOM     25  O   UNK A   0      -0.197   6.662 -10.384  0.00  0.00    -0.264 OA
ATOM     26  C   UNK A   0       1.835   5.788  -9.772  0.00  0.00    +0.146 A 
ATOM     27  N   UNK A   0       1.302   5.502  -8.528  0.00  0.00    -0.243 N 
ATOM     28  C   UNK A   0       2.264   4.987  -7.380  0.00  0.00    +0.124 C 
ATOM     29  C   UNK A   0       2.915   3.798  -8.334  0.00  0.00    +0.136 C 
ATOM     30  N   UNK A   0       3.673   4.384  -9.360  0.00  0.00    -0.217 NA
ATOM     31  C   UNK A   0      -0.064   5.181  -8.353  0.00  0.00    +0.307 C 
ATOM     32  O   UNK A   0      -0.826   5.794  -7.561  0.00  0.00    -0.265 OA
ATOM     33  C   UNK A   0       3.081   5.365 -10.220  0.00  0.00    +0.169 A 
ATOM     34  N   UNK A   0       3.404   5.458 -11.533  0.00  0.00    -0.193 NA
ENDBRANCH  20  28
ENDBRANCH  19  20
ENDBRANCH   1  19
TORSDOF 9
ENDMDL
MODEL 9
REMARK VINA RESULT:      -8.3      2.915     10.043
REMARK  Name = 
REMARK  9 active torsions:
REMARK  status: ('A' for Active; 'I' for Inactive)
REMARK    1  A    between atoms: C_12  and  C_13
REMARK    2  A    between atoms: C_13  and  N_14
REMARK    3  A    between atoms: N_14  and  C_15
REMARK    4  A    between atoms: C_18  and  C_19
REMARK    5  A    between atoms: N_21  and  CA_22
REMARK    6  A    between atoms: CA_22  and  CB_23
REMARK    7  A    between atoms: CA_22  and  C_28
REMARK    8  A    between atoms: CB_23  and  CG_24
REMARK    9  A    between atoms: CG_24  and  CD_25
REMARK                            x       y       z     vdW  Elec       q    Type
REMARK                         _______ _______ _______ _____ _____    ______ ____
ROOT
ATOM      1  C   UNK A   0       1.968   6.174  -6.122  0.00  0.00    +0.065 A 
ATOM      2  C   UNK A   0       0.634   5.831  -6.039  0.00  0.00    +0.016 A 
ATOM      3  C   UNK A   0       0.108   5.262  -4.893  0.00  0.00    +0.006 A 
ATOM      4  C   UNK A   0       0.906   5.239  -3.756  0.00  0.00    +0.055 A 
ATOM      5  C   UNK A   0       2.271   5.433  -3.905  0.00  0.00    +0.006 A 
ATOM      6  C   UNK A   0       2.825   5.657  -5.159  0.00  0.00    +0.016 A 
ENDROOT
BRANCH   4   7
ATOM      7  C   UNK A   0       0.334   5.389  -2.415  0.00  0.00    +0.265 C 
ATOM      8  N   GLU A   1      -0.584   6.440  -2.089  0.00  0.00    -0.192 NA
ATOM      9  O   UNK A   0       0.637   4.488  -1.583  0.00  0.00    -0.268 OA
BRANCH   8  10
ATOM     10  CA  GLU A   1      -1.649   5.870  -1.045  0.00  0.00    +0.199 C 
BRANCH  10  11
ATOM     11  C   GLU A   1      -2.842   5.843  -2.157  0.00  0.00    +0.384 C 
ATOM     12  OXT GLU A   1      -3.003   6.963  -2.917  0.00  0.00    -0.244 OA
ATOM     13  O   GLU A   1      -2.918   4.688  -2.678  0.00  0.00    -0.244 OA
ENDBRANCH  10  11
BRANCH  10  14
ATOM     14  CB  GLU A   1      -2.059   7.394  -0.531  0.00  0.00    +0.045 C 
BRANCH  14  15
ATOM     15  CG  GLU A   1      -0.897   7.991   0.112  0.00  0.00    +0.116 C 
BRANCH  15  16
ATOM     16  CD  GLU A   1      -0.320   7.415   1.296  0.00  0.00    +0.365 C 
ATOM     17  OE2 GLU A   1      -1.230   7.006   2.282  0.00  0.00    -0.246 OA
ATOM     18  OE1 GLU A   1       0.819   6.905   1.448  0.00  0.00    -0.246 OA
ENDBRANCH  15  16
ENDBRANCH  14  15
ENDBRANCH  10  14
ENDBRANCH   8  10
ENDBRANCH   4   7
BRANCH   1  19
ATOM     19  N   UNK A   0       2.467   6.970  -7.172  0.00  0.00    -0.236 NA
BRANCH  19  20
ATOM     20  C   UNK A   0       2.859   6.454  -8.455  0.00  0.00    +0.134 C 
BRANCH  20  28
ATOM     21  N   UNK A   0       6.746   5.283 -13.009  0.00  0.00    -0.086 NA
ATOM     22  C   UNK A   0       5.560   5.433 -12.266  0.00  0.00    +0.260 A 
ATOM     23  N   UNK A   0       4.493   6.106 -12.765  0.00  0.00    -0.171 NA
ATOM     24  C   UNK A   0       3.252   5.854 -12.280  0.00  0.00    +0.298 A 
ATOM     25  O   UNK A   0       2.203   6.121 -12.939  0.00  0.00    -0.264 OA
ATOM     26  C   UNK A   0       3.154   5.595 -10.917  0.00  0.00    +0.146 A 
ATOM     27  N   UNK A   0       1.882   5.488 -10.382  0.00  0.00    -0.243 N 
ATOM     28  C   UNK A   0       1.719   5.299  -8.818  0.00  0.00    +0.124 C 
ATOM     29  C   UNK A   0       2.785   4.031  -8.770  0.00  0.00    +0.136 C 
ATOM     30  N   UNK A   0       4.078   4.495  -9.058  0.00  0.00    -0.217 NA
ATOM     31  C   UNK A   0       0.777   5.062 -11.155  0.00  0.00    +0.307 C 
ATOM     32  O   UNK A   0      -0.286   5.727 -11.274  0.00  0.00    -0.265 OA
ATOM     33  C   UNK A   0       4.324   5.231 -10.262  0.00  0.00    +0.169 A 
ATOM     34  N   UNK A   0       5.486   5.115 -10.950  0.00  0.00    -0.193 NA
ENDBRANCH  20  28
ENDBRANCH  19  20
ENDBRANCH   1  19
TORSDOF 9
ENDMDL
