MODEL 1
REMARK VINA RESULT:      -9.0      0.000      0.000
REMARK  Name = 
REMARK  1 active torsions:
REMARK  status: ('A' for Active; 'I' for Inactive)
REMARK    1  A    between atoms: C_14  and  C_15
REMARK                            x       y       z     vdW  Elec       q    Type
REMARK                         _______ _______ _______ _____ _____    ______ ____
ROOT
ATOM      1  C   UNL     1      -0.856   5.609  -7.805  0.00  0.00    +0.072 C 
ATOM      2  C   UNL     1       0.584   5.336  -7.517  0.00  0.00    +0.124 A 
ATOM      3  N   UNL     1       1.542   5.325  -8.451  0.00  0.00    -0.295 N 
ATOM      4  C   UNL     1       1.428   5.838  -9.785  0.00  0.00    +0.066 A 
ATOM      5  C   UNL     1       2.395   5.954 -10.767  0.00  0.00    +0.034 A 
ATOM      6  C   UNL     1       3.768   5.435 -10.757  0.00  0.00    +0.080 C 
ATOM      7  N   UNL     1       4.270   4.713  -9.819  0.00  0.00    -0.264 NA
ATOM      8  C   UNL     1       3.707   3.949  -8.734  0.00  0.00    +0.171 C 
ATOM      9  C   UNL     1       2.132   6.436 -12.035  0.00  0.00    +0.014 A 
ATOM     10  C   UNL     1       0.825   6.833 -12.290  0.00  0.00    +0.058 A 
ATOM     11 CL   UNL     1       0.198   6.944 -13.930  0.00  0.00    -0.082 Cl
ATOM     12  C   UNL     1      -0.029   7.036 -11.211  0.00  0.00    +0.013 A 
ATOM     13  C   UNL     1       0.184   6.369 -10.011  0.00  0.00    +0.018 A 
ATOM     14  C   UNL     1       2.655   4.702  -7.991  0.00  0.00    +0.086 A 
ATOM     15  C   UNL     1       2.453   4.612  -6.619  0.00  0.00    +0.115 A 
ATOM     16  N   UNL     1       1.163   4.938  -6.377  0.00  0.00    -0.229 NA
ENDROOT
BRANCH   6  17
ATOM     17  C   UNL     1       4.721   6.302 -11.462  0.00  0.00    +0.045 A 
ATOM     18  C   UNL     1       5.447   5.789 -12.529  0.00  0.00    +0.142 A 
ATOM     19  F   UNL     1       4.957   4.713 -13.175  0.00  0.00    -0.204 F 
ATOM     20  C   UNL     1       6.757   6.183 -12.775  0.00  0.00    +0.030 A 
ATOM     21  C   UNL     1       7.345   7.108 -11.921  0.00  0.00    +0.002 A 
ATOM     22  C   UNL     1       6.458   7.967 -11.282  0.00  0.00    +0.000 A 
ATOM     23  C   UNL     1       5.259   7.417 -10.841  0.00  0.00    +0.004 A 
ENDBRANCH   6  17
TORSDOF 1
ENDMDL
MODEL 2
REMARK VINA RESULT:      -8.6      5.989      7.286
REMARK  Name = 
REMARK  1 active torsions:
REMARK  status: ('A' for Active; 'I' for Inactive)
REMARK    1  A    between atoms: C_14  and  C_15
REMARK                            x       y       z     vdW  Elec       q    Type
REMARK                         _______ _______ _______ _____ _____    ______ ____
ROOT
ATOM      1  C   UNL     1      -3.716   6.507  -2.619  0.00  0.00    +0.072 C 
ATOM      2  C   UNL     1      -2.490   6.540  -1.766  0.00  0.00    +0.124 A 
ATOM      3  N   UNL     1      -1.265   6.229  -2.207  0.00  0.00    -0.295 N 
ATOM      4  C   UNL     1      -0.869   6.100  -3.578  0.00  0.00    +0.066 A 
ATOM      5  C   UNL     1       0.388   5.883  -4.113  0.00  0.00    +0.034 A 
ATOM      6  C   UNL     1       1.635   5.569  -3.405  0.00  0.00    +0.080 C 
ATOM      7  N   UNL     1       1.729   5.381  -2.137  0.00  0.00    -0.264 NA
ATOM      8  C   UNL     1       0.773   5.105  -1.093  0.00  0.00    +0.171 C 
ATOM      9  C   UNL     1       0.620   5.740  -5.467  0.00  0.00    +0.014 A 
ATOM     10  C   UNL     1      -0.486   5.846  -6.301  0.00  0.00    +0.058 A 
ATOM     11 CL   UNL     1      -0.483   5.170  -7.927  0.00  0.00    -0.082 Cl
ATOM     12  C   UNL     1      -1.653   6.402  -5.789  0.00  0.00    +0.013 A 
ATOM     13  C   UNL     1      -1.918   6.345  -4.426  0.00  0.00    +0.018 A 
ATOM     14  C   UNL     1      -0.427   5.988  -1.170  0.00  0.00    +0.086 A 
ATOM     15  C   UNL     1      -1.106   6.478  -0.060  0.00  0.00    +0.115 A 
ATOM     16  N   UNL     1      -2.377   6.738  -0.445  0.00  0.00    -0.229 NA
ENDROOT
BRANCH   6  17
ATOM     17  C   UNL     1       2.826   6.143  -4.044  0.00  0.00    +0.045 A 
ATOM     18  C   UNL     1       3.811   5.294  -4.533  0.00  0.00    +0.142 A 
ATOM     19  F   UNL     1       3.470   4.025  -4.829  0.00  0.00    -0.204 F 
ATOM     20  C   UNL     1       5.157   5.635  -4.478  0.00  0.00    +0.030 A 
ATOM     21  C   UNL     1       5.513   6.853  -3.912  0.00  0.00    +0.002 A 
ATOM     22  C   UNL     1       4.538   7.841  -3.980  0.00  0.00    +0.000 A 
ATOM     23  C   UNL     1       3.223   7.441  -3.770  0.00  0.00    +0.004 A 
ENDBRANCH   6  17
TORSDOF 1
ENDMDL
MODEL 3
REMARK VINA RESULT:      -8.5      4.857      8.111
REMARK  Name = 
REMARK  1 active torsions:
REMARK  status: ('A' for Active; 'I' for Inactive)
REMARK    1  A    between atoms: C_14  and  C_15
REMARK                            x       y       z     vdW  Elec       q    Type
REMARK                         _______ _______ _______ _____ _____    ______ ____
ROOT
ATOM      1  C   UNL     1       5.637   5.500  -7.778  0.00  0.00    +0.072 C 
ATOM      2  C   UNL     1       4.215   5.092  -7.982  0.00  0.00    +0.124 A 
ATOM      3  N   UNL     1       3.269   5.185  -7.040  0.00  0.00    -0.295 N 
ATOM      4  C   UNL     1       3.363   5.929  -5.819  0.00  0.00    +0.066 A 
ATOM      5  C   UNL     1       2.401   6.154  -4.851  0.00  0.00    +0.034 A 
ATOM      6  C   UNL     1       1.065   5.557  -4.741  0.00  0.00    +0.080 C 
ATOM      7  N   UNL     1       0.601   4.653  -5.528  0.00  0.00    -0.264 NA
ATOM      8  C   UNL     1       1.202   3.747  -6.475  0.00  0.00    +0.171 C 
ATOM      9  C   UNL     1       2.646   6.867  -3.693  0.00  0.00    +0.014 A 
ATOM     10  C   UNL     1       3.927   7.383  -3.540  0.00  0.00    +0.058 A 
ATOM     11 CL   UNL     1       4.562   7.819  -1.957  0.00  0.00    -0.082 Cl
ATOM     12  C   UNL     1       4.754   7.447  -4.655  0.00  0.00    +0.013 A 
ATOM     13  C   UNL     1       4.573   6.568  -5.716  0.00  0.00    +0.018 A 
ATOM     14  C   UNL     1       2.195   4.423  -7.360  0.00  0.00    +0.086 A 
ATOM     15  C   UNL     1       2.387   4.106  -8.700  0.00  0.00    +0.115 A 
ATOM     16  N   UNL     1       3.651   4.464  -9.023  0.00  0.00    -0.229 NA
ENDROOT
BRANCH   6  17
ATOM     17  C   UNL     1       0.065   6.473  -4.178  0.00  0.00    +0.045 A 
ATOM     18  C   UNL     1      -0.599   6.121  -3.010  0.00  0.00    +0.142 A 
ATOM     19  F   UNL     1      -0.017   5.221  -2.192  0.00  0.00    -0.204 F 
ATOM     20  C   UNL     1      -1.929   6.462  -2.797  0.00  0.00    +0.030 A 
ATOM     21  C   UNL     1      -2.601   7.168  -3.787  0.00  0.00    +0.002 A 
ATOM     22  C   UNL     1      -1.794   7.951  -4.604  0.00  0.00    +0.000 A 
ATOM     23  C   UNL     1      -0.567   7.412  -4.976  0.00  0.00    +0.004 A 
ENDBRANCH   6  17
TORSDOF 1
ENDMDL
MODEL 4
REMARK VINA RESULT:      -8.5      4.587      7.008
REMARK  Name = 
REMARK  1 active torsions:
REMARK  status: ('A' for Active; 'I' for Inactive)
REMARK    1  A    between atoms: C_14  and  C_15
REMARK                            x       y       z     vdW  Elec       q    Type
REMARK                         _______ _______ _______ _____ _____    ______ ____
ROOT
ATOM      1  C   UNL     1      -1.025   5.923  -0.659  0.00  0.00    +0.072 C 
ATOM      2  C   UNL     1      -1.559   5.552  -2.004  0.00  0.00    +0.124 A 
ATOM      3  N   UNL     1      -0.928   5.812  -3.155  0.00  0.00    -0.295 N 
ATOM      4  C   UNL     1       0.443   6.205  -3.297  0.00  0.00    +0.066 A 
ATOM      5  C   UNL     1       1.189   6.392  -4.446  0.00  0.00    +0.034 A 
ATOM      6  C   UNL     1       0.728   6.388  -5.839  0.00  0.00    +0.080 C 
ATOM      7  N   UNL     1      -0.499   6.267  -6.204  0.00  0.00    -0.264 NA
ATOM      8  C   UNL     1      -1.763   6.405  -5.524  0.00  0.00    +0.171 C 
ATOM      9  C   UNL     1       2.504   6.814  -4.434  0.00  0.00    +0.014 A 
ATOM     10  C   UNL     1       3.076   7.032  -3.187  0.00  0.00    +0.058 A 
ATOM     11 CL   UNL     1       4.492   8.057  -2.987  0.00  0.00    -0.082 Cl
ATOM     12  C   UNL     1       2.439   6.512  -2.065  0.00  0.00    +0.013 A 
ATOM     13  C   UNL     1       1.068   6.285  -2.078  0.00  0.00    +0.018 A 
ATOM     14  C   UNL     1      -1.780   5.709  -4.204  0.00  0.00    +0.086 A 
ATOM     15  C   UNL     1      -2.891   5.059  -3.680  0.00  0.00    +0.115 A 
ATOM     16  N   UNL     1      -2.755   5.045  -2.335  0.00  0.00    -0.229 NA
ENDROOT
BRANCH   6  17
ATOM     17  C   UNL     1       1.718   5.842  -6.777  0.00  0.00    +0.045 A 
ATOM     18  C   UNL     1       2.143   6.618  -7.847  0.00  0.00    +0.142 A 
ATOM     19  F   UNL     1       2.013   7.956  -7.755  0.00  0.00    -0.204 F 
ATOM     20  C   UNL     1       2.445   6.054  -9.081  0.00  0.00    +0.030 A 
ATOM     21  C   UNL     1       2.309   4.680  -9.236  0.00  0.00    +0.002 A 
ATOM     22  C   UNL     1       2.448   3.939  -8.068  0.00  0.00    +0.000 A 
ATOM     23  C   UNL     1       1.887   4.474  -6.914  0.00  0.00    +0.004 A 
ENDBRANCH   6  17
TORSDOF 1
ENDMDL
MODEL 5
REMARK VINA RESULT:      -8.3      4.861      8.602
REMARK  Name = 
REMARK  1 active torsions:
REMARK  status: ('A' for Active; 'I' for Inactive)
REMARK    1  A    between atoms: C_14  and  C_15
REMARK                            x       y       z     vdW  Elec       q    Type
REMARK                         _______ _______ _______ _____ _____    ______ ____
ROOT
ATOM      1  C   UNL     1       4.508   6.175  -6.469  0.00  0.00    +0.072 C 
ATOM      2  C   UNL     1       3.238   6.414  -7.218  0.00  0.00    +0.124 A 
ATOM      3  N   UNL     1       2.022   6.149  -6.727  0.00  0.00    -0.295 N 
ATOM      4  C   UNL     1       1.704   5.881  -5.355  0.00  0.00    +0.066 A 
ATOM      5  C   UNL     1       0.470   5.700  -4.758  0.00  0.00    +0.034 A 
ATOM      6  C   UNL     1      -0.843   5.579  -5.402  0.00  0.00    +0.080 C 
ATOM      7  N   UNL     1      -1.034   5.560  -6.674  0.00  0.00    -0.264 NA
ATOM      8  C   UNL     1      -0.176   5.342  -7.812  0.00  0.00    +0.171 C 
ATOM      9  C   UNL     1       0.314   5.407  -3.417  0.00  0.00    +0.014 A 
ATOM     10  C   UNL     1       1.476   5.318  -2.661  0.00  0.00    +0.058 A 
ATOM     11 CL   UNL     1       1.518   4.446  -1.132  0.00  0.00    -0.082 Cl
ATOM     12  C   UNL     1       2.653   5.839  -3.188  0.00  0.00    +0.013 A 
ATOM     13  C   UNL     1       2.824   5.933  -4.564  0.00  0.00    +0.018 A 
ATOM     14  C   UNL     1       1.100   6.109  -7.720  0.00  0.00    +0.086 A 
ATOM     15  C   UNL     1       1.747   6.679  -8.810  0.00  0.00    +0.115 A 
ATOM     16  N   UNL     1       3.058   6.784  -8.493  0.00  0.00    -0.229 NA
ENDROOT
BRANCH   6  17
ATOM     17  C   UNL     1      -1.934   6.162  -4.612  0.00  0.00    +0.045 A 
ATOM     18  C   UNL     1      -1.840   7.482  -4.189  0.00  0.00    +0.142 A 
ATOM     19  F   UNL     1      -1.022   8.311  -4.867  0.00  0.00    -0.204 F 
ATOM     20  C   UNL     1      -2.348   7.891  -2.963  0.00  0.00    +0.030 A 
ATOM     21  C   UNL     1      -2.957   6.947  -2.146  0.00  0.00    +0.002 A 
ATOM     22  C   UNL     1      -3.514   5.862  -2.813  0.00  0.00    +0.000 A 
ATOM     23  C   UNL     1      -2.799   5.354  -3.892  0.00  0.00    +0.004 A 
ENDBRANCH   6  17
TORSDOF 1
ENDMDL
MODEL 6
REMARK VINA RESULT:      -8.3      3.538      5.797
REMARK  Name = 
REMARK  1 active torsions:
REMARK  status: ('A' for Active; 'I' for Inactive)
REMARK    1  A    between atoms: C_14  and  C_15
REMARK                            x       y       z     vdW  Elec       q    Type
REMARK                         _______ _______ _______ _____ _____    ______ ____
ROOT
ATOM      1  C   UNL     1       1.903   5.895 -11.699  0.00  0.00    +0.072 C 
ATOM      2  C   UNL     1       1.257   5.884 -10.353  0.00  0.00    +0.124 A 
ATOM      3  N   UNL     1       1.915   5.654  -9.211  0.00  0.00    -0.295 N 
ATOM      4  C   UNL     1       3.338   5.667  -9.039  0.00  0.00    +0.066 A 
ATOM      5  C   UNL     1       4.085   5.539  -7.882  0.00  0.00    +0.034 A 
ATOM      6  C   UNL     1       3.619   5.198  -6.533  0.00  0.00    +0.080 C 
ATOM      7  N   UNL     1       2.406   4.893  -6.233  0.00  0.00    -0.264 NA
ATOM      8  C   UNL     1       1.256   4.491  -7.003  0.00  0.00    +0.171 C 
ATOM      9  C   UNL     1       5.466   5.532  -7.869  0.00  0.00    +0.014 A 
ATOM     10  C   UNL     1       6.099   5.684  -9.097  0.00  0.00    +0.058 A 
ATOM     11 CL   UNL     1       7.763   5.166  -9.346  0.00  0.00    -0.082 Cl
ATOM     12  C   UNL     1       5.356   6.154 -10.173  0.00  0.00    +0.013 A 
ATOM     13  C   UNL     1       3.980   5.960 -10.215  0.00  0.00    +0.018 A 
ATOM     14  C   UNL     1       1.053   5.341  -8.213  0.00  0.00    +0.086 A 
ATOM     15  C   UNL     1      -0.193   5.703  -8.712  0.00  0.00    +0.115 A 
ATOM     16  N   UNL     1      -0.042   5.959 -10.031  0.00  0.00    -0.229 NA
ENDROOT
BRANCH   6  17
ATOM     17  C   UNL     1       4.380   5.865  -5.469  0.00  0.00    +0.045 A 
ATOM     18  C   UNL     1       4.706   5.157  -4.319  0.00  0.00    +0.142 A 
ATOM     19  F   UNL     1       4.737   3.812  -4.386  0.00  0.00    -0.204 F 
ATOM     20  C   UNL     1       4.743   5.771  -3.073  0.00  0.00    +0.030 A 
ATOM     21  C   UNL     1       4.438   7.123  -2.988  0.00  0.00    +0.002 A 
ATOM     22  C   UNL     1       4.684   7.857  -4.142  0.00  0.00    +0.000 A 
ATOM     23  C   UNL     1       4.377   7.245  -5.353  0.00  0.00    +0.004 A 
ENDBRANCH   6  17
TORSDOF 1
ENDMDL
MODEL 7
REMARK VINA RESULT:      -8.1      4.801      6.260
REMARK  Name = 
REMARK  1 active torsions:
REMARK  status: ('A' for Active; 'I' for Inactive)
REMARK    1  A    between atoms: C_14  and  C_15
REMARK                            x       y       z     vdW  Elec       q    Type
REMARK                         _______ _______ _______ _____ _____    ______ ____
ROOT
ATOM      1  C   UNL     1      -3.044   5.748  -6.374  0.00  0.00    +0.072 C 
ATOM      2  C   UNL     1      -2.373   6.085  -5.082  0.00  0.00    +0.124 A 
ATOM      3  N   UNL     1      -1.077   5.867  -4.836  0.00  0.00    -0.295 N 
ATOM      4  C   UNL     1      -0.071   5.559  -5.810  0.00  0.00    +0.066 A 
ATOM      5  C   UNL     1       1.295   5.421  -5.648  0.00  0.00    +0.034 A 
ATOM      6  C   UNL     1       2.065   5.397  -4.399  0.00  0.00    +0.080 C 
ATOM      7  N   UNL     1       1.551   5.441  -3.221  0.00  0.00    -0.264 NA
ATOM      8  C   UNL     1       0.224   5.225  -2.701  0.00  0.00    +0.171 C 
ATOM      9  C   UNL     1       2.149   5.081  -6.680  0.00  0.00    +0.014 A 
ATOM     10  C   UNL     1       1.570   4.898  -7.930  0.00  0.00    +0.058 A 
ATOM     11 CL   UNL     1       2.370   3.963  -9.188  0.00  0.00    -0.082 Cl
ATOM     12  C   UNL     1       0.282   5.377  -8.141  0.00  0.00    +0.013 A 
ATOM     13  C   UNL     1      -0.599   5.518  -7.075  0.00  0.00    +0.018 A 
ATOM     14  C   UNL     1      -0.825   5.917  -3.505  0.00  0.00    +0.086 A 
ATOM     15  C   UNL     1      -1.967   6.496  -2.963  0.00  0.00    +0.115 A 
ATOM     16  N   UNL     1      -2.909   6.517  -3.933  0.00  0.00    -0.229 NA
ENDROOT
BRANCH   6  17
ATOM     17  C   UNL     1       3.396   6.005  -4.525  0.00  0.00    +0.045 A 
ATOM     18  C   UNL     1       4.519   5.262  -4.181  0.00  0.00    +0.142 A 
ATOM     19  F   UNL     1       4.421   3.919  -4.188  0.00  0.00    -0.204 F 
ATOM     20  C   UNL     1       5.629   5.854  -3.592  0.00  0.00    +0.030 A 
ATOM     21  C   UNL     1       5.602   7.220  -3.341  0.00  0.00    +0.002 A 
ATOM     22  C   UNL     1       4.772   7.956  -4.179  0.00  0.00    +0.000 A 
ATOM     23  C   UNL     1       3.552   7.381  -4.518  0.00  0.00    +0.004 A 
ENDBRANCH   6  17
TORSDOF 1
ENDMDL
MODEL 8
REMARK VINA RESULT:      -8.1      2.388      5.436
REMARK  Name = 
REMARK  1 active torsions:
REMARK  status: ('A' for Active; 'I' for Inactive)
REMARK    1  A    between atoms: C_14  and  C_15
REMARK                            x       y       z     vdW  Elec       q    Type
REMARK                         _______ _______ _______ _____ _____    ______ ____
ROOT
ATOM      1  C   UNL     1       4.263   5.878 -14.647  0.00  0.00    +0.072 C 
ATOM      2  C   UNL     1       5.019   5.553 -13.400  0.00  0.00    +0.124 A 
ATOM      3  N   UNL     1       4.551   5.771 -12.166  0.00  0.00    -0.295 N 
ATOM      4  C   UNL     1       3.192   6.065 -11.817  0.00  0.00    +0.066 A 
ATOM      5  C   UNL     1       2.616   6.201 -10.567  0.00  0.00    +0.034 A 
ATOM      6  C   UNL     1       3.280   6.236  -9.259  0.00  0.00    +0.080 C 
ATOM      7  N   UNL     1       4.554   6.206  -9.084  0.00  0.00    -0.264 NA
ATOM      8  C   UNL     1       5.687   6.432  -9.945  0.00  0.00    +0.171 C 
ATOM      9  C   UNL     1       1.287   6.528 -10.379  0.00  0.00    +0.014 A 
ATOM     10  C   UNL     1       0.520   6.698 -11.524  0.00  0.00    +0.058 A 
ATOM     11 CL   UNL     1      -0.980   7.618 -11.502  0.00  0.00    -0.082 Cl
ATOM     12  C   UNL     1       1.017   6.221 -12.732  0.00  0.00    +0.013 A 
ATOM     13  C   UNL     1       2.387   6.094 -12.927  0.00  0.00    +0.018 A 
ATOM     14  C   UNL     1       5.556   5.734 -11.257  0.00  0.00    +0.086 A 
ATOM     15  C   UNL     1       6.620   5.164 -11.947  0.00  0.00    +0.115 A 
ATOM     16  N   UNL     1       6.284   5.135 -13.257  0.00  0.00    -0.229 NA
ENDROOT
BRANCH   6  17
ATOM     17  C   UNL     1       2.485   5.624  -8.187  0.00  0.00    +0.045 A 
ATOM     18  C   UNL     1       2.060   6.407  -7.122  0.00  0.00    +0.142 A 
ATOM     19  F   UNL     1       1.978   7.740  -7.304  0.00  0.00    -0.204 F 
ATOM     20  C   UNL     1       1.974   5.897  -5.832  0.00  0.00    +0.030 A 
ATOM     21  C   UNL     1       2.329   4.572  -5.616  0.00  0.00    +0.002 A 
ATOM     22  C   UNL     1       2.183   3.735  -6.716  0.00  0.00    +0.000 A 
ATOM     23  C   UNL     1       2.538   4.259  -7.955  0.00  0.00    +0.004 A 
ENDBRANCH   6  17
TORSDOF 1
ENDMDL
MODEL 9
REMARK VINA RESULT:      -8.1      3.814      5.659
REMARK  Name = 
REMARK  1 active torsions:
REMARK  status: ('A' for Active; 'I' for Inactive)
REMARK    1  A    between atoms: C_14  and  C_15
REMARK                            x       y       z     vdW  Elec       q    Type
REMARK                         _______ _______ _______ _____ _____    ______ ____
ROOT
ATOM      1  C   UNL     1       0.544   6.429  -1.013  0.00  0.00    +0.072 C 
ATOM      2  C   UNL     1       1.872   6.220  -1.663  0.00  0.00    +0.124 A 
ATOM      3  N   UNL     1       2.028   5.826  -2.932  0.00  0.00    -0.295 N 
ATOM      4  C   UNL     1       1.013   5.817  -3.944  0.00  0.00    +0.066 A 
ATOM      5  C   UNL     1       1.119   5.522  -5.292  0.00  0.00    +0.034 A 
ATOM      6  C   UNL     1       2.276   4.987  -6.017  0.00  0.00    +0.080 C 
ATOM      7  N   UNL     1       3.386   4.639  -5.468  0.00  0.00    -0.264 NA
ATOM      8  C   UNL     1       3.786   4.352  -4.114  0.00  0.00    +0.171 C 
ATOM      9  C   UNL     1       0.038   5.516  -6.151  0.00  0.00    +0.014 A 
ATOM     10  C   UNL     1      -1.195   5.846  -5.603  0.00  0.00    +0.058 A 
ATOM     11 CL   UNL     1      -2.705   5.373  -6.374  0.00  0.00    -0.082 Cl
ATOM     12  C   UNL     1      -1.223   6.467  -4.359  0.00  0.00    +0.013 A 
ATOM     13  C   UNL     1      -0.183   6.279  -3.457  0.00  0.00    +0.018 A 
ATOM     14  C   UNL     1       3.286   5.370  -3.143  0.00  0.00    +0.086 A 
ATOM     15  C   UNL     1       3.997   5.799  -2.028  0.00  0.00    +0.115 A 
ATOM     16  N   UNL     1       3.098   6.245  -1.122  0.00  0.00    -0.229 NA
ENDROOT
BRANCH   6  17
ATOM     17  C   UNL     1       2.386   5.492  -7.391  0.00  0.00    +0.045 A 
ATOM     18  C   UNL     1       2.725   4.616  -8.414  0.00  0.00    +0.142 A 
ATOM     19  F   UNL     1       2.498   3.301  -8.228  0.00  0.00    -0.204 F 
ATOM     20  C   UNL     1       3.512   5.019  -9.486  0.00  0.00    +0.030 A 
ATOM     21  C   UNL     1       3.969   6.330  -9.520  0.00  0.00    +0.002 A 
ATOM     22  C   UNL     1       3.176   7.249  -8.844  0.00  0.00    +0.000 A 
ATOM     23  C   UNL     1       2.625   6.835  -7.636  0.00  0.00    +0.004 A 
ENDBRANCH   6  17
TORSDOF 1
ENDMDL
