MODEL 1
REMARK VINA RESULT:      -7.6      0.000      0.000
REMARK  Name = 
REMARK  6 active torsions:
REMARK  status: ('A' for Active; 'I' for Inactive)
REMARK    1  A    between atoms: C_2  and  C_3
REMARK    2  A    between atoms: C_3  and  N_4
REMARK    3  A    between atoms: N_4  and  C_5
REMARK    4  A    between atoms: C_15  and  N_16
REMARK    5  A    between atoms: C_30  and  O_31
REMARK    6  A    between atoms: O_31  and  C_32
REMARK                            x       y       z     vdW  Elec       q    Type
REMARK                         _______ _______ _______ _____ _____    ______ ____
ROOT
ATOM      1  C   UNL     1       2.682   9.058   0.151  0.00  0.00    +0.099 C 
ATOM      2  C   UNL     1       2.850   7.557   1.044  0.00  0.00    +0.217 C 
ATOM      3  C   UNL     1       3.377   6.726  -0.267  0.00  0.00    +0.043 C 
ATOM      4  C   UNL     1       3.147   7.892  -1.386  0.00  0.00    +0.009 C 
ATOM      5  C   UNL     1       4.300   7.136  -2.396  0.00  0.00    +0.000 C 
ATOM      6  C   UNL     1       2.909   6.434  -3.114  0.00  0.00    +0.000 C 
ATOM      7  C   UNL     1       2.968   5.191  -2.038  0.00  0.00    +0.000 C 
ATOM      8  C   UNL     1       3.734   5.649  -4.286  0.00  0.00    +0.001 C 
ATOM      9  C   UNL     1       3.946   6.937  -5.310  0.00  0.00    +0.003 C 
ATOM     10  C   UNL     1       4.937   6.072  -6.302  0.00  0.00    +0.034 C 
ATOM     11  C   UNL     1       3.876   5.067  -7.093  0.00  0.00    +0.166 C 
ATOM     12  C   UNL     1       2.433   5.766  -6.388  0.00  0.00    +0.088 C 
ATOM     13  O   UNL     1       3.815   6.021  -8.299  0.00  0.00    -0.222 OA
ATOM     14  C   UNL     1       5.240   7.536  -4.467  0.00  0.00    +0.000 C 
ATOM     15  C   UNL     1       4.957   5.129  -3.858  0.00  0.00    +0.000 C 
ATOM     16  C   UNL     1       2.691   4.881  -5.015  0.00  0.00    +0.019 C 
ATOM     17  C   UNL     1       4.389   8.337  -3.472  0.00  0.00    +0.000 C 
ATOM     18  C   UNL     1       4.768   6.377  -0.147  0.00  0.00    +0.004 C 
ATOM     19  C   UNL     1       2.398   5.746  -0.729  0.00  0.00    +0.004 C 
ATOM     20  C   UNL     1       4.182   8.847  -0.536  0.00  0.00    +0.059 C 
ENDROOT
BRANCH  12  21
ATOM     21  N   UNL     1       1.512   4.669  -7.040  0.00  0.00    -0.267 NA
ATOM     22  C   UNL     1       0.621   4.443  -5.900  0.00  0.00    +0.105 C 
ATOM     23  C   UNL     1       0.058   5.786  -5.444  0.00  0.00    +0.159 C 
ATOM     24  O   UNL     1      -0.947   6.089  -6.365  0.00  0.00    -0.351 OA
ATOM     25  C   UNL     1      -0.748   5.468  -7.588  0.00  0.00    +0.159 C 
ATOM     26  C   UNL     1       0.703   5.461  -7.967  0.00  0.00    +0.105 C 
ENDBRANCH  12  21
BRANCH   1  27
ATOM     27  N   UNL     1       3.110   9.989   1.347  0.00  0.00    +0.299 N 
ATOM     28  C   UNL     1       2.301  11.168   1.013  0.00  0.00    +0.109 C 
ATOM     29  C   UNL     1       2.935  11.513  -0.334  0.00  0.00    +0.067 C 
ATOM     30  C   UNL     1       4.397  11.465   0.118  0.00  0.00    +0.067 C 
ATOM     31  C   UNL     1       4.407  10.417   1.224  0.00  0.00    +0.109 C 
BRANCH  27  32
ATOM     32  C   UNL     1       2.576   9.466   2.531  0.00  0.00    +0.136 C 
BRANCH  32  34
ATOM     33  C   UNL     1       1.371  10.690   3.741  0.00  0.00    +0.001 C 
ATOM     34  C   UNL     1       1.739  10.486   3.228  0.00  0.00    +0.034 C 
ENDBRANCH  32  34
ENDBRANCH  27  32
ENDBRANCH   1  27
BRANCH   2  35
ATOM     35  O   UNL     1       4.291   7.920   1.531  0.00  0.00    -0.446 OA
BRANCH  35  36
ATOM     36  C   UNL     1       4.713   7.231   2.638  0.00  0.00    +0.318 C 
ATOM     37  O   UNL     1       3.879   6.827   3.471  0.00  0.00    -0.250 OA
ATOM     38  C   UNL     1       6.110   7.394   3.150  0.00  0.00    +0.121 C 
ENDBRANCH  35  36
ENDBRANCH   2  35
TORSDOF 6
ENDMDL
MODEL 2
REMARK VINA RESULT:      -5.6      0.754      1.512
REMARK  Name = 
REMARK  6 active torsions:
REMARK  status: ('A' for Active; 'I' for Inactive)
REMARK    1  A    between atoms: C_2  and  C_3
REMARK    2  A    between atoms: C_3  and  N_4
REMARK    3  A    between atoms: N_4  and  C_5
REMARK    4  A    between atoms: C_15  and  N_16
REMARK    5  A    between atoms: C_30  and  O_31
REMARK    6  A    between atoms: O_31  and  C_32
REMARK                            x       y       z     vdW  Elec       q    Type
REMARK                         _______ _______ _______ _____ _____    ______ ____
ROOT
ATOM      1  C   UNL     1       2.794   8.914   0.594  0.00  0.00    +0.099 C 
ATOM      2  C   UNL     1       3.084   7.382   1.398  0.00  0.00    +0.217 C 
ATOM      3  C   UNL     1       3.558   6.639   0.017  0.00  0.00    +0.043 C 
ATOM      4  C   UNL     1       3.206   7.844  -1.027  0.00  0.00    +0.009 C 
ATOM      5  C   UNL     1       4.321   7.190  -2.144  0.00  0.00    +0.000 C 
ATOM      6  C   UNL     1       2.917   6.460  -2.805  0.00  0.00    +0.000 C 
ATOM      7  C   UNL     1       3.099   5.172  -1.799  0.00  0.00    +0.000 C 
ATOM      8  C   UNL     1       3.695   5.769  -4.066  0.00  0.00    +0.001 C 
ATOM      9  C   UNL     1       3.784   7.112  -5.036  0.00  0.00    +0.003 C 
ATOM     10  C   UNL     1       4.744   6.340  -6.130  0.00  0.00    +0.034 C 
ATOM     11  C   UNL     1       3.677   5.327  -6.901  0.00  0.00    +0.166 C 
ATOM     12  C   UNL     1       2.255   5.925  -6.073  0.00  0.00    +0.088 C 
ATOM     13  O   UNL     1       3.496   6.332  -8.052  0.00  0.00    -0.222 OA
ATOM     14  C   UNL     1       5.105   7.729  -4.248  0.00  0.00    +0.000 C 
ATOM     15  C   UNL     1       4.965   5.286  -3.743  0.00  0.00    +0.000 C 
ATOM     16  C   UNL     1       2.640   4.989  -4.764  0.00  0.00    +0.019 C 
ATOM     17  C   UNL     1       4.288   8.443  -3.162  0.00  0.00    +0.000 C 
ATOM     18  C   UNL     1       4.968   6.348   0.030  0.00  0.00    +0.004 C 
ATOM     19  C   UNL     1       2.593   5.638  -0.430  0.00  0.00    +0.004 C 
ATOM     20  C   UNL     1       4.253   8.805  -0.198  0.00  0.00    +0.059 C 
ENDROOT
BRANCH  12  21
ATOM     21  N   UNL     1       1.340   4.818  -6.718  0.00  0.00    -0.267 NA
ATOM     22  C   UNL     1       0.496   4.542  -5.553  0.00  0.00    +0.105 C 
ATOM     23  C   UNL     1      -0.085   5.859  -5.047  0.00  0.00    +0.159 C 
ATOM     24  O   UNL     1      -1.130   6.156  -5.925  0.00  0.00    -0.351 OA
ATOM     25  C   UNL     1      -0.957   5.568  -7.170  0.00  0.00    +0.159 C 
ATOM     26  C   UNL     1       0.480   5.609  -7.598  0.00  0.00    +0.105 C 
ENDBRANCH  12  21
BRANCH   1  27
ATOM     27  N   UNL     1       3.259   9.807   1.804  0.00  0.00    +0.299 N 
ATOM     28  C   UNL     1       2.697   9.008   2.901  0.00  0.00    +0.109 C 
ATOM     29  C   UNL     1       1.217   9.127   2.542  0.00  0.00    +0.067 C 
ATOM     30  C   UNL     1       1.178  10.647   2.362  0.00  0.00    +0.067 C 
ATOM     31  C   UNL     1       2.575  10.993   1.858  0.00  0.00    +0.109 C 
BRANCH  27  32
ATOM     32  C   UNL     1       4.651   9.711   1.918  0.00  0.00    +0.136 C 
BRANCH  32  34
ATOM     33  C   UNL     1       5.689  11.196   2.984  0.00  0.00    +0.001 C 
ATOM     34  C   UNL     1       5.204  10.886   2.655  0.00  0.00    +0.034 C 
ENDBRANCH  32  34
ENDBRANCH  27  32
ENDBRANCH   1  27
BRANCH   2  35
ATOM     35  O   UNL     1       4.537   7.788   1.810  0.00  0.00    -0.446 OA
BRANCH  35  36
ATOM     36  C   UNL     1       5.062   7.065   2.849  0.00  0.00    +0.318 C 
ATOM     37  O   UNL     1       4.304   6.587   3.715  0.00  0.00    -0.250 OA
ATOM     38  C   UNL     1       6.484   7.263   3.273  0.00  0.00    +0.121 C 
ENDBRANCH  35  36
ENDBRANCH   2  35
TORSDOF 6
ENDMDL
MODEL 3
REMARK VINA RESULT:      -5.2      3.693      9.257
REMARK  Name = 
REMARK  6 active torsions:
REMARK  status: ('A' for Active; 'I' for Inactive)
REMARK    1  A    between atoms: C_2  and  C_3
REMARK    2  A    between atoms: C_3  and  N_4
REMARK    3  A    between atoms: N_4  and  C_5
REMARK    4  A    between atoms: C_15  and  N_16
REMARK    5  A    between atoms: C_30  and  O_31
REMARK    6  A    between atoms: O_31  and  C_32
REMARK                            x       y       z     vdW  Elec       q    Type
REMARK                         _______ _______ _______ _____ _____    ______ ____
ROOT
ATOM      1  C   UNL     1       4.001   7.904  -0.371  0.00  0.00    +0.099 C 
ATOM      2  C   UNL     1       3.074   7.707   1.105  0.00  0.00    +0.217 C 
ATOM      3  C   UNL     1       3.320   9.257   1.577  0.00  0.00    +0.043 C 
ATOM      4  C   UNL     1       4.375   9.690   0.410  0.00  0.00    +0.009 C 
ATOM      5  C   UNL     1       3.964  11.330   0.660  0.00  0.00    +0.000 C 
ATOM      6  C   UNL     1       5.361  11.316   1.655  0.00  0.00    +0.000 C 
ATOM      7  C   UNL     1       4.452  10.844   2.942  0.00  0.00    +0.000 C 
ATOM      8  C   UNL     1       5.299  12.910   2.011  0.00  0.00    +0.001 C 
ATOM      9  C   UNL     1       5.974  13.478   0.607  0.00  0.00    +0.003 C 
ATOM     10  C   UNL     1       5.659  15.045   1.011  0.00  0.00    +0.034 C 
ATOM     11  C   UNL     1       6.793  15.353   2.185  0.00  0.00    +0.166 C 
ATOM     12  C   UNL     1       7.605  13.809   2.040  0.00  0.00    +0.088 C 
ATOM     13  O   UNL     1       7.734  16.006   1.157  0.00  0.00    -0.222 OA
ATOM     14  C   UNL     1       4.559  13.369  -0.247  0.00  0.00    +0.000 C 
ATOM     15  C   UNL     1       4.001  13.394   2.188  0.00  0.00    +0.000 C 
ATOM     16  C   UNL     1       6.421  13.115   2.965  0.00  0.00    +0.019 C 
ATOM     17  C   UNL     1       4.752  11.895  -0.633  0.00  0.00    +0.000 C 
ATOM     18  C   UNL     1       2.108  10.030   1.506  0.00  0.00    +0.004 C 
ATOM     19  C   UNL     1       4.195   9.347   2.744  0.00  0.00    +0.004 C 
ATOM     20  C   UNL     1       3.218   9.334  -0.704  0.00  0.00    +0.059 C 
ENDROOT
BRANCH  12  21
ATOM     21  N   UNL     1       8.530  14.111   3.277  0.00  0.00    -0.267 NA
ATOM     22  C   UNL     1       8.701  12.736   3.749  0.00  0.00    +0.105 C 
ATOM     23  C   UNL     1       9.185  11.875   2.585  0.00  0.00    +0.159 C 
ATOM     24  O   UNL     1      10.546  12.165   2.462  0.00  0.00    -0.351 OA
ATOM     25  C   UNL     1      10.867  13.418   2.962  0.00  0.00    +0.159 C 
ATOM     26  C   UNL     1       9.806  14.425   2.634  0.00  0.00    +0.105 C 
ENDBRANCH  12  21
BRANCH   1  27
ATOM     27  N   UNL     1       3.102   6.947  -1.239  0.00  0.00    +0.299 N 
ATOM     28  C   UNL     1       4.163   6.142  -1.858  0.00  0.00    +0.109 C 
ATOM     29  C   UNL     1       4.868   7.249  -2.641  0.00  0.00    +0.067 C 
ATOM     30  C   UNL     1       3.625   7.847  -3.303  0.00  0.00    +0.067 C 
ATOM     31  C   UNL     1       2.514   7.606  -2.287  0.00  0.00    +0.109 C 
BRANCH  27  32
ATOM     32  C   UNL     1       2.407   6.088  -0.378  0.00  0.00    +0.136 C 
BRANCH  32  34
ATOM     33  C   UNL     1       1.091   4.687  -1.228  0.00  0.00    +0.001 C 
ATOM     34  C   UNL     1       1.611   5.091  -1.155  0.00  0.00    +0.034 C 
ENDBRANCH  32  34
ENDBRANCH  27  32
ENDBRANCH   1  27
BRANCH   2  35
ATOM     35  O   UNL     1       1.722   8.023   0.388  0.00  0.00    -0.446 OA
BRANCH  35  36
ATOM     36  C   UNL     1       0.602   7.753   1.130  0.00  0.00    +0.318 C 
ATOM     37  O   UNL     1       0.682   7.000   2.119  0.00  0.00    -0.250 OA
ATOM     38  C   UNL     1      -0.762   7.883   0.526  0.00  0.00    +0.121 C 
ENDBRANCH  35  36
ENDBRANCH   2  35
TORSDOF 6
ENDMDL
MODEL 4
REMARK VINA RESULT:      -4.8      1.362      1.460
REMARK  Name = 
REMARK  6 active torsions:
REMARK  status: ('A' for Active; 'I' for Inactive)
REMARK    1  A    between atoms: C_2  and  C_3
REMARK    2  A    between atoms: C_3  and  N_4
REMARK    3  A    between atoms: N_4  and  C_5
REMARK    4  A    between atoms: C_15  and  N_16
REMARK    5  A    between atoms: C_30  and  O_31
REMARK    6  A    between atoms: O_31  and  C_32
REMARK                            x       y       z     vdW  Elec       q    Type
REMARK                         _______ _______ _______ _____ _____    ______ ____
ROOT
ATOM      1  C   UNL     1       3.239  10.145   0.404  0.00  0.00    +0.099 C 
ATOM      2  C   UNL     1       3.173   8.858   1.595  0.00  0.00    +0.217 C 
ATOM      3  C   UNL     1       3.441   7.686   0.481  0.00  0.00    +0.043 C 
ATOM      4  C   UNL     1       3.367   8.617  -0.857  0.00  0.00    +0.009 C 
ATOM      5  C   UNL     1       4.283   7.452  -1.707  0.00  0.00    +0.000 C 
ATOM      6  C   UNL     1       2.739   6.914  -2.224  0.00  0.00    +0.000 C 
ATOM      7  C   UNL     1       2.628   5.934  -0.908  0.00  0.00    +0.000 C 
ATOM      8  C   UNL     1       3.317   5.754  -3.220  0.00  0.00    +0.001 C 
ATOM      9  C   UNL     1       3.705   6.734  -4.502  0.00  0.00    +0.003 C 
ATOM     10  C   UNL     1       4.443   5.500  -5.307  0.00  0.00    +0.034 C 
ATOM     11  C   UNL     1       3.158   4.590  -5.838  0.00  0.00    +0.166 C 
ATOM     12  C   UNL     1       1.927   5.697  -5.266  0.00  0.00    +0.088 C 
ATOM     13  O   UNL     1       3.202   5.267  -7.219  0.00  0.00    -0.222 OA
ATOM     14  C   UNL     1       5.143   7.218  -3.838  0.00  0.00    +0.000 C 
ATOM     15  C   UNL     1       4.442   5.097  -2.719  0.00  0.00    +0.000 C 
ATOM     16  C   UNL     1       2.099   5.079  -3.741  0.00  0.00    +0.019 C 
ATOM     17  C   UNL     1       4.531   8.363  -3.018  0.00  0.00    +0.000 C 
ATOM     18  C   UNL     1       4.744   7.094   0.641  0.00  0.00    +0.004 C 
ATOM     19  C   UNL     1       2.263   6.850   0.264  0.00  0.00    +0.004 C 
ATOM     20  C   UNL     1       4.621   9.498  -0.258  0.00  0.00    +0.059 C 
ENDROOT
BRANCH  12  21
ATOM     21  N   UNL     1       0.770   4.698  -5.644  0.00  0.00    -0.267 NA
ATOM     22  C   UNL     1      -0.154   5.030  -4.558  0.00  0.00    +0.105 C 
ATOM     23  C   UNL     1      -0.377   6.540  -4.549  0.00  0.00    +0.159 C 
ATOM     24  O   UNL     1      -1.275   6.780  -5.591  0.00  0.00    -0.351 OA
ATOM     25  C   UNL     1      -1.227   5.796  -6.567  0.00  0.00    +0.159 C 
ATOM     26  C   UNL     1       0.181   5.344  -6.818  0.00  0.00    +0.105 C 
ENDBRANCH  12  21
BRANCH   1  27
ATOM     27  N   UNL     1       3.916  11.196   1.361  0.00  0.00    +0.299 N 
ATOM     28  C   UNL     1       3.201  12.399   0.915  0.00  0.00    +0.109 C 
ATOM     29  C   UNL     1       3.687  12.436  -0.534  0.00  0.00    +0.067 C 
ATOM     30  C   UNL     1       5.181  12.276  -0.245  0.00  0.00    +0.067 C 
ATOM     31  C   UNL     1       5.224  11.429   1.022  0.00  0.00    +0.109 C 
BRANCH  27  32
ATOM     32  C   UNL     1       3.489  10.946   2.671  0.00  0.00    +0.136 C 
BRANCH  32  34
ATOM     33  C   UNL     1       3.530  12.759   3.733  0.00  0.00    +0.001 C 
ATOM     34  C   UNL     1       3.297  12.225   3.417  0.00  0.00    +0.034 C 
ENDBRANCH  32  34
ENDBRANCH  27  32
ENDBRANCH   1  27
BRANCH   2  35
ATOM     35  O   UNL     1       4.685   9.014   1.958  0.00  0.00    -0.446 OA
BRANCH  35  36
ATOM     36  C   UNL     1       5.034   8.521   3.188  0.00  0.00    +0.318 C 
ATOM     37  O   UNL     1       6.164   8.764   3.654  0.00  0.00    -0.250 OA
ATOM     38  C   UNL     1       4.353   7.310   3.745  0.00  0.00    +0.121 C 
ENDBRANCH  35  36
ENDBRANCH   2  35
TORSDOF 6
ENDMDL
MODEL 5
REMARK VINA RESULT:      -4.8      1.491      8.760
REMARK  Name = 
REMARK  6 active torsions:
REMARK  status: ('A' for Active; 'I' for Inactive)
REMARK    1  A    between atoms: C_2  and  C_3
REMARK    2  A    between atoms: C_3  and  N_4
REMARK    3  A    between atoms: N_4  and  C_5
REMARK    4  A    between atoms: C_15  and  N_16
REMARK    5  A    between atoms: C_30  and  O_31
REMARK    6  A    between atoms: O_31  and  C_32
REMARK                            x       y       z     vdW  Elec       q    Type
REMARK                         _______ _______ _______ _____ _____    ______ ____
ROOT
ATOM      1  C   UNL     1       1.185   6.621  -6.240  0.00  0.00    +0.099 C 
ATOM      2  C   UNL     1       2.764   6.663  -7.001  0.00  0.00    +0.217 C 
ATOM      3  C   UNL     1       3.560   6.521  -5.576  0.00  0.00    +0.043 C 
ATOM      4  C   UNL     1       2.273   6.644  -4.579  0.00  0.00    +0.009 C 
ATOM      5  C   UNL     1       3.154   5.839  -3.357  0.00  0.00    +0.000 C 
ATOM      6  C   UNL     1       3.481   7.436  -2.826  0.00  0.00    +0.000 C 
ATOM      7  C   UNL     1       4.804   7.502  -3.801  0.00  0.00    +0.000 C 
ATOM      8  C   UNL     1       4.307   6.977  -1.492  0.00  0.00    +0.001 C 
ATOM      9  C   UNL     1       3.001   6.634  -0.528  0.00  0.00    +0.003 C 
ATOM     10  C   UNL     1       3.958   6.006   0.658  0.00  0.00    +0.034 C 
ATOM     11  C   UNL     1       4.641   7.362   1.332  0.00  0.00    +0.166 C 
ATOM     12  C   UNL     1       3.726   8.503   0.368  0.00  0.00    +0.088 C 
ATOM     13  O   UNL     1       3.587   7.381   2.453  0.00  0.00    -0.222 OA
ATOM     14  C   UNL     1       2.767   5.134  -1.192  0.00  0.00    +0.000 C 
ATOM     15  C   UNL     1       5.108   5.851  -1.690  0.00  0.00    +0.000 C 
ATOM     16  C   UNL     1       4.771   8.256  -0.891  0.00  0.00    +0.019 C 
ATOM     17  C   UNL     1       1.902   5.640  -2.356  0.00  0.00    +0.000 C 
ATOM     18  C   UNL     1       4.201   5.238  -5.454  0.00  0.00    +0.004 C 
ATOM     19  C   UNL     1       4.268   7.747  -5.214  0.00  0.00    +0.004 C 
ATOM     20  C   UNL     1       1.637   5.315  -5.313  0.00  0.00    +0.059 C 
ENDROOT
BRANCH  12  21
ATOM     21  N   UNL     1       4.543   9.725   0.933  0.00  0.00    -0.267 NA
ATOM     22  C   UNL     1       3.870  10.787   0.182  0.00  0.00    +0.105 C 
ATOM     23  C   UNL     1       2.364  10.666   0.403  0.00  0.00    +0.159 C 
ATOM     24  O   UNL     1       2.139  11.208   1.671  0.00  0.00    -0.351 OA
ATOM     25  C   UNL     1       3.263  11.143   2.481  0.00  0.00    +0.159 C 
ATOM     26  C   UNL     1       4.003   9.853   2.287  0.00  0.00    +0.105 C 
ENDBRANCH  12  21
BRANCH   1  27
ATOM     27  N   UNL     1       0.479   5.836  -7.407  0.00  0.00    +0.299 N 
ATOM     28  C   UNL     1      -0.839   6.483  -7.349  0.00  0.00    +0.109 C 
ATOM     29  C   UNL     1      -1.248   6.053  -5.941  0.00  0.00    +0.067 C 
ATOM     30  C   UNL     1      -0.932   4.563  -6.089  0.00  0.00    +0.067 C 
ATOM     31  C   UNL     1       0.234   4.529  -7.071  0.00  0.00    +0.109 C 
BRANCH  27  32
ATOM     32  C   UNL     1       1.057   6.227  -8.621  0.00  0.00    +0.136 C 
BRANCH  32  34
ATOM     33  C   UNL     1       0.210   5.529 -10.413  0.00  0.00    +0.001 C 
ATOM     34  C   UNL     1       0.270   5.702  -9.775  0.00  0.00    +0.034 C 
ENDBRANCH  32  34
ENDBRANCH  27  32
ENDBRANCH   1  27
BRANCH   2  35
ATOM     35  O   UNL     1       2.756   5.124  -7.277  0.00  0.00    -0.446 OA
BRANCH  35  36
ATOM     36  C   UNL     1       3.476   4.734  -8.375  0.00  0.00    +0.318 C 
ATOM     37  O   UNL     1       3.358   3.573  -8.813  0.00  0.00    -0.250 OA
ATOM     38  C   UNL     1       4.748   5.434  -8.741  0.00  0.00    +0.121 C 
ENDBRANCH  35  36
ENDBRANCH   2  35
TORSDOF 6
ENDMDL
MODEL 6
REMARK VINA RESULT:      -4.6      2.843      4.848
REMARK  Name = 
REMARK  6 active torsions:
REMARK  status: ('A' for Active; 'I' for Inactive)
REMARK    1  A    between atoms: C_2  and  C_3
REMARK    2  A    between atoms: C_3  and  N_4
REMARK    3  A    between atoms: N_4  and  C_5
REMARK    4  A    between atoms: C_15  and  N_16
REMARK    5  A    between atoms: C_30  and  O_31
REMARK    6  A    between atoms: O_31  and  C_32
REMARK                            x       y       z     vdW  Elec       q    Type
REMARK                         _______ _______ _______ _____ _____    ______ ____
ROOT
ATOM      1  C   UNL     1       2.746   7.036  -3.701  0.00  0.00    +0.099 C 
ATOM      2  C   UNL     1       2.032   5.476  -3.332  0.00  0.00    +0.217 C 
ATOM      3  C   UNL     1       2.383   4.861  -4.810  0.00  0.00    +0.043 C 
ATOM      4  C   UNL     1       2.939   6.229  -5.504  0.00  0.00    +0.009 C 
ATOM      5  C   UNL     1       3.806   5.291  -6.638  0.00  0.00    +0.000 C 
ATOM      6  C   UNL     1       2.428   5.575  -7.620  0.00  0.00    +0.000 C 
ATOM      7  C   UNL     1       1.698   4.237  -7.001  0.00  0.00    +0.000 C 
ATOM      8  C   UNL     1       3.031   4.815  -8.936  0.00  0.00    +0.001 C 
ATOM      9  C   UNL     1       4.005   6.044  -9.476  0.00  0.00    +0.003 C 
ATOM     10  C   UNL     1       4.679   5.089 -10.637  0.00  0.00    +0.034 C 
ATOM     11  C   UNL     1       3.466   4.978 -11.767  0.00  0.00    +0.166 C 
ATOM     12  C   UNL     1       2.384   6.090 -10.956  0.00  0.00    +0.088 C 
ATOM     13  O   UNL     1       4.091   6.109 -12.602  0.00  0.00    -0.222 OA
ATOM     14  C   UNL     1       5.227   5.690  -8.414  0.00  0.00    +0.000 C 
ATOM     15  C   UNL     1       3.771   3.671  -8.631  0.00  0.00    +0.000 C 
ATOM     16  C   UNL     1       1.927   4.875  -9.930  0.00  0.00    +0.019 C 
ATOM     17  C   UNL     1       4.645   6.521  -7.262  0.00  0.00    +0.000 C 
ATOM     18  C   UNL     1       3.409   3.854  -4.732  0.00  0.00    +0.004 C 
ATOM     19  C   UNL     1       1.185   4.645  -5.617  0.00  0.00    +0.004 C 
ATOM     20  C   UNL     1       4.095   6.298  -4.336  0.00  0.00    +0.059 C 
ENDROOT
BRANCH  12  21
ATOM     21  N   UNL     1       1.222   5.797 -11.977  0.00  0.00    -0.267 NA
ATOM     22  C   UNL     1       0.115   5.738 -11.019  0.00  0.00    +0.105 C 
ATOM     23  C   UNL     1       0.131   7.010 -10.175  0.00  0.00    +0.159 C 
ATOM     24  O   UNL     1      -0.427   7.995 -10.992  0.00  0.00    -0.351 OA
ATOM     25  C   UNL     1      -0.284   7.706 -12.341  0.00  0.00    +0.159 C 
ATOM     26  C   UNL     1       1.055   7.095 -12.630  0.00  0.00    +0.105 C 
ENDBRANCH  12  21
BRANCH   1  27
ATOM     27  N   UNL     1       3.292   7.295  -2.247  0.00  0.00    +0.299 N 
ATOM     28  C   UNL     1       3.647   8.713  -2.391  0.00  0.00    +0.109 C 
ATOM     29  C   UNL     1       4.721   8.577  -3.470  0.00  0.00    +0.067 C 
ATOM     30  C   UNL     1       5.530   7.461  -2.805  0.00  0.00    +0.067 C 
ATOM     31  C   UNL     1       4.489   6.662  -2.030  0.00  0.00    +0.109 C 
BRANCH  27  32
ATOM     32  C   UNL     1       2.217   7.246  -1.352  0.00  0.00    +0.136 C 
BRANCH  32  34
ATOM     33  C   UNL     1       2.555   7.660   0.681  0.00  0.00    +0.001 C 
ATOM     34  C   UNL     1       2.663   7.596   0.029  0.00  0.00    +0.034 C 
ENDBRANCH  32  34
ENDBRANCH  27  32
ENDBRANCH   1  27
BRANCH   2  35
ATOM     35  O   UNL     1       3.347   4.945  -2.675  0.00  0.00    -0.446 OA
BRANCH  35  36
ATOM     36  C   UNL     1       3.158   4.120  -1.598  0.00  0.00    +0.318 C 
ATOM     37  O   UNL     1       2.110   4.207  -0.928  0.00  0.00    -0.250 OA
ATOM     38  C   UNL     1       4.328   3.511  -0.890  0.00  0.00    +0.121 C 
ENDBRANCH  35  36
ENDBRANCH   2  35
TORSDOF 6
ENDMDL
