MODEL 1
REMARK VINA RESULT:      -8.0      0.000      0.000
REMARK  Name = 
REMARK  6 active torsions:
REMARK  status: ('A' for Active; 'I' for Inactive)
REMARK    1  A    between atoms: C_5  and  C_6
REMARK    2  A    between atoms: C_6  and  S_7
REMARK    3  A    between atoms: S_7  and  C_8
REMARK    4  A    between atoms: C_8  and  C_9
REMARK    5  A    between atoms: C_8  and  C_15
REMARK    6  A    between atoms: C_9  and  N_10
REMARK                            x       y       z     vdW  Elec       q    Type
REMARK                         _______ _______ _______ _____ _____    ______ ____
ROOT
ATOM      1  C   UNL     1       2.253   5.308  -7.555  0.00  0.00    +0.093 C 
ENDROOT
BRANCH   1   2
ATOM      2  C   UNL     1       2.601   6.152  -6.286  0.00  0.00    +0.000 A 
ATOM      3  C   UNL     1       1.685   6.167  -5.259  0.00  0.00    +0.055 A 
ATOM      4 CL   UNL     1       0.188   5.256  -5.393  0.00  0.00    -0.083 Cl
ATOM      5  C   UNL     1       2.037   6.777  -4.061  0.00  0.00    +0.022 A 
ATOM      6  C   UNL     1       3.319   7.218  -3.836  0.00  0.00    +0.058 A 
ATOM      7 CL   UNL     1       3.764   8.209  -2.459  0.00  0.00    -0.082 Cl
ATOM      8  C   UNL     1       4.205   7.236  -4.903  0.00  0.00    +0.011 A 
ATOM      9  C   UNL     1       3.902   6.437  -5.999  0.00  0.00    -0.002 A 
ENDBRANCH   1   2
BRANCH   1  10
ATOM     10  S   UNL     1       4.043   5.222  -8.219  0.00  0.00    -0.130 S 
BRANCH  10  11
ATOM     11  C   UNL     1       4.193   6.426  -9.555  0.00  0.00    +0.084 C 
BRANCH  11  16
ATOM     12 CL   UNL     1       9.290   5.945 -12.278  0.00  0.00    -0.082 Cl
ATOM     13  C   UNL     1       7.983   6.220 -11.433  0.00  0.00    +0.058 A 
ATOM     14  C   UNL     1       7.055   7.172 -11.807  0.00  0.00    +0.011 A 
ATOM     15  C   UNL     1       5.842   7.319 -11.190  0.00  0.00    -0.003 A 
ATOM     16  C   UNL     1       5.559   6.520 -10.098  0.00  0.00    -0.011 A 
ATOM     17  C   UNL     1       6.550   5.750  -9.553  0.00  0.00    -0.003 A 
ATOM     18  C   UNL     1       7.753   5.595 -10.215  0.00  0.00    +0.011 A 
ENDBRANCH  11  16
ENDBRANCH  10  11
ENDBRANCH   1  10
BRANCH   1  19
ATOM     19  C   UNL     1       1.830   6.556  -8.453  0.00  0.00    +0.123 C 
BRANCH  19  20
ATOM     20  N   UNL     1       1.050   6.075  -9.560  0.00  0.00    -0.307 N 
ATOM     21  C   UNL     1       0.428   4.885  -9.609  0.00  0.00    +0.179 A 
ATOM     22  N   UNL     1      -0.101   4.694 -10.835  0.00  0.00    -0.222 NA
ATOM     23  C   UNL     1       0.011   5.895 -11.444  0.00  0.00    +0.119 A 
ATOM     24  C   UNL     1       0.521   6.827 -10.549  0.00  0.00    +0.098 A 
ENDBRANCH  19  20
ENDBRANCH   1  19
TORSDOF 6
ENDMDL
MODEL 2
REMARK VINA RESULT:      -8.0      2.912      6.278
REMARK  Name = 
REMARK  6 active torsions:
REMARK  status: ('A' for Active; 'I' for Inactive)
REMARK    1  A    between atoms: C_5  and  C_6
REMARK    2  A    between atoms: C_6  and  S_7
REMARK    3  A    between atoms: S_7  and  C_8
REMARK    4  A    between atoms: C_8  and  C_9
REMARK    5  A    between atoms: C_8  and  C_15
REMARK    6  A    between atoms: C_9  and  N_10
REMARK                            x       y       z     vdW  Elec       q    Type
REMARK                         _______ _______ _______ _____ _____    ______ ____
ROOT
ATOM      1  C   UNL     1       3.622   5.905  -8.620  0.00  0.00    +0.093 C 
ENDROOT
BRANCH   1   2
ATOM      2  C   UNL     1       3.898   6.115  -7.097  0.00  0.00    +0.000 A 
ATOM      3  C   UNL     1       3.167   7.082  -6.443  0.00  0.00    +0.055 A 
ATOM      4 CL   UNL     1       1.969   8.027  -7.314  0.00  0.00    -0.083 Cl
ATOM      5  C   UNL     1       3.278   7.181  -5.062  0.00  0.00    +0.022 A 
ATOM      6  C   UNL     1       3.972   6.245  -4.333  0.00  0.00    +0.058 A 
ATOM      7 CL   UNL     1       4.357   6.444  -2.634  0.00  0.00    -0.082 Cl
ATOM      8  C   UNL     1       4.738   5.313  -5.020  0.00  0.00    +0.011 A 
ATOM      9  C   UNL     1       4.440   5.105  -6.361  0.00  0.00    -0.002 A 
ENDBRANCH   1   2
BRANCH   1  10
ATOM     10  S   UNL     1       2.513   4.364  -8.398  0.00  0.00    -0.130 S 
BRANCH  10  11
ATOM     11  C   UNL     1       0.795   4.899  -8.529  0.00  0.00    +0.084 C 
BRANCH  11  16
ATOM     12 CL   UNL     1      -1.334   6.315  -3.325  0.00  0.00    -0.082 Cl
ATOM     13  C   UNL     1      -0.846   5.759  -4.720  0.00  0.00    +0.058 A 
ATOM     14  C   UNL     1      -1.604   5.889  -5.868  0.00  0.00    +0.011 A 
ATOM     15  C   UNL     1      -1.140   5.566  -7.114  0.00  0.00    -0.003 A 
ATOM     16  C   UNL     1       0.125   5.020  -7.223  0.00  0.00    -0.011 A 
ATOM     17  C   UNL     1       0.797   4.647  -6.090  0.00  0.00    -0.003 A 
ATOM     18  C   UNL     1       0.320   5.016  -4.847  0.00  0.00    +0.011 A 
ENDBRANCH  11  16
ENDBRANCH  10  11
ENDBRANCH   1  10
BRANCH   1  19
ATOM     19  C   UNL     1       4.957   5.078  -8.901  0.00  0.00    +0.123 C 
BRANCH  19  20
ATOM     20  N   UNL     1       5.863   5.915  -9.639  0.00  0.00    -0.307 N 
ATOM     21  C   UNL     1       7.202   5.876  -9.545  0.00  0.00    +0.179 A 
ATOM     22  N   UNL     1       7.742   6.879 -10.268  0.00  0.00    -0.222 NA
ATOM     23  C   UNL     1       6.711   7.372 -10.987  0.00  0.00    +0.119 A 
ATOM     24  C   UNL     1       5.575   6.603 -10.764  0.00  0.00    +0.098 A 
ENDBRANCH  19  20
ENDBRANCH   1  19
TORSDOF 6
ENDMDL
MODEL 3
REMARK VINA RESULT:      -7.9      3.874      7.138
REMARK  Name = 
REMARK  6 active torsions:
REMARK  status: ('A' for Active; 'I' for Inactive)
REMARK    1  A    between atoms: C_5  and  C_6
REMARK    2  A    between atoms: C_6  and  S_7
REMARK    3  A    between atoms: S_7  and  C_8
REMARK    4  A    between atoms: C_8  and  C_9
REMARK    5  A    between atoms: C_8  and  C_15
REMARK    6  A    between atoms: C_9  and  N_10
REMARK                            x       y       z     vdW  Elec       q    Type
REMARK                         _______ _______ _______ _____ _____    ______ ____
ROOT
ATOM      1  C   UNL     1       0.356   6.134  -7.536  0.00  0.00    +0.093 C 
ENDROOT
BRANCH   1   2
ATOM      2  C   UNL     1       1.473   6.121  -6.443  0.00  0.00    +0.000 A 
ATOM      3  C   UNL     1       2.575   6.920  -6.648  0.00  0.00    +0.055 A 
ATOM      4 CL   UNL     1       2.693   7.914  -8.092  0.00  0.00    -0.083 Cl
ATOM      5  C   UNL     1       3.505   7.048  -5.624  0.00  0.00    +0.022 A 
ATOM      6  C   UNL     1       3.267   6.524  -4.376  0.00  0.00    +0.058 A 
ATOM      7 CL   UNL     1       4.492   6.434  -3.123  0.00  0.00    -0.082 Cl
ATOM      8  C   UNL     1       2.175   5.683  -4.212  0.00  0.00    +0.011 A 
ATOM      9  C   UNL     1       1.169   5.750  -5.168  0.00  0.00    -0.002 A 
ENDBRANCH   1   2
BRANCH   1  10
ATOM     10  S   UNL     1      -0.806   4.917  -6.629  0.00  0.00    -0.130 S 
BRANCH  10  11
ATOM     11  C   UNL     1      -2.375   5.761  -6.346  0.00  0.00    +0.084 C 
BRANCH  11  16
ATOM     12 CL   UNL     1      -1.848   7.598  -0.871  0.00  0.00    -0.082 Cl
ATOM     13  C   UNL     1      -2.174   7.166  -2.356  0.00  0.00    +0.058 A 
ATOM     14  C   UNL     1      -2.010   8.029  -3.423  0.00  0.00    +0.011 A 
ATOM     15  C   UNL     1      -2.127   7.635  -4.729  0.00  0.00    -0.003 A 
ATOM     16  C   UNL     1      -2.491   6.329  -4.992  0.00  0.00    -0.011 A 
ATOM     17  C   UNL     1      -2.903   5.525  -3.963  0.00  0.00    -0.003 A 
ATOM     18  C   UNL     1      -2.743   5.936  -2.654  0.00  0.00    +0.011 A 
ENDBRANCH  11  16
ENDBRANCH  10  11
ENDBRANCH   1  10
BRANCH   1  19
ATOM     19  C   UNL     1       1.033   5.022  -8.456  0.00  0.00    +0.123 C 
BRANCH  19  20
ATOM     20  N   UNL     1       0.677   5.286  -9.824  0.00  0.00    -0.307 N 
ATOM     21  C   UNL     1       0.354   4.351 -10.733  0.00  0.00    +0.179 A 
ATOM     22  N   UNL     1       0.204   4.924 -11.946  0.00  0.00    -0.222 NA
ATOM     23  C   UNL     1       0.209   6.252 -11.697  0.00  0.00    +0.119 A 
ATOM     24  C   UNL     1       0.268   6.470 -10.326  0.00  0.00    +0.098 A 
ENDBRANCH  19  20
ENDBRANCH   1  19
TORSDOF 6
ENDMDL
MODEL 4
REMARK VINA RESULT:      -7.9      3.322      4.987
REMARK  Name = 
REMARK  6 active torsions:
REMARK  status: ('A' for Active; 'I' for Inactive)
REMARK    1  A    between atoms: C_5  and  C_6
REMARK    2  A    between atoms: C_6  and  S_7
REMARK    3  A    between atoms: S_7  and  C_8
REMARK    4  A    between atoms: C_8  and  C_9
REMARK    5  A    between atoms: C_8  and  C_15
REMARK    6  A    between atoms: C_9  and  N_10
REMARK                            x       y       z     vdW  Elec       q    Type
REMARK                         _______ _______ _______ _____ _____    ______ ____
ROOT
ATOM      1  C   UNL     1       1.809   5.495  -8.274  0.00  0.00    +0.093 C 
ENDROOT
BRANCH   1   2
ATOM      2  C   UNL     1       1.066   5.704  -6.916  0.00  0.00    +0.000 A 
ATOM      3  C   UNL     1       1.155   4.699  -5.979  0.00  0.00    +0.055 A 
ATOM      4 CL   UNL     1       2.082   3.247  -6.322  0.00  0.00    -0.083 Cl
ATOM      5  C   UNL     1       0.639   4.924  -4.709  0.00  0.00    +0.022 A 
ATOM      6  C   UNL     1       0.190   6.168  -4.332  0.00  0.00    +0.058 A 
ATOM      7 CL   UNL     1      -0.693   6.459  -2.845  0.00  0.00    -0.082 Cl
ATOM      8  C   UNL     1       0.066   7.146  -5.309  0.00  0.00    +0.011 A 
ATOM      9  C   UNL     1       0.778   6.965  -6.488  0.00  0.00    -0.002 A 
ENDBRANCH   1   2
BRANCH   1  10
ATOM     10  S   UNL     1       3.232   6.715  -7.898  0.00  0.00    -0.130 S 
BRANCH  10  11
ATOM     11  C   UNL     1       4.499   5.816  -6.982  0.00  0.00    +0.084 C 
BRANCH  11  16
ATOM     12 CL   UNL     1       3.108   6.386  -1.382  0.00  0.00    -0.082 Cl
ATOM     13  C   UNL     1       3.666   6.286  -2.856  0.00  0.00    +0.058 A 
ATOM     14  C   UNL     1       4.278   5.142  -3.333  0.00  0.00    +0.011 A 
ATOM     15  C   UNL     1       4.623   4.969  -4.646  0.00  0.00    -0.003 A 
ATOM     16  C   UNL     1       4.411   6.013  -5.525  0.00  0.00    -0.011 A 
ATOM     17  C   UNL     1       4.043   7.239  -5.038  0.00  0.00    -0.003 A 
ATOM     18  C   UNL     1       3.669   7.376  -3.715  0.00  0.00    +0.011 A 
ENDBRANCH  11  16
ENDBRANCH  10  11
ENDBRANCH   1  10
BRANCH   1  19
ATOM     19  C   UNL     1       0.932   6.550  -9.088  0.00  0.00    +0.123 C 
BRANCH  19  20
ATOM     20  N   UNL     1       0.744   6.050 -10.423  0.00  0.00    -0.307 N 
ATOM     21  C   UNL     1       0.282   4.827 -10.733  0.00  0.00    +0.179 A 
ATOM     22  N   UNL     1       0.355   4.634 -12.066  0.00  0.00    -0.222 NA
ATOM     23  C   UNL     1       0.645   5.853 -12.570  0.00  0.00    +0.119 A 
ATOM     24  C   UNL     1       0.654   6.792 -11.546  0.00  0.00    +0.098 A 
ENDBRANCH  19  20
ENDBRANCH   1  19
TORSDOF 6
ENDMDL
MODEL 5
REMARK VINA RESULT:      -7.7      1.648      2.015
REMARK  Name = 
REMARK  6 active torsions:
REMARK  status: ('A' for Active; 'I' for Inactive)
REMARK    1  A    between atoms: C_5  and  C_6
REMARK    2  A    between atoms: C_6  and  S_7
REMARK    3  A    between atoms: S_7  and  C_8
REMARK    4  A    between atoms: C_8  and  C_9
REMARK    5  A    between atoms: C_8  and  C_15
REMARK    6  A    between atoms: C_9  and  N_10
REMARK                            x       y       z     vdW  Elec       q    Type
REMARK                         _______ _______ _______ _____ _____    ______ ____
ROOT
ATOM      1  C   UNL     1       1.605   4.899  -8.650  0.00  0.00    +0.093 C 
ENDROOT
BRANCH   1   2
ATOM      2  C   UNL     1       1.571   5.177  -7.113  0.00  0.00    +0.000 A 
ATOM      3  C   UNL     1       0.340   5.362  -6.525  0.00  0.00    +0.055 A 
ATOM      4 CL   UNL     1      -1.125   5.277  -7.491  0.00  0.00    -0.083 Cl
ATOM      5  C   UNL     1       0.270   5.453  -5.140  0.00  0.00    +0.022 A 
ATOM      6  C   UNL     1       1.370   5.209  -4.353  0.00  0.00    +0.058 A 
ATOM      7 CL   UNL     1       1.413   5.546  -2.633  0.00  0.00    -0.082 Cl
ATOM      8  C   UNL     1       2.605   5.075  -4.972  0.00  0.00    +0.011 A 
ATOM      9  C   UNL     1       2.610   4.775  -6.329  0.00  0.00    -0.002 A 
ENDBRANCH   1   2
BRANCH   1  10
ATOM     10  S   UNL     1       3.456   4.427  -8.714  0.00  0.00    -0.130 S 
BRANCH  10  11
ATOM     11  C   UNL     1       4.391   5.919  -9.108  0.00  0.00    +0.084 C 
BRANCH  11  16
ATOM     12 CL   UNL     1       9.174   5.921 -12.387  0.00  0.00    -0.082 Cl
ATOM     13  C   UNL     1       7.884   5.726 -11.495  0.00  0.00    +0.058 A 
ATOM     14  C   UNL     1       7.955   5.608 -10.120  0.00  0.00    +0.011 A 
ATOM     15  C   UNL     1       6.851   5.603  -9.311  0.00  0.00    -0.003 A 
ATOM     16  C   UNL     1       5.603   5.650  -9.902  0.00  0.00    -0.011 A 
ATOM     17  C   UNL     1       5.495   5.514 -11.260  0.00  0.00    -0.003 A 
ATOM     18  C   UNL     1       6.625   5.555 -12.053  0.00  0.00    +0.011 A 
ENDBRANCH  11  16
ENDBRANCH  10  11
ENDBRANCH   1  10
BRANCH   1  19
ATOM     19  C   UNL     1       1.834   6.420  -9.073  0.00  0.00    +0.123 C 
BRANCH  19  20
ATOM     20  N   UNL     1       1.230   6.629 -10.360  0.00  0.00    -0.307 N 
ATOM     21  C   UNL     1       1.747   6.224 -11.532  0.00  0.00    +0.179 A 
ATOM     22  N   UNL     1       0.998   6.695 -12.551  0.00  0.00    -0.222 NA
ATOM     23  C   UNL     1      -0.110   7.189 -11.958  0.00  0.00    +0.119 A 
ATOM     24  C   UNL     1      -0.065   6.928 -10.594  0.00  0.00    +0.098 A 
ENDBRANCH  19  20
ENDBRANCH   1  19
TORSDOF 6
ENDMDL
MODEL 6
REMARK VINA RESULT:      -7.7      3.773      6.641
REMARK  Name = 
REMARK  6 active torsions:
REMARK  status: ('A' for Active; 'I' for Inactive)
REMARK    1  A    between atoms: C_5  and  C_6
REMARK    2  A    between atoms: C_6  and  S_7
REMARK    3  A    between atoms: S_7  and  C_8
REMARK    4  A    between atoms: C_8  and  C_9
REMARK    5  A    between atoms: C_8  and  C_15
REMARK    6  A    between atoms: C_9  and  N_10
REMARK                            x       y       z     vdW  Elec       q    Type
REMARK                         _______ _______ _______ _____ _____    ______ ____
ROOT
ATOM      1  C   UNL     1       0.699   6.131  -6.804  0.00  0.00    +0.093 C 
ENDROOT
BRANCH   1   2
ATOM      2  C   UNL     1       0.645   5.990  -8.359  0.00  0.00    +0.000 A 
ATOM      3  C   UNL     1       1.517   6.755  -9.100  0.00  0.00    +0.055 A 
ATOM      4 CL   UNL     1       2.645   7.839  -8.300  0.00  0.00    -0.083 Cl
ATOM      5  C   UNL     1       1.599   6.534 -10.470  0.00  0.00    +0.022 A 
ATOM      6  C   UNL     1       0.951   5.476 -11.061  0.00  0.00    +0.058 A 
ATOM      7 CL   UNL     1       0.811   5.287 -12.799  0.00  0.00    -0.082 Cl
ATOM      8  C   UNL     1       0.042   4.754 -10.301  0.00  0.00    +0.011 A 
ATOM      9  C   UNL     1       0.143   4.854  -8.918  0.00  0.00    -0.002 A 
ENDBRANCH   1   2
BRANCH   1  10
ATOM     10  S   UNL     1       1.639   4.495  -6.500  0.00  0.00    -0.130 S 
BRANCH  10  11
ATOM     11  C   UNL     1       3.404   4.839  -6.644  0.00  0.00    +0.084 C 
BRANCH  11  16
ATOM     12 CL   UNL     1       4.724   7.357  -1.591  0.00  0.00    -0.082 Cl
ATOM     13  C   UNL     1       4.554   6.630  -2.983  0.00  0.00    +0.058 A 
ATOM     14  C   UNL     1       4.366   5.264  -3.079  0.00  0.00    +0.011 A 
ATOM     15  C   UNL     1       4.054   4.632  -4.252  0.00  0.00    -0.003 A 
ATOM     16  C   UNL     1       3.990   5.385  -5.408  0.00  0.00    -0.011 A 
ATOM     17  C   UNL     1       4.416   6.686  -5.389  0.00  0.00    -0.003 A 
ATOM     18  C   UNL     1       4.693   7.308  -4.186  0.00  0.00    +0.011 A 
ENDBRANCH  11  16
ENDBRANCH  10  11
ENDBRANCH   1  10
BRANCH   1  19
ATOM     19  C   UNL     1      -0.748   5.512  -6.546  0.00  0.00    +0.123 C 
BRANCH  19  20
ATOM     20  N   UNL     1      -1.377   6.253  -5.488  0.00  0.00    -0.307 N 
ATOM     21  C   UNL     1      -2.322   5.772  -4.662  0.00  0.00    +0.179 A 
ATOM     22  N   UNL     1      -2.790   6.763  -3.875  0.00  0.00    -0.222 NA
ATOM     23  C   UNL     1      -1.940   7.792  -4.081  0.00  0.00    +0.119 A 
ATOM     24  C   UNL     1      -0.909   7.385  -4.920  0.00  0.00    +0.098 A 
ENDBRANCH  19  20
ENDBRANCH   1  19
TORSDOF 6
ENDMDL
MODEL 7
REMARK VINA RESULT:      -7.7      3.881      5.301
REMARK  Name = 
REMARK  6 active torsions:
REMARK  status: ('A' for Active; 'I' for Inactive)
REMARK    1  A    between atoms: C_5  and  C_6
REMARK    2  A    between atoms: C_6  and  S_7
REMARK    3  A    between atoms: S_7  and  C_8
REMARK    4  A    between atoms: C_8  and  C_9
REMARK    5  A    between atoms: C_8  and  C_15
REMARK    6  A    between atoms: C_9  and  N_10
REMARK                            x       y       z     vdW  Elec       q    Type
REMARK                         _______ _______ _______ _____ _____    ______ ____
ROOT
ATOM      1  C   UNL     1       0.201   4.959  -6.729  0.00  0.00    +0.093 C 
ENDROOT
BRANCH   1   2
ATOM      2  C   UNL     1      -0.244   5.654  -5.402  0.00  0.00    +0.000 A 
ATOM      3  C   UNL     1      -1.537   6.119  -5.327  0.00  0.00    +0.055 A 
ATOM      4 CL   UNL     1      -2.630   5.921  -6.688  0.00  0.00    -0.083 Cl
ATOM      5  C   UNL     1      -2.004   6.596  -4.108  0.00  0.00    +0.022 A 
ATOM      6  C   UNL     1      -1.260   6.467  -2.960  0.00  0.00    +0.058 A 
ATOM      7 CL   UNL     1      -1.677   7.261  -1.452  0.00  0.00    -0.082 Cl
ATOM      8  C   UNL     1       0.056   6.042  -3.073  0.00  0.00    +0.011 A 
ATOM      9  C   UNL     1       0.415   5.379  -4.241  0.00  0.00    -0.002 A 
ENDBRANCH   1   2
BRANCH   1  10
ATOM     10  S   UNL     1       1.780   4.163  -6.004  0.00  0.00    -0.130 S 
BRANCH  10  11
ATOM     11  C   UNL     1       3.159   5.279  -6.334  0.00  0.00    +0.084 C 
BRANCH  11  16
ATOM     12 CL   UNL     1       4.810   7.413  -1.202  0.00  0.00    -0.082 Cl
ATOM     13  C   UNL     1       4.550   6.805  -2.637  0.00  0.00    +0.058 A 
ATOM     14  C   UNL     1       4.436   5.444  -2.847  0.00  0.00    +0.011 A 
ATOM     15  C   UNL     1       4.051   4.901  -4.043  0.00  0.00    -0.003 A 
ATOM     16  C   UNL     1       3.829   5.750  -5.110  0.00  0.00    -0.011 A 
ATOM     17  C   UNL     1       4.174   7.070  -5.003  0.00  0.00    -0.003 A 
ATOM     18  C   UNL     1       4.528   7.598  -3.776  0.00  0.00    +0.011 A 
ENDBRANCH  11  16
ENDBRANCH  10  11
ENDBRANCH   1  10
BRANCH   1  19
ATOM     19  C   UNL     1       0.947   6.237  -7.324  0.00  0.00    +0.123 C 
BRANCH  19  20
ATOM     20  N   UNL     1       0.987   6.114  -8.755  0.00  0.00    -0.307 N 
ATOM     21  C   UNL     1      -0.028   5.681  -9.523  0.00  0.00    +0.179 A 
ATOM     22  N   UNL     1       0.384   5.561 -10.802  0.00  0.00    -0.222 NA
ATOM     23  C   UNL     1       1.595   6.158 -10.826  0.00  0.00    +0.119 A 
ATOM     24  C   UNL     1       1.866   6.717  -9.583  0.00  0.00    +0.098 A 
ENDBRANCH  19  20
ENDBRANCH   1  19
TORSDOF 6
ENDMDL
MODEL 8
REMARK VINA RESULT:      -7.6      2.494      3.479
REMARK  Name = 
REMARK  6 active torsions:
REMARK  status: ('A' for Active; 'I' for Inactive)
REMARK    1  A    between atoms: C_5  and  C_6
REMARK    2  A    between atoms: C_6  and  S_7
REMARK    3  A    between atoms: S_7  and  C_8
REMARK    4  A    between atoms: C_8  and  C_9
REMARK    5  A    between atoms: C_8  and  C_15
REMARK    6  A    between atoms: C_9  and  N_10
REMARK                            x       y       z     vdW  Elec       q    Type
REMARK                         _______ _______ _______ _____ _____    ______ ____
ROOT
ATOM      1  C   UNL     1       1.679   5.060  -4.931  0.00  0.00    +0.093 C 
ENDROOT
BRANCH   1   2
ATOM      2  C   UNL     1       2.471   5.698  -3.744  0.00  0.00    +0.000 A 
ATOM      3  C   UNL     1       1.866   5.710  -2.508  0.00  0.00    +0.055 A 
ATOM      4 CL   UNL     1       0.264   5.021  -2.298  0.00  0.00    -0.083 Cl
ATOM      5  C   UNL     1       2.607   6.126  -1.408  0.00  0.00    +0.022 A 
ATOM      6  C   UNL     1       3.956   6.370  -1.508  0.00  0.00    +0.058 A 
ATOM      7 CL   UNL     1       4.891   7.129  -0.233  0.00  0.00    -0.082 Cl
ATOM      8  C   UNL     1       4.527   6.398  -2.773  0.00  0.00    +0.011 A 
ATOM      9  C   UNL     1       3.830   5.778  -3.802  0.00  0.00    -0.002 A 
ENDBRANCH   1   2
BRANCH   1  10
ATOM     10  S   UNL     1       3.182   4.922  -6.105  0.00  0.00    -0.130 S 
BRANCH  10  11
ATOM     11  C   UNL     1       2.885   6.016  -7.508  0.00  0.00    +0.084 C 
BRANCH  11  16
ATOM     12 CL   UNL     1       7.447   6.779 -11.005  0.00  0.00    -0.082 Cl
ATOM     13  C   UNL     1       6.162   6.416 -10.162  0.00  0.00    +0.058 A 
ATOM     14  C   UNL     1       6.203   5.520  -9.110  0.00  0.00    +0.011 A 
ATOM     15  C   UNL     1       5.149   5.311  -8.263  0.00  0.00    -0.003 A 
ATOM     16  C   UNL     1       3.964   5.977  -8.511  0.00  0.00    -0.011 A 
ATOM     17  C   UNL     1       3.813   6.671  -9.681  0.00  0.00    -0.003 A 
ATOM     18  C   UNL     1       4.903   6.894 -10.501  0.00  0.00    +0.011 A 
ENDBRANCH  11  16
ENDBRANCH  10  11
ENDBRANCH   1  10
BRANCH   1  19
ATOM     19  C   UNL     1       1.162   6.445  -5.528  0.00  0.00    +0.123 C 
BRANCH  19  20
ATOM     20  N   UNL     1      -0.275   6.423  -5.545  0.00  0.00    -0.307 N 
ATOM     21  C   UNL     1      -1.070   7.303  -4.914  0.00  0.00    +0.179 A 
ATOM     22  N   UNL     1      -2.359   6.920  -5.025  0.00  0.00    -0.222 NA
ATOM     23  C   UNL     1      -2.339   5.924  -5.937  0.00  0.00    +0.119 A 
ATOM     24  C   UNL     1      -1.052   5.776  -6.439  0.00  0.00    +0.098 A 
ENDBRANCH  19  20
ENDBRANCH   1  19
TORSDOF 6
ENDMDL
MODEL 9
REMARK VINA RESULT:      -7.4      3.321      6.362
REMARK  Name = 
REMARK  6 active torsions:
REMARK  status: ('A' for Active; 'I' for Inactive)
REMARK    1  A    between atoms: C_5  and  C_6
REMARK    2  A    between atoms: C_6  and  S_7
REMARK    3  A    between atoms: S_7  and  C_8
REMARK    4  A    between atoms: C_8  and  C_9
REMARK    5  A    between atoms: C_8  and  C_15
REMARK    6  A    between atoms: C_9  and  N_10
REMARK                            x       y       z     vdW  Elec       q    Type
REMARK                         _______ _______ _______ _____ _____    ______ ____
ROOT
ATOM      1  C   UNL     1       2.289   4.823  -6.844  0.00  0.00    +0.093 C 
ENDROOT
BRANCH   1   2
ATOM      2  C   UNL     1       1.010   5.336  -6.109  0.00  0.00    +0.000 A 
ATOM      3  C   UNL     1      -0.100   5.612  -6.875  0.00  0.00    +0.055 A 
ATOM      4 CL   UNL     1      -0.053   5.383  -8.617  0.00  0.00    -0.083 Cl
ATOM      5  C   UNL     1      -1.294   5.917  -6.234  0.00  0.00    +0.022 A 
ATOM      6  C   UNL     1      -1.423   5.794  -4.871  0.00  0.00    +0.058 A 
ATOM      7 CL   UNL     1      -2.810   6.393  -3.980  0.00  0.00    -0.082 Cl
ATOM      8  C   UNL     1      -0.279   5.563  -4.121  0.00  0.00    +0.011 A 
ATOM      9  C   UNL     1       0.831   5.057  -4.787  0.00  0.00    -0.002 A 
ENDBRANCH   1   2
BRANCH   1  10
ATOM     10  S   UNL     1       3.252   4.375  -5.255  0.00  0.00    -0.130 S 
BRANCH  10  11
ATOM     11  C   UNL     1       4.282   5.791  -4.819  0.00  0.00    +0.084 C 
BRANCH  11  16
ATOM     12 CL   UNL     1       4.875   7.073   0.805  0.00  0.00    -0.082 Cl
ATOM     13  C   UNL     1       4.524   6.758  -0.702  0.00  0.00    +0.058 A 
ATOM     14  C   UNL     1       4.463   7.749  -1.664  0.00  0.00    +0.011 A 
ATOM     15  C   UNL     1       4.322   7.488  -3.000  0.00  0.00    -0.003 A 
ATOM     16  C   UNL     1       4.167   6.175  -3.401  0.00  0.00    -0.011 A 
ATOM     17  C   UNL     1       3.972   5.202  -2.459  0.00  0.00    -0.003 A 
ATOM     18  C   UNL     1       4.152   5.487  -1.119  0.00  0.00    +0.011 A 
ENDBRANCH  11  16
ENDBRANCH  10  11
ENDBRANCH   1  10
BRANCH   1  19
ATOM     19  C   UNL     1       2.954   6.263  -7.010  0.00  0.00    +0.123 C 
BRANCH  19  20
ATOM     20  N   UNL     1       3.676   6.289  -8.253  0.00  0.00    -0.307 N 
ATOM     21  C   UNL     1       4.617   5.403  -8.619  0.00  0.00    +0.179 A 
ATOM     22  N   UNL     1       5.186   5.791  -9.779  0.00  0.00    -0.222 NA
ATOM     23  C   UNL     1       4.403   6.799 -10.220  0.00  0.00    +0.119 A 
ATOM     24  C   UNL     1       3.313   6.950  -9.372  0.00  0.00    +0.098 A 
ENDBRANCH  19  20
ENDBRANCH   1  19
TORSDOF 6
ENDMDL
