MODEL 1
REMARK VINA RESULT:      -7.4      0.000      0.000
REMARK  Name = 
REMARK  16 active torsions:
REMARK  status: ('A' for Active; 'I' for Inactive)
REMARK    1  A    between atoms: C_2  and  C_3
REMARK    2  A    between atoms: C_5  and  C_6
REMARK    3  A    between atoms: C_6  and  C_8
REMARK    4  A    between atoms: C_8  and  N_9
REMARK    5  A    between atoms: N_9  and  C_10
REMARK    6  A    between atoms: C_10  and  C_11
REMARK    7  A    between atoms: C_11  and  C_12
REMARK    8  A    between atoms: C_12  and  C_13
REMARK    9  A    between atoms: C_13  and  C_14
REMARK   10  A    between atoms: C_14  and  C_15
REMARK   11  A    between atoms: C_15  and  O_16
REMARK   12  A    between atoms: O_16  and  C_17
REMARK   13  A    between atoms: C_17  and  C_18
REMARK   14  A    between atoms: C_18  and  C_19
REMARK   15  A    between atoms: C_19  and  C_20
REMARK   16  A    between atoms: C_20  and  C_21
REMARK                            x       y       z     vdW  Elec       q    Type
REMARK                         _______ _______ _______ _____ _____    ______ ____
ROOT
ATOM      1  C   UNL     1      -1.369   5.455  -7.014  0.00  0.00    +0.019 C 
ENDROOT
BRANCH   1   2
ATOM      2  C   UNL     1       0.086   5.326  -6.582  0.00  0.00    +0.089 C 
BRANCH   2   3
ATOM      3  N   UNL     1       0.921   6.160  -7.433  0.00  0.00    -0.215 NA
BRANCH   3   4
ATOM      4  C   UNL     1       1.805   5.304  -8.215  0.00  0.00    +0.126 C 
BRANCH   4   5
ATOM      5  C   UNL     1       2.125   6.240  -9.566  0.00  0.00    +0.192 C 
ATOM      6  O   UNL     1       1.799   7.534  -8.796  0.00  0.00    -0.217 OA
BRANCH   5  12
ATOM      7  C   UNL     1       5.692   7.015 -10.477  0.00  0.00    +0.049 A 
ATOM      8  C   UNL     1       6.408   6.027  -9.814  0.00  0.00    +0.194 A 
ATOM      9  O   UNL     1       7.670   5.684 -10.265  0.00  0.00    -0.287 OA
ATOM     10  C   UNL     1       5.744   5.262  -8.864  0.00  0.00    +0.042 A 
ATOM     11  C   UNL     1       4.389   5.457  -8.632  0.00  0.00    +0.001 A 
ATOM     12  C   UNL     1       3.722   6.418  -9.256  0.00  0.00    +0.009 A 
ATOM     13  C   UNL     1       4.327   7.146 -10.274  0.00  0.00    -0.000 A 
BRANCH   7  15
ATOM     14  O   UNL     1       6.467   8.191 -11.570  0.00  0.00    -0.215 OA
ATOM     15  C   UNL     1       6.442   7.848 -11.461  0.00  0.00    +0.212 C 
ENDBRANCH   7  15
ENDBRANCH   5  12
ENDBRANCH   4   5
ENDBRANCH   3   4
ENDBRANCH   2   3
ENDBRANCH   1   2
BRANCH   1  16
ATOM     16  C   UNL     1      -2.207   5.337  -5.757  0.00  0.00    +0.002 C 
BRANCH  16  17
ATOM     17  C   UNL     1      -2.457   6.775  -5.317  0.00  0.00    +0.003 C 
BRANCH  17  18
ATOM     18  C   UNL     1      -2.599   6.775  -3.805  0.00  0.00    +0.032 C 
BRANCH  18  19
ATOM     19  C   UNL     1      -3.086   5.371  -3.463  0.00  0.00    +0.142 C 
BRANCH  19  20
ATOM     20  O   UNL     1      -2.486   4.882  -2.312  0.00  0.00    -0.354 OA
BRANCH  20  21
ATOM     21  C   UNL     1      -1.540   5.785  -1.856  0.00  0.00    +0.142 C 
BRANCH  21  22
ATOM     22  C   UNL     1      -0.211   5.150  -1.540  0.00  0.00    +0.032 C 
BRANCH  22  23
ATOM     23  C   UNL     1       0.833   5.532  -2.588  0.00  0.00    +0.007 C 
BRANCH  23  24
ATOM     24  C   UNL     1       2.036   6.121  -1.854  0.00  0.00    +0.026 C 
BRANCH  24  25
ATOM     25  C   UNL     1       2.999   6.571  -2.910  0.00  0.00    -0.022 A 
ATOM     26  C   UNL     1       2.568   7.008  -4.158  0.00  0.00    -0.004 A 
ATOM     27  C   UNL     1       3.429   7.052  -5.248  0.00  0.00    -0.000 A 
ATOM     28  C   UNL     1       4.726   6.602  -5.141  0.00  0.00    -0.000 A 
ATOM     29  C   UNL     1       5.068   5.936  -4.001  0.00  0.00    -0.000 A 
ATOM     30  C   UNL     1       4.213   5.893  -2.936  0.00  0.00    -0.004 A 
ENDBRANCH  24  25
ENDBRANCH  23  24
ENDBRANCH  22  23
ENDBRANCH  21  22
ENDBRANCH  20  21
ENDBRANCH  19  20
ENDBRANCH  18  19
ENDBRANCH  17  18
ENDBRANCH  16  17
ENDBRANCH   1  16
TORSDOF 16
ENDMDL
MODEL 2
REMARK VINA RESULT:      -7.3      2.480      9.381
REMARK  Name = 
REMARK  16 active torsions:
REMARK  status: ('A' for Active; 'I' for Inactive)
REMARK    1  A    between atoms: C_2  and  C_3
REMARK    2  A    between atoms: C_5  and  C_6
REMARK    3  A    between atoms: C_6  and  C_8
REMARK    4  A    between atoms: C_8  and  N_9
REMARK    5  A    between atoms: N_9  and  C_10
REMARK    6  A    between atoms: C_10  and  C_11
REMARK    7  A    between atoms: C_11  and  C_12
REMARK    8  A    between atoms: C_12  and  C_13
REMARK    9  A    between atoms: C_13  and  C_14
REMARK   10  A    between atoms: C_14  and  C_15
REMARK   11  A    between atoms: C_15  and  O_16
REMARK   12  A    between atoms: O_16  and  C_17
REMARK   13  A    between atoms: C_17  and  C_18
REMARK   14  A    between atoms: C_18  and  C_19
REMARK   15  A    between atoms: C_19  and  C_20
REMARK   16  A    between atoms: C_20  and  C_21
REMARK                            x       y       z     vdW  Elec       q    Type
REMARK                         _______ _______ _______ _____ _____    ______ ____
ROOT
ATOM      1  C   UNL     1       4.209   5.348  -9.943  0.00  0.00    +0.019 C 
ENDROOT
BRANCH   1   2
ATOM      2  C   UNL     1       3.138   5.101  -8.888  0.00  0.00    +0.089 C 
BRANCH   2   3
ATOM      3  N   UNL     1       2.783   6.360  -8.253  0.00  0.00    -0.215 NA
BRANCH   3   4
ATOM      4  C   UNL     1       2.305   6.092  -6.903  0.00  0.00    +0.126 C 
BRANCH   4   5
ATOM      5  C   UNL     1       1.206   4.850  -7.140  0.00  0.00    +0.192 C 
ATOM      6  O   UNL     1       1.693   4.124  -5.871  0.00  0.00    -0.217 OA
BRANCH   5  12
ATOM      7  C   UNL     1      -0.914   5.460  -4.092  0.00  0.00    +0.049 A 
ATOM      8  C   UNL     1      -2.202   5.511  -4.610  0.00  0.00    +0.194 A 
ATOM      9  O   UNL     1      -3.278   5.248  -3.781  0.00  0.00    -0.287 OA
ATOM     10  C   UNL     1      -2.351   5.600  -5.988  0.00  0.00    +0.042 A 
ATOM     11  C   UNL     1      -1.236   5.585  -6.815  0.00  0.00    +0.001 A 
ATOM     12  C   UNL     1      -0.012   5.559  -6.306  0.00  0.00    +0.009 A 
ATOM     13  C   UNL     1       0.179   5.382  -4.941  0.00  0.00    -0.000 A 
BRANCH   7  15
ATOM     14  O   UNL     1      -0.647   5.195  -2.349  0.00  0.00    -0.215 OA
ATOM     15  C   UNL     1      -0.785   5.407  -2.608  0.00  0.00    +0.212 C 
ENDBRANCH   7  15
ENDBRANCH   5  12
ENDBRANCH   4   5
ENDBRANCH   3   4
ENDBRANCH   2   3
ENDBRANCH   1   2
BRANCH   1  16
ATOM     16  C   UNL     1       4.088   6.803 -10.351  0.00  0.00    +0.002 C 
BRANCH  16  17
ATOM     17  C   UNL     1       5.501   7.216 -10.749  0.00  0.00    +0.003 C 
BRANCH  17  18
ATOM     18  C   UNL     1       6.358   5.963 -10.766  0.00  0.00    +0.032 C 
BRANCH  18  19
ATOM     19  C   UNL     1       7.015   5.963 -12.143  0.00  0.00    +0.142 C 
BRANCH  19  20
ATOM     20  O   UNL     1       6.477   4.989 -12.971  0.00  0.00    -0.354 OA
BRANCH  20  21
ATOM     21  C   UNL     1       5.481   5.541 -13.759  0.00  0.00    +0.142 C 
BRANCH  21  22
ATOM     22  C   UNL     1       4.144   4.866 -13.594  0.00  0.00    +0.032 C 
BRANCH  22  23
ATOM     23  C   UNL     1       3.007   5.829 -13.930  0.00  0.00    +0.007 C 
BRANCH  23  24
ATOM     24  C   UNL     1       1.721   5.013 -14.034  0.00  0.00    +0.026 C 
BRANCH  24  25
ATOM     25  C   UNL     1       0.833   5.476 -12.919  0.00  0.00    -0.022 A 
ATOM     26  C   UNL     1       0.905   6.770 -12.414  0.00  0.00    -0.004 A 
ATOM     27  C   UNL     1       0.388   7.090 -11.165  0.00  0.00    -0.000 A 
ATOM     28  C   UNL     1      -0.158   6.117 -10.356  0.00  0.00    -0.000 A 
ATOM     29  C   UNL     1       0.009   4.818 -10.737  0.00  0.00    -0.000 A 
ATOM     30  C   UNL     1       0.523   4.513 -11.965  0.00  0.00    -0.004 A 
ENDBRANCH  24  25
ENDBRANCH  23  24
ENDBRANCH  22  23
ENDBRANCH  21  22
ENDBRANCH  20  21
ENDBRANCH  19  20
ENDBRANCH  18  19
ENDBRANCH  17  18
ENDBRANCH  16  17
ENDBRANCH   1  16
TORSDOF 16
ENDMDL
MODEL 3
REMARK VINA RESULT:      -7.2      1.674      4.001
REMARK  Name = 
REMARK  16 active torsions:
REMARK  status: ('A' for Active; 'I' for Inactive)
REMARK    1  A    between atoms: C_2  and  C_3
REMARK    2  A    between atoms: C_5  and  C_6
REMARK    3  A    between atoms: C_6  and  C_8
REMARK    4  A    between atoms: C_8  and  N_9
REMARK    5  A    between atoms: N_9  and  C_10
REMARK    6  A    between atoms: C_10  and  C_11
REMARK    7  A    between atoms: C_11  and  C_12
REMARK    8  A    between atoms: C_12  and  C_13
REMARK    9  A    between atoms: C_13  and  C_14
REMARK   10  A    between atoms: C_14  and  C_15
REMARK   11  A    between atoms: C_15  and  O_16
REMARK   12  A    between atoms: O_16  and  C_17
REMARK   13  A    between atoms: C_17  and  C_18
REMARK   14  A    between atoms: C_18  and  C_19
REMARK   15  A    between atoms: C_19  and  C_20
REMARK   16  A    between atoms: C_20  and  C_21
REMARK                            x       y       z     vdW  Elec       q    Type
REMARK                         _______ _______ _______ _____ _____    ______ ____
ROOT
ATOM      1  C   UNL     1       4.568   4.954  -4.204  0.00  0.00    +0.019 C 
ENDROOT
BRANCH   1   2
ATOM      2  C   UNL     1       3.988   5.809  -5.323  0.00  0.00    +0.089 C 
BRANCH   2   3
ATOM      3  N   UNL     1       3.850   5.004  -6.527  0.00  0.00    -0.215 NA
BRANCH   3   4
ATOM      4  C   UNL     1       3.843   5.885  -7.688  0.00  0.00    +0.126 C 
BRANCH   4   5
ATOM      5  C   UNL     1       3.921   4.809  -8.969  0.00  0.00    +0.192 C 
ATOM      6  O   UNL     1       2.884   5.622  -9.767  0.00  0.00    -0.217 OA
BRANCH   5  12
ATOM      7  C   UNL     1       6.220   5.466 -11.874  0.00  0.00    +0.049 A 
ATOM      8  C   UNL     1       7.461   5.609 -11.267  0.00  0.00    +0.194 A 
ATOM      9  O   UNL     1       8.609   5.390 -12.008  0.00  0.00    -0.287 OA
ATOM     10  C   UNL     1       7.504   5.743  -9.886  0.00  0.00    +0.042 A 
ATOM     11  C   UNL     1       6.333   5.683  -9.140  0.00  0.00    +0.001 A 
ATOM     12  C   UNL     1       5.153   5.568  -9.734  0.00  0.00    +0.009 A 
ATOM     13  C   UNL     1       5.074   5.344 -11.104  0.00  0.00    -0.000 A 
BRANCH   7  15
ATOM     14  O   UNL     1       6.153   5.120 -13.622  0.00  0.00    -0.215 OA
ATOM     15  C   UNL     1       6.204   5.366 -13.362  0.00  0.00    +0.212 C 
ENDBRANCH   7  15
ENDBRANCH   5  12
ENDBRANCH   4   5
ENDBRANCH   3   4
ENDBRANCH   2   3
ENDBRANCH   1   2
BRANCH   1  16
ATOM     16  C   UNL     1       3.981   5.477  -2.909  0.00  0.00    +0.002 C 
BRANCH  16  17
ATOM     17  C   UNL     1       2.506   5.715  -3.216  0.00  0.00    +0.003 C 
BRANCH  17  18
ATOM     18  C   UNL     1       1.839   6.179  -1.934  0.00  0.00    +0.032 C 
BRANCH  18  19
ATOM     19  C   UNL     1       1.219   4.918  -1.342  0.00  0.00    +0.142 C 
BRANCH  19  20
ATOM     20  O   UNL     1      -0.084   4.728  -1.778  0.00  0.00    -0.354 OA
BRANCH  20  21
ATOM     21  C   UNL     1      -0.914   5.675  -1.201  0.00  0.00    +0.142 C 
BRANCH  21  22
ATOM     22  C   UNL     1      -2.198   5.886  -1.960  0.00  0.00    +0.032 C 
BRANCH  22  23
ATOM     23  C   UNL     1      -2.158   7.202  -2.735  0.00  0.00    +0.007 C 
BRANCH  23  24
ATOM     24  C   UNL     1      -2.718   6.938  -4.130  0.00  0.00    +0.026 C 
BRANCH  24  25
ATOM     25  C   UNL     1      -1.597   6.355  -4.935  0.00  0.00    -0.022 A 
ATOM     26  C   UNL     1      -0.395   7.031  -5.113  0.00  0.00    -0.004 A 
ATOM     27  C   UNL     1       0.477   6.700  -6.143  0.00  0.00    -0.000 A 
ATOM     28  C   UNL     1       0.147   5.730  -7.063  0.00  0.00    -0.000 A 
ATOM     29  C   UNL     1      -1.132   5.256  -7.045  0.00  0.00    -0.000 A 
ATOM     30  C   UNL     1      -1.984   5.591  -6.031  0.00  0.00    -0.004 A 
ENDBRANCH  24  25
ENDBRANCH  23  24
ENDBRANCH  22  23
ENDBRANCH  21  22
ENDBRANCH  20  21
ENDBRANCH  19  20
ENDBRANCH  18  19
ENDBRANCH  17  18
ENDBRANCH  16  17
ENDBRANCH   1  16
TORSDOF 16
ENDMDL
MODEL 4
REMARK VINA RESULT:      -7.2      2.059      4.163
REMARK  Name = 
REMARK  16 active torsions:
REMARK  status: ('A' for Active; 'I' for Inactive)
REMARK    1  A    between atoms: C_2  and  C_3
REMARK    2  A    between atoms: C_5  and  C_6
REMARK    3  A    between atoms: C_6  and  C_8
REMARK    4  A    between atoms: C_8  and  N_9
REMARK    5  A    between atoms: N_9  and  C_10
REMARK    6  A    between atoms: C_10  and  C_11
REMARK    7  A    between atoms: C_11  and  C_12
REMARK    8  A    between atoms: C_12  and  C_13
REMARK    9  A    between atoms: C_13  and  C_14
REMARK   10  A    between atoms: C_14  and  C_15
REMARK   11  A    between atoms: C_15  and  O_16
REMARK   12  A    between atoms: O_16  and  C_17
REMARK   13  A    between atoms: C_17  and  C_18
REMARK   14  A    between atoms: C_18  and  C_19
REMARK   15  A    between atoms: C_19  and  C_20
REMARK   16  A    between atoms: C_20  and  C_21
REMARK                            x       y       z     vdW  Elec       q    Type
REMARK                         _______ _______ _______ _____ _____    ______ ____
ROOT
ATOM      1  C   UNL     1       0.944   5.225  -6.849  0.00  0.00    +0.019 C 
ENDROOT
BRANCH   1   2
ATOM      2  C   UNL     1       1.549   5.045  -8.236  0.00  0.00    +0.089 C 
BRANCH   2   3
ATOM      3  N   UNL     1       2.655   4.103  -8.164  0.00  0.00    -0.215 NA
BRANCH   3   4
ATOM      4  C   UNL     1       3.625   4.432  -9.202  0.00  0.00    +0.126 C 
BRANCH   4   5
ATOM      5  C   UNL     1       4.417   5.761  -8.560  0.00  0.00    +0.192 C 
ATOM      6  O   UNL     1       5.540   4.870  -7.996  0.00  0.00    -0.217 OA
BRANCH   5  12
ATOM      7  C   UNL     1       5.373   5.329 -12.173  0.00  0.00    +0.049 A 
ATOM      8  C   UNL     1       6.762   5.335 -12.133  0.00  0.00    +0.194 A 
ATOM      9  O   UNL     1       7.473   4.739 -13.160  0.00  0.00    -0.287 OA
ATOM     10  C   UNL     1       7.382   5.735 -10.957  0.00  0.00    +0.042 A 
ATOM     11  C   UNL     1       6.623   6.069  -9.844  0.00  0.00    +0.001 A 
ATOM     12  C   UNL     1       5.298   6.080  -9.902  0.00  0.00    +0.009 A 
ATOM     13  C   UNL     1       4.640   5.603 -11.030  0.00  0.00    -0.000 A 
BRANCH   7  15
ATOM     14  O   UNL     1       4.421   4.965 -13.635  0.00  0.00    -0.215 OA
ATOM     15  C   UNL     1       4.736   4.934 -13.461  0.00  0.00    +0.212 C 
ENDBRANCH   7  15
ENDBRANCH   5  12
ENDBRANCH   4   5
ENDBRANCH   3   4
ENDBRANCH   2   3
ENDBRANCH   1   2
BRANCH   1  16
ATOM     16  C   UNL     1       1.091   6.692  -6.500  0.00  0.00    +0.002 C 
BRANCH  16  17
ATOM     17  C   UNL     1       1.293   6.716  -4.989  0.00  0.00    +0.003 C 
BRANCH  17  18
ATOM     18  C   UNL     1       2.305   5.638  -4.644  0.00  0.00    +0.032 C 
BRANCH  18  19
ATOM     19  C   UNL     1       2.877   6.060  -3.295  0.00  0.00    +0.142 C 
BRANCH  19  20
ATOM     20  O   UNL     1       2.400   5.269  -2.261  0.00  0.00    -0.354 OA
BRANCH  20  21
ATOM     21  C   UNL     1       1.648   6.040  -1.389  0.00  0.00    +0.142 C 
BRANCH  21  22
ATOM     22  C   UNL     1       0.332   5.409  -1.016  0.00  0.00    +0.032 C 
BRANCH  22  23
ATOM     23  C   UNL     1      -0.787   6.449  -1.026  0.00  0.00    +0.007 C 
BRANCH  23  24
ATOM     24  C   UNL     1      -2.087   5.731  -1.381  0.00  0.00    +0.026 C 
BRANCH  24  25
ATOM     25  C   UNL     1      -2.485   6.220  -2.740  0.00  0.00    -0.022 A 
ATOM     26  C   UNL     1      -2.511   5.375  -3.844  0.00  0.00    -0.004 A 
ATOM     27  C   UNL     1      -2.495   5.876  -5.140  0.00  0.00    -0.000 A 
ATOM     28  C   UNL     1      -2.388   7.230  -5.373  0.00  0.00    -0.000 A 
ATOM     29  C   UNL     1      -2.100   8.029  -4.306  0.00  0.00    -0.000 A 
ATOM     30  C   UNL     1      -2.113   7.527  -3.035  0.00  0.00    -0.004 A 
ENDBRANCH  24  25
ENDBRANCH  23  24
ENDBRANCH  22  23
ENDBRANCH  21  22
ENDBRANCH  20  21
ENDBRANCH  19  20
ENDBRANCH  18  19
ENDBRANCH  17  18
ENDBRANCH  16  17
ENDBRANCH   1  16
TORSDOF 16
ENDMDL
MODEL 5
REMARK VINA RESULT:      -7.1      2.159      4.538
REMARK  Name = 
REMARK  16 active torsions:
REMARK  status: ('A' for Active; 'I' for Inactive)
REMARK    1  A    between atoms: C_2  and  C_3
REMARK    2  A    between atoms: C_5  and  C_6
REMARK    3  A    between atoms: C_6  and  C_8
REMARK    4  A    between atoms: C_8  and  N_9
REMARK    5  A    between atoms: N_9  and  C_10
REMARK    6  A    between atoms: C_10  and  C_11
REMARK    7  A    between atoms: C_11  and  C_12
REMARK    8  A    between atoms: C_12  and  C_13
REMARK    9  A    between atoms: C_13  and  C_14
REMARK   10  A    between atoms: C_14  and  C_15
REMARK   11  A    between atoms: C_15  and  O_16
REMARK   12  A    between atoms: O_16  and  C_17
REMARK   13  A    between atoms: C_17  and  C_18
REMARK   14  A    between atoms: C_18  and  C_19
REMARK   15  A    between atoms: C_19  and  C_20
REMARK   16  A    between atoms: C_20  and  C_21
REMARK                            x       y       z     vdW  Elec       q    Type
REMARK                         _______ _______ _______ _____ _____    ______ ____
ROOT
ATOM      1  C   UNL     1       4.439   7.193  -4.955  0.00  0.00    +0.019 C 
ENDROOT
BRANCH   1   2
ATOM      2  C   UNL     1       4.219   6.180  -6.072  0.00  0.00    +0.089 C 
BRANCH   2   3
ATOM      3  N   UNL     1       3.196   6.676  -6.980  0.00  0.00    -0.215 NA
BRANCH   3   4
ATOM      4  C   UNL     1       3.593   6.376  -8.350  0.00  0.00    +0.126 C 
BRANCH   4   5
ATOM      5  C   UNL     1       4.844   5.283  -8.141  0.00  0.00    +0.192 C 
ATOM      6  O   UNL     1       4.106   4.218  -8.976  0.00  0.00    -0.217 OA
BRANCH   5  12
ATOM      7  C   UNL     1       5.704   5.319 -11.804  0.00  0.00    +0.049 A 
ATOM      8  C   UNL     1       7.093   5.310 -11.800  0.00  0.00    +0.194 A 
ATOM      9  O   UNL     1       7.772   4.849 -12.915  0.00  0.00    -0.287 OA
ATOM     10  C   UNL     1       7.748   5.549 -10.599  0.00  0.00    +0.042 A 
ATOM     11  C   UNL     1       7.020   5.739  -9.432  0.00  0.00    +0.001 A 
ATOM     12  C   UNL     1       5.695   5.768  -9.453  0.00  0.00    +0.009 A 
ATOM     13  C   UNL     1       5.003   5.447 -10.616  0.00  0.00    -0.000 A 
BRANCH   7  15
ATOM     14  O   UNL     1       5.024   4.862 -13.387  0.00  0.00    -0.215 OA
ATOM     15  C   UNL     1       5.030   5.101 -13.116  0.00  0.00    +0.212 C 
ENDBRANCH   7  15
ENDBRANCH   5  12
ENDBRANCH   4   5
ENDBRANCH   3   4
ENDBRANCH   2   3
ENDBRANCH   1   2
BRANCH   1  16
ATOM     16  C   UNL     1       4.167   6.468  -3.652  0.00  0.00    +0.002 C 
BRANCH  16  17
ATOM     17  C   UNL     1       4.062   7.571  -2.605  0.00  0.00    +0.003 C 
BRANCH  17  18
ATOM     18  C   UNL     1       4.661   7.038  -1.316  0.00  0.00    +0.032 C 
BRANCH  18  19
ATOM     19  C   UNL     1       3.655   6.006  -0.819  0.00  0.00    +0.142 C 
BRANCH  19  20
ATOM     20  O   UNL     1       2.829   6.523   0.168  0.00  0.00    -0.354 OA
BRANCH  20  21
ATOM     21  C   UNL     1       1.550   6.700  -0.335  0.00  0.00    +0.142 C 
BRANCH  21  22
ATOM     22  C   UNL     1       0.983   5.461  -0.977  0.00  0.00    +0.032 C 
BRANCH  22  23
ATOM     23  C   UNL     1       0.050   5.828  -2.130  0.00  0.00    +0.007 C 
BRANCH  23  24
ATOM     24  C   UNL     1       0.703   5.356  -3.426  0.00  0.00    +0.026 C 
BRANCH  24  25
ATOM     25  C   UNL     1      -0.243   5.710  -4.533  0.00  0.00    -0.022 A 
ATOM     26  C   UNL     1      -1.618   5.766  -4.331  0.00  0.00    -0.004 A 
ATOM     27  C   UNL     1      -2.510   5.706  -5.395  0.00  0.00    -0.000 A 
ATOM     28  C   UNL     1      -2.059   5.525  -6.684  0.00  0.00    -0.000 A 
ATOM     29  C   UNL     1      -0.742   5.208  -6.851  0.00  0.00    -0.000 A 
ATOM     30  C   UNL     1       0.126   5.265  -5.797  0.00  0.00    -0.004 A 
ENDBRANCH  24  25
ENDBRANCH  23  24
ENDBRANCH  22  23
ENDBRANCH  21  22
ENDBRANCH  20  21
ENDBRANCH  19  20
ENDBRANCH  18  19
ENDBRANCH  17  18
ENDBRANCH  16  17
ENDBRANCH   1  16
TORSDOF 16
ENDMDL
MODEL 6
REMARK VINA RESULT:      -7.1      1.910      2.545
REMARK  Name = 
REMARK  16 active torsions:
REMARK  status: ('A' for Active; 'I' for Inactive)
REMARK    1  A    between atoms: C_2  and  C_3
REMARK    2  A    between atoms: C_5  and  C_6
REMARK    3  A    between atoms: C_6  and  C_8
REMARK    4  A    between atoms: C_8  and  N_9
REMARK    5  A    between atoms: N_9  and  C_10
REMARK    6  A    between atoms: C_10  and  C_11
REMARK    7  A    between atoms: C_11  and  C_12
REMARK    8  A    between atoms: C_12  and  C_13
REMARK    9  A    between atoms: C_13  and  C_14
REMARK   10  A    between atoms: C_14  and  C_15
REMARK   11  A    between atoms: C_15  and  O_16
REMARK   12  A    between atoms: O_16  and  C_17
REMARK   13  A    between atoms: C_17  and  C_18
REMARK   14  A    between atoms: C_18  and  C_19
REMARK   15  A    between atoms: C_19  and  C_20
REMARK   16  A    between atoms: C_20  and  C_21
REMARK                            x       y       z     vdW  Elec       q    Type
REMARK                         _______ _______ _______ _____ _____    ______ ____
ROOT
ATOM      1  C   UNL     1       0.967   5.944  -8.335  0.00  0.00    +0.019 C 
ENDROOT
BRANCH   1   2
ATOM      2  C   UNL     1       1.543   7.237  -7.771  0.00  0.00    +0.089 C 
BRANCH   2   3
ATOM      3  N   UNL     1       2.935   7.364  -8.174  0.00  0.00    -0.215 NA
BRANCH   3   4
ATOM      4  C   UNL     1       3.258   6.291  -9.107  0.00  0.00    +0.126 C 
BRANCH   4   5
ATOM      5  C   UNL     1       4.652   5.636  -8.449  0.00  0.00    +0.192 C 
ATOM      6  O   UNL     1       4.317   4.246  -9.023  0.00  0.00    -0.217 OA
BRANCH   5  12
ATOM      7  C   UNL     1       5.729   5.345 -12.042  0.00  0.00    +0.049 A 
ATOM      8  C   UNL     1       7.113   5.264 -11.949  0.00  0.00    +0.194 A 
ATOM      9  O   UNL     1       7.830   4.683 -12.981  0.00  0.00    -0.287 OA
ATOM     10  C   UNL     1       7.707   5.561 -10.730  0.00  0.00    +0.042 A 
ATOM     11  C   UNL     1       6.923   5.878  -9.629  0.00  0.00    +0.001 A 
ATOM     12  C   UNL     1       5.605   5.974  -9.736  0.00  0.00    +0.009 A 
ATOM     13  C   UNL     1       4.967   5.600 -10.913  0.00  0.00    -0.000 A 
BRANCH   7  15
ATOM     14  O   UNL     1       4.981   4.785 -13.560  0.00  0.00    -0.215 OA
ATOM     15  C   UNL     1       5.123   5.060 -13.374  0.00  0.00    +0.212 C 
ENDBRANCH   7  15
ENDBRANCH   5  12
ENDBRANCH   4   5
ENDBRANCH   3   4
ENDBRANCH   2   3
ENDBRANCH   1   2
BRANCH   1  16
ATOM     16  C   UNL     1       0.242   5.259  -7.194  0.00  0.00    +0.002 C 
BRANCH  16  17
ATOM     17  C   UNL     1       1.347   4.635  -6.347  0.00  0.00    +0.003 C 
BRANCH  17  18
ATOM     18  C   UNL     1       1.053   4.966  -4.895  0.00  0.00    +0.032 C 
BRANCH  18  19
ATOM     19  C   UNL     1      -0.414   5.382  -4.881  0.00  0.00    +0.142 C 
BRANCH  19  20
ATOM     20  O   UNL     1      -0.912   5.477  -3.590  0.00  0.00    -0.354 OA
BRANCH  20  21
ATOM     21  C   UNL     1       0.037   6.054  -2.762  0.00  0.00    +0.142 C 
BRANCH  21  22
ATOM     22  C   UNL     1       0.295   5.264  -1.507  0.00  0.00    +0.032 C 
BRANCH  22  23
ATOM     23  C   UNL     1       1.796   5.099  -1.271  0.00  0.00    +0.007 C 
BRANCH  23  24
ATOM     24  C   UNL     1       2.418   6.493  -1.238  0.00  0.00    +0.026 C 
BRANCH  24  25
ATOM     25  C   UNL     1       3.470   6.514  -2.304  0.00  0.00    -0.022 A 
ATOM     26  C   UNL     1       3.454   7.452  -3.331  0.00  0.00    -0.004 A 
ATOM     27  C   UNL     1       4.167   7.252  -4.507  0.00  0.00    -0.000 A 
ATOM     28  C   UNL     1       4.865   6.083  -4.719  0.00  0.00    -0.000 A 
ATOM     29  C   UNL     1       4.667   5.065  -3.834  0.00  0.00    -0.000 A 
ATOM     30  C   UNL     1       3.960   5.269  -2.683  0.00  0.00    -0.004 A 
ENDBRANCH  24  25
ENDBRANCH  23  24
ENDBRANCH  22  23
ENDBRANCH  21  22
ENDBRANCH  20  21
ENDBRANCH  19  20
ENDBRANCH  18  19
ENDBRANCH  17  18
ENDBRANCH  16  17
ENDBRANCH   1  16
TORSDOF 16
ENDMDL
MODEL 7
REMARK VINA RESULT:      -7.1      2.598      8.086
REMARK  Name = 
REMARK  16 active torsions:
REMARK  status: ('A' for Active; 'I' for Inactive)
REMARK    1  A    between atoms: C_2  and  C_3
REMARK    2  A    between atoms: C_5  and  C_6
REMARK    3  A    between atoms: C_6  and  C_8
REMARK    4  A    between atoms: C_8  and  N_9
REMARK    5  A    between atoms: N_9  and  C_10
REMARK    6  A    between atoms: C_10  and  C_11
REMARK    7  A    between atoms: C_11  and  C_12
REMARK    8  A    between atoms: C_12  and  C_13
REMARK    9  A    between atoms: C_13  and  C_14
REMARK   10  A    between atoms: C_14  and  C_15
REMARK   11  A    between atoms: C_15  and  O_16
REMARK   12  A    between atoms: O_16  and  C_17
REMARK   13  A    between atoms: C_17  and  C_18
REMARK   14  A    between atoms: C_18  and  C_19
REMARK   15  A    between atoms: C_19  and  C_20
REMARK   16  A    between atoms: C_20  and  C_21
REMARK                            x       y       z     vdW  Elec       q    Type
REMARK                         _______ _______ _______ _____ _____    ______ ____
ROOT
ATOM      1  C   UNL     1       4.663   6.482  -3.282  0.00  0.00    +0.019 C 
ENDROOT
BRANCH   1   2
ATOM      2  C   UNL     1       3.852   7.470  -2.452  0.00  0.00    +0.089 C 
BRANCH   2   3
ATOM      3  N   UNL     1       3.002   6.740  -1.524  0.00  0.00    -0.215 NA
BRANCH   3   4
ATOM      4  C   UNL     1       2.406   5.606  -2.220  0.00  0.00    +0.126 C 
BRANCH   4   5
ATOM      5  C   UNL     1       1.615   4.791  -0.988  0.00  0.00    +0.192 C 
ATOM      6  O   UNL     1       1.735   6.009  -0.052  0.00  0.00    -0.217 OA
BRANCH   5  12
ATOM      7  C   UNL     1      -0.982   5.945  -3.454  0.00  0.00    +0.049 A 
ATOM      8  C   UNL     1      -1.683   6.910  -2.744  0.00  0.00    +0.194 A 
ATOM      9  O   UNL     1      -2.387   7.883  -3.432  0.00  0.00    -0.287 OA
ATOM     10  C   UNL     1      -1.468   7.003  -1.375  0.00  0.00    +0.042 A 
ATOM     11  C   UNL     1      -0.536   6.179  -0.756  0.00  0.00    +0.001 A 
ATOM     12  C   UNL     1       0.110   5.246  -1.442  0.00  0.00    +0.009 A 
ATOM     13  C   UNL     1      -0.012   5.180  -2.825  0.00  0.00    -0.000 A 
BRANCH   7  15
ATOM     14  O   UNL     1      -1.459   5.643  -5.146  0.00  0.00    -0.215 OA
ATOM     15  C   UNL     1      -1.264   5.842  -4.915  0.00  0.00    +0.212 C 
ENDBRANCH   7  15
ENDBRANCH   5  12
ENDBRANCH   4   5
ENDBRANCH   3   4
ENDBRANCH   2   3
ENDBRANCH   1   2
BRANCH   1  16
ATOM     16  C   UNL     1       5.043   7.200  -4.561  0.00  0.00    +0.002 C 
BRANCH  16  17
ATOM     17  C   UNL     1       4.565   6.283  -5.681  0.00  0.00    +0.003 C 
BRANCH  17  18
ATOM     18  C   UNL     1       3.278   6.867  -6.235  0.00  0.00    +0.032 C 
BRANCH  18  19
ATOM     19  C   UNL     1       2.198   5.864  -5.844  0.00  0.00    +0.142 C 
BRANCH  19  20
ATOM     20  O   UNL     1       1.634   5.252  -6.953  0.00  0.00    -0.354 OA
BRANCH  20  21
ATOM     21  C   UNL     1       2.242   4.027  -7.173  0.00  0.00    +0.142 C 
BRANCH  21  22
ATOM     22  C   UNL     1       2.565   3.771  -8.622  0.00  0.00    +0.032 C 
BRANCH  22  23
ATOM     23  C   UNL     1       3.926   4.363  -8.985  0.00  0.00    +0.007 C 
BRANCH  23  24
ATOM     24  C   UNL     1       3.681   5.660  -9.752  0.00  0.00    +0.026 C 
BRANCH  24  25
ATOM     25  C   UNL     1       4.999   6.369  -9.821  0.00  0.00    -0.022 A 
ATOM     26  C   UNL     1       5.296   7.266 -10.842  0.00  0.00    -0.004 A 
ATOM     27  C   UNL     1       6.606   7.621 -11.135  0.00  0.00    -0.000 A 
ATOM     28  C   UNL     1       7.662   7.044 -10.463  0.00  0.00    -0.000 A 
ATOM     29  C   UNL     1       7.385   5.982  -9.654  0.00  0.00    -0.000 A 
ATOM     30  C   UNL     1       6.093   5.636  -9.375  0.00  0.00    -0.004 A 
ENDBRANCH  24  25
ENDBRANCH  23  24
ENDBRANCH  22  23
ENDBRANCH  21  22
ENDBRANCH  20  21
ENDBRANCH  19  20
ENDBRANCH  18  19
ENDBRANCH  17  18
ENDBRANCH  16  17
ENDBRANCH   1  16
TORSDOF 16
ENDMDL
MODEL 8
REMARK VINA RESULT:      -7.1      4.281      7.473
REMARK  Name = 
REMARK  16 active torsions:
REMARK  status: ('A' for Active; 'I' for Inactive)
REMARK    1  A    between atoms: C_2  and  C_3
REMARK    2  A    between atoms: C_5  and  C_6
REMARK    3  A    between atoms: C_6  and  C_8
REMARK    4  A    between atoms: C_8  and  N_9
REMARK    5  A    between atoms: N_9  and  C_10
REMARK    6  A    between atoms: C_10  and  C_11
REMARK    7  A    between atoms: C_11  and  C_12
REMARK    8  A    between atoms: C_12  and  C_13
REMARK    9  A    between atoms: C_13  and  C_14
REMARK   10  A    between atoms: C_14  and  C_15
REMARK   11  A    between atoms: C_15  and  O_16
REMARK   12  A    between atoms: O_16  and  C_17
REMARK   13  A    between atoms: C_17  and  C_18
REMARK   14  A    between atoms: C_18  and  C_19
REMARK   15  A    between atoms: C_19  and  C_20
REMARK   16  A    between atoms: C_20  and  C_21
REMARK                            x       y       z     vdW  Elec       q    Type
REMARK                         _______ _______ _______ _____ _____    ______ ____
ROOT
ATOM      1  C   UNL     1       0.299   7.310   1.063  0.00  0.00    +0.019 C 
ENDROOT
BRANCH   1   2
ATOM      2  C   UNL     1      -0.319   8.679   1.323  0.00  0.00    +0.089 C 
BRANCH   2   3
ATOM      3  N   UNL     1       0.612   9.717   0.910  0.00  0.00    -0.215 NA
BRANCH   3   4
ATOM      4  C   UNL     1       1.974   9.255   1.149  0.00  0.00    +0.126 C 
BRANCH   4   5
ATOM      5  C   UNL     1       2.858  10.104   0.008  0.00  0.00    +0.192 C 
ATOM      6  O   UNL     1       3.892  10.530   1.068  0.00  0.00    -0.217 OA
BRANCH   5  12
ATOM      7  C   UNL     1       4.247   7.616  -2.449  0.00  0.00    +0.049 A 
ATOM      8  C   UNL     1       4.231   6.426  -1.733  0.00  0.00    +0.194 A 
ATOM      9  O   UNL     1       4.213   5.223  -2.417  0.00  0.00    -0.287 OA
ATOM     10  C   UNL     1       4.004   6.486  -0.365  0.00  0.00    +0.042 A 
ATOM     11  C   UNL     1       3.751   7.705   0.249  0.00  0.00    +0.001 A 
ATOM     12  C   UNL     1       3.791   8.837  -0.441  0.00  0.00    +0.009 A 
ATOM     13  C   UNL     1       3.928   8.812  -1.824  0.00  0.00    -0.000 A 
BRANCH   7  15
ATOM     14  O   UNL     1       4.579   7.738  -4.196  0.00  0.00    -0.215 OA
ATOM     15  C   UNL     1       4.534   7.523  -3.909  0.00  0.00    +0.212 C 
ENDBRANCH   7  15
ENDBRANCH   5  12
ENDBRANCH   4   5
ENDBRANCH   3   4
ENDBRANCH   2   3
ENDBRANCH   1   2
BRANCH   1  16
ATOM     16  C   UNL     1      -0.510   6.674  -0.050  0.00  0.00    +0.002 C 
BRANCH  16  17
ATOM     17  C   UNL     1       0.470   6.522  -1.208  0.00  0.00    +0.003 C 
BRANCH  17  18
ATOM     18  C   UNL     1       0.533   5.048  -1.566  0.00  0.00    +0.032 C 
BRANCH  18  19
ATOM     19  C   UNL     1       0.596   5.021  -3.089  0.00  0.00    +0.142 C 
BRANCH  19  20
ATOM     20  O   UNL     1       1.199   6.160  -3.601  0.00  0.00    -0.354 OA
BRANCH  20  21
ATOM     21  C   UNL     1       1.466   5.985  -4.949  0.00  0.00    +0.142 C 
BRANCH  21  22
ATOM     22  C   UNL     1       0.463   5.106  -5.648  0.00  0.00    +0.032 C 
BRANCH  22  23
ATOM     23  C   UNL     1      -0.438   5.935  -6.562  0.00  0.00    +0.007 C 
BRANCH  23  24
ATOM     24  C   UNL     1      -1.865   5.412  -6.408  0.00  0.00    +0.026 C 
BRANCH  24  25
ATOM     25  C   UNL     1      -2.442   6.101  -5.209  0.00  0.00    -0.022 A 
ATOM     26  C   UNL     1      -1.963   7.329  -4.767  0.00  0.00    -0.004 A 
ATOM     27  C   UNL     1      -2.207   7.781  -3.476  0.00  0.00    -0.000 A 
ATOM     28  C   UNL     1      -2.880   6.993  -2.568  0.00  0.00    -0.000 A 
ATOM     29  C   UNL     1      -3.117   5.696  -2.917  0.00  0.00    -0.000 A 
ATOM     30  C   UNL     1      -2.869   5.259  -4.187  0.00  0.00    -0.004 A 
ENDBRANCH  24  25
ENDBRANCH  23  24
ENDBRANCH  22  23
ENDBRANCH  21  22
ENDBRANCH  20  21
ENDBRANCH  19  20
ENDBRANCH  18  19
ENDBRANCH  17  18
ENDBRANCH  16  17
ENDBRANCH   1  16
TORSDOF 16
ENDMDL
MODEL 9
REMARK VINA RESULT:      -7.0      2.716      8.166
REMARK  Name = 
REMARK  16 active torsions:
REMARK  status: ('A' for Active; 'I' for Inactive)
REMARK    1  A    between atoms: C_2  and  C_3
REMARK    2  A    between atoms: C_5  and  C_6
REMARK    3  A    between atoms: C_6  and  C_8
REMARK    4  A    between atoms: C_8  and  N_9
REMARK    5  A    between atoms: N_9  and  C_10
REMARK    6  A    between atoms: C_10  and  C_11
REMARK    7  A    between atoms: C_11  and  C_12
REMARK    8  A    between atoms: C_12  and  C_13
REMARK    9  A    between atoms: C_13  and  C_14
REMARK   10  A    between atoms: C_14  and  C_15
REMARK   11  A    between atoms: C_15  and  O_16
REMARK   12  A    between atoms: O_16  and  C_17
REMARK   13  A    between atoms: C_17  and  C_18
REMARK   14  A    between atoms: C_18  and  C_19
REMARK   15  A    between atoms: C_19  and  C_20
REMARK   16  A    between atoms: C_20  and  C_21
REMARK                            x       y       z     vdW  Elec       q    Type
REMARK                         _______ _______ _______ _____ _____    ______ ____
ROOT
ATOM      1  C   UNL     1       4.499   6.753  -1.590  0.00  0.00    +0.019 C 
ENDROOT
BRANCH   1   2
ATOM      2  C   UNL     1       3.489   5.892  -0.842  0.00  0.00    +0.089 C 
BRANCH   2   3
ATOM      3  N   UNL     1       2.520   6.750  -0.177  0.00  0.00    -0.215 NA
BRANCH   3   4
ATOM      4  C   UNL     1       1.176   6.307  -0.528  0.00  0.00    +0.126 C 
BRANCH   4   5
ATOM      5  C   UNL     1       1.446   5.317  -1.852  0.00  0.00    +0.192 C 
ATOM      6  O   UNL     1       0.374   4.319  -1.374  0.00  0.00    -0.217 OA
BRANCH   5  12
ATOM      7  C   UNL     1      -1.856   5.656  -3.621  0.00  0.00    +0.049 A 
ATOM      8  C   UNL     1      -1.492   6.105  -4.884  0.00  0.00    +0.194 A 
ATOM      9  O   UNL     1      -2.348   5.899  -5.951  0.00  0.00    -0.287 OA
ATOM     10  C   UNL     1      -0.187   6.539  -5.074  0.00  0.00    +0.042 A 
ATOM     11  C   UNL     1       0.731   6.473  -4.034  0.00  0.00    +0.001 A 
ATOM     12  C   UNL     1       0.364   6.063  -2.827  0.00  0.00    +0.009 A 
ATOM     13  C   UNL     1      -0.906   5.539  -2.619  0.00  0.00    -0.000 A 
BRANCH   7  15
ATOM     14  O   UNL     1      -3.502   5.133  -3.175  0.00  0.00    -0.215 OA
ATOM     15  C   UNL     1      -3.275   5.235  -3.437  0.00  0.00    +0.212 C 
ENDBRANCH   7  15
ENDBRANCH   5  12
ENDBRANCH   4   5
ENDBRANCH   3   4
ENDBRANCH   2   3
ENDBRANCH   1   2
BRANCH   1  16
ATOM     16  C   UNL     1       4.673   6.126  -2.959  0.00  0.00    +0.002 C 
BRANCH  16  17
ATOM     17  C   UNL     1       4.264   7.218  -3.943  0.00  0.00    +0.003 C 
BRANCH  17  18
ATOM     18  C   UNL     1       4.162   6.581  -5.317  0.00  0.00    +0.032 C 
BRANCH  18  19
ATOM     19  C   UNL     1       4.071   5.083  -5.045  0.00  0.00    +0.142 C 
BRANCH  19  20
ATOM     20  O   UNL     1       2.980   4.508  -5.680  0.00  0.00    -0.354 OA
BRANCH  20  21
ATOM     21  C   UNL     1       2.760   5.135  -6.895  0.00  0.00    +0.142 C 
BRANCH  21  22
ATOM     22  C   UNL     1       2.622   4.175  -8.047  0.00  0.00    +0.032 C 
BRANCH  22  23
ATOM     23  C   UNL     1       3.593   4.535  -9.170  0.00  0.00    +0.007 C 
BRANCH  23  24
ATOM     24  C   UNL     1       4.462   5.691  -8.681  0.00  0.00    +0.026 C 
BRANCH  24  25
ATOM     25  C   UNL     1       5.470   5.951  -9.759  0.00  0.00    -0.022 A 
ATOM     26  C   UNL     1       6.834   5.793  -9.540  0.00  0.00    -0.004 A 
ATOM     27  C   UNL     1       7.775   6.387 -10.373  0.00  0.00    -0.000 A 
ATOM     28  C   UNL     1       7.384   7.206 -11.409  0.00  0.00    -0.000 A 
ATOM     29  C   UNL     1       6.070   7.569 -11.461  0.00  0.00    -0.000 A 
ATOM     30  C   UNL     1       5.153   6.983 -10.635  0.00  0.00    -0.004 A 
ENDBRANCH  24  25
ENDBRANCH  23  24
ENDBRANCH  22  23
ENDBRANCH  21  22
ENDBRANCH  20  21
ENDBRANCH  19  20
ENDBRANCH  18  19
ENDBRANCH  17  18
ENDBRANCH  16  17
ENDBRANCH   1  16
TORSDOF 16
ENDMDL
