MODEL 1
REMARK VINA RESULT:      -8.9      0.000      0.000
REMARK  Name = 
REMARK  6 active torsions:
REMARK  status: ('A' for Active; 'I' for Inactive)
REMARK    1  A    between atoms: C_3  and  O_4
REMARK    2  A    between atoms: O_4  and  C_5
REMARK    3  A    between atoms: C_5  and  C_6
REMARK    4  A    between atoms: C_13  and  C_14
REMARK    5  A    between atoms: C_14  and  S_15
REMARK    6  A    between atoms: S_15  and  C_17
REMARK                            x       y       z     vdW  Elec       q    Type
REMARK                         _______ _______ _______ _____ _____    ______ ____
ROOT
ATOM      1  C   UNL     1      -1.232   5.523  -6.699  0.00  0.00    +0.035 C 
ATOM      2  C   UNL     1      -0.534   5.634  -5.732  0.00  0.00    +0.027 A 
ATOM      3  C   UNL     1       0.802   6.008  -5.824  0.00  0.00    +0.072 A 
ATOM      4  N   UNL     1       1.613   6.061  -4.739  0.00  0.00    -0.247 NA
ATOM      5  C   UNL     1       1.159   5.858  -3.495  0.00  0.00    +0.102 A 
ATOM      6  C   UNL     1      -0.171   5.496  -3.330  0.00  0.00    +0.057 A 
ATOM      7  C   UNL     1      -1.015   5.517  -4.434  0.00  0.00    +0.138 A 
ENDROOT
BRANCH   3   8
ATOM      8  C   UNL     1       1.476   5.840  -7.138  0.00  0.00    +0.145 C 
BRANCH   8   9
ATOM      9  S   UNL     1       2.874   7.032  -7.276  0.00  0.00    +0.107 S 
ATOM     10  O   UNL     1       2.137   8.232  -7.942  0.00  0.00    -0.248 OA
BRANCH   9  11
ATOM     11  C   UNL     1       3.754   6.329  -8.696  0.00  0.00    +0.221 A 
ATOM     12  N   UNL     1       4.874   5.574  -8.572  0.00  0.00    -0.218 NA
ATOM     13  C   UNL     1       5.745   5.866  -9.547  0.00  0.00    +0.101 A 
ATOM     14  C   UNL     1       5.095   6.733 -10.415  0.00  0.00    +0.101 A 
ATOM     15  C   UNL     1       5.796   7.369 -11.432  0.00  0.00    +0.021 A 
ATOM     16  C   UNL     1       7.149   7.566 -11.243  0.00  0.00    +0.002 A 
ATOM     17  C   UNL     1       7.806   6.657 -10.431  0.00  0.00    +0.002 A 
ATOM     18  C   UNL     1       7.094   5.654  -9.785  0.00  0.00    +0.021 A 
ATOM     19  N   UNL     1       3.840   6.844  -9.931  0.00  0.00    -0.218 NA
ENDBRANCH   9  11
ENDBRANCH   8   9
ENDBRANCH   3   8
BRANCH   7  20
ATOM     20  O   UNL     1      -2.400   5.451  -4.290  0.00  0.00    -0.467 OA
BRANCH  20  21
ATOM     21  C   UNL     1      -3.020   5.269  -3.039  0.00  0.00    +0.308 C 
BRANCH  21  22
ATOM     22  C   UNL     1      -3.330   6.602  -2.387  0.00  0.00    +0.438 C 
ATOM     23  F   UNL     1      -4.707   6.757  -2.328  0.00  0.00    -0.166 F 
ATOM     24  F   UNL     1      -2.768   6.637  -1.119  0.00  0.00    -0.166 F 
ATOM     25  F   UNL     1      -2.769   7.625  -3.111  0.00  0.00    -0.166 F 
ENDBRANCH  21  22
ENDBRANCH  20  21
ENDBRANCH   7  20
TORSDOF 6
ENDMDL
MODEL 2
REMARK VINA RESULT:      -8.7      1.775      2.076
REMARK  Name = 
REMARK  6 active torsions:
REMARK  status: ('A' for Active; 'I' for Inactive)
REMARK    1  A    between atoms: C_3  and  O_4
REMARK    2  A    between atoms: O_4  and  C_5
REMARK    3  A    between atoms: C_5  and  C_6
REMARK    4  A    between atoms: C_13  and  C_14
REMARK    5  A    between atoms: C_14  and  S_15
REMARK    6  A    between atoms: S_15  and  C_17
REMARK                            x       y       z     vdW  Elec       q    Type
REMARK                         _______ _______ _______ _____ _____    ______ ____
ROOT
ATOM      1  C   UNL     1      -1.115   5.311  -7.107  0.00  0.00    +0.035 C 
ATOM      2  C   UNL     1      -0.109   5.293  -6.457  0.00  0.00    +0.027 A 
ATOM      3  C   UNL     1       1.150   5.357  -7.042  0.00  0.00    +0.072 A 
ATOM      4  N   UNL     1       2.290   5.262  -6.315  0.00  0.00    -0.247 NA
ATOM      5  C   UNL     1       2.282   5.202  -4.976  0.00  0.00    +0.102 A 
ATOM      6  C   UNL     1       1.056   5.151  -4.326  0.00  0.00    +0.057 A 
ATOM      7  C   UNL     1      -0.106   5.325  -5.067  0.00  0.00    +0.138 A 
ENDROOT
BRANCH   3   8
ATOM      8  C   UNL     1       1.260   5.004  -8.482  0.00  0.00    +0.145 C 
BRANCH   8   9
ATOM      9  S   UNL     1       1.663   6.510  -9.462  0.00  0.00    +0.107 S 
ATOM     10  O   UNL     1       0.617   6.370 -10.608  0.00  0.00    -0.248 OA
BRANCH   9  11
ATOM     11  C   UNL     1       3.173   5.955 -10.295  0.00  0.00    +0.221 A 
ATOM     12  N   UNL     1       4.172   5.297  -9.655  0.00  0.00    -0.218 NA
ATOM     13  C   UNL     1       5.366   5.709 -10.101  0.00  0.00    +0.101 A 
ATOM     14  C   UNL     1       5.118   6.554 -11.175  0.00  0.00    +0.101 A 
ATOM     15  C   UNL     1       6.149   7.296 -11.739  0.00  0.00    +0.021 A 
ATOM     16  C   UNL     1       7.225   7.603 -10.932  0.00  0.00    +0.002 A 
ATOM     17  C   UNL     1       7.509   6.719  -9.905  0.00  0.00    +0.002 A 
ATOM     18  C   UNL     1       6.680   5.628  -9.672  0.00  0.00    +0.021 A 
ATOM     19  N   UNL     1       3.779   6.532 -11.343  0.00  0.00    -0.218 NA
ENDBRANCH   9  11
ENDBRANCH   8   9
ENDBRANCH   3   8
BRANCH   7  20
ATOM     20  O   UNL     1      -1.330   5.574  -4.450  0.00  0.00    -0.467 OA
BRANCH  20  21
ATOM     21  C   UNL     1      -1.547   6.697  -3.629  0.00  0.00    +0.308 C 
BRANCH  21  22
ATOM     22  C   UNL     1      -1.787   7.941  -4.462  0.00  0.00    +0.438 C 
ATOM     23  F   UNL     1      -0.625   8.238  -5.158  0.00  0.00    -0.166 F 
ATOM     24  F   UNL     1      -2.845   7.716  -5.331  0.00  0.00    -0.166 F 
ATOM     25  F   UNL     1      -2.137   8.993  -3.653  0.00  0.00    -0.166 F 
ENDBRANCH  21  22
ENDBRANCH  20  21
ENDBRANCH   7  20
TORSDOF 6
ENDMDL
MODEL 3
REMARK VINA RESULT:      -8.5      5.462      9.524
REMARK  Name = 
REMARK  6 active torsions:
REMARK  status: ('A' for Active; 'I' for Inactive)
REMARK    1  A    between atoms: C_3  and  O_4
REMARK    2  A    between atoms: O_4  and  C_5
REMARK    3  A    between atoms: C_5  and  C_6
REMARK    4  A    between atoms: C_13  and  C_14
REMARK    5  A    between atoms: C_14  and  S_15
REMARK    6  A    between atoms: S_15  and  C_17
REMARK                            x       y       z     vdW  Elec       q    Type
REMARK                         _______ _______ _______ _____ _____    ______ ____
ROOT
ATOM      1  C   UNL     1       5.514   5.076  -8.544  0.00  0.00    +0.035 C 
ATOM      2  C   UNL     1       4.807   5.452  -9.435  0.00  0.00    +0.027 A 
ATOM      3  C   UNL     1       3.437   5.213  -9.441  0.00  0.00    +0.072 A 
ATOM      4  N   UNL     1       2.647   5.571 -10.482  0.00  0.00    -0.247 NA
ATOM      5  C   UNL     1       3.112   6.269 -11.527  0.00  0.00    +0.102 A 
ATOM      6  C   UNL     1       4.470   6.555 -11.577  0.00  0.00    +0.057 A 
ATOM      7  C   UNL     1       5.261   6.254 -10.474  0.00  0.00    +0.138 A 
ENDROOT
BRANCH   3   8
ATOM      8  C   UNL     1       2.924   4.120  -8.574  0.00  0.00    +0.145 C 
BRANCH   8   9
ATOM      9  S   UNL     1       2.780   4.719  -6.838  0.00  0.00    +0.107 S 
ATOM     10  O   UNL     1       2.228   3.431  -6.157  0.00  0.00    -0.248 OA
BRANCH   9  11
ATOM     11  C   UNL     1       1.275   5.720  -6.968  0.00  0.00    +0.221 A 
ATOM     12  N   UNL     1       1.026   6.787  -6.169  0.00  0.00    -0.218 NA
ATOM     13  C   UNL     1      -0.270   6.827  -5.832  0.00  0.00    +0.101 A 
ATOM     14  C   UNL     1      -0.902   5.832  -6.567  0.00  0.00    +0.101 A 
ATOM     15  C   UNL     1      -2.223   5.493  -6.303  0.00  0.00    +0.021 A 
ATOM     16  C   UNL     1      -2.697   5.730  -5.028  0.00  0.00    +0.002 A 
ATOM     17  C   UNL     1      -2.109   6.769  -4.325  0.00  0.00    +0.002 A 
ATOM     18  C   UNL     1      -1.039   7.467  -4.874  0.00  0.00    +0.021 A 
ATOM     19  N   UNL     1       0.060   5.307  -7.355  0.00  0.00    -0.218 NA
ENDBRANCH   9  11
ENDBRANCH   8   9
ENDBRANCH   3   8
BRANCH   7  20
ATOM     20  O   UNL     1       6.548   6.771 -10.342  0.00  0.00    -0.467 OA
BRANCH  20  21
ATOM     21  C   UNL     1       7.459   6.811 -11.416  0.00  0.00    +0.308 C 
BRANCH  21  22
ATOM     22  C   UNL     1       8.270   5.533 -11.488  0.00  0.00    +0.438 C 
ATOM     23  F   UNL     1       9.517   5.829 -12.019  0.00  0.00    -0.166 F 
ATOM     24  F   UNL     1       8.387   4.989 -10.216  0.00  0.00    -0.166 F 
ATOM     25  F   UNL     1       7.629   4.607 -12.273  0.00  0.00    -0.166 F 
ENDBRANCH  21  22
ENDBRANCH  20  21
ENDBRANCH   7  20
TORSDOF 6
ENDMDL
MODEL 4
REMARK VINA RESULT:      -8.5      1.452      2.055
REMARK  Name = 
REMARK  6 active torsions:
REMARK  status: ('A' for Active; 'I' for Inactive)
REMARK    1  A    between atoms: C_3  and  O_4
REMARK    2  A    between atoms: O_4  and  C_5
REMARK    3  A    between atoms: C_5  and  C_6
REMARK    4  A    between atoms: C_13  and  C_14
REMARK    5  A    between atoms: C_14  and  S_15
REMARK    6  A    between atoms: S_15  and  C_17
REMARK                            x       y       z     vdW  Elec       q    Type
REMARK                         _______ _______ _______ _____ _____    ______ ____
ROOT
ATOM      1  C   UNL     1       1.393   6.697  -4.486  0.00  0.00    +0.035 C 
ATOM      2  C   UNL     1       0.617   6.270  -5.293  0.00  0.00    +0.027 A 
ATOM      3  C   UNL     1       1.009   5.920  -6.580  0.00  0.00    +0.072 A 
ATOM      4  N   UNL     1       0.122   5.508  -7.519  0.00  0.00    -0.247 NA
ATOM      5  C   UNL     1      -1.174   5.310  -7.240  0.00  0.00    +0.102 A 
ATOM      6  C   UNL     1      -1.630   5.625  -5.966  0.00  0.00    +0.057 A 
ATOM      7  C   UNL     1      -0.706   5.974  -4.989  0.00  0.00    +0.138 A 
ENDROOT
BRANCH   3   8
ATOM      8  C   UNL     1       2.285   6.488  -7.091  0.00  0.00    +0.145 C 
BRANCH   8   9
ATOM      9  S   UNL     1       3.679   5.359  -6.670  0.00  0.00    +0.107 S 
ATOM     10  O   UNL     1       4.646   6.373  -5.990  0.00  0.00    -0.248 OA
BRANCH   9  11
ATOM     11  C   UNL     1       4.449   5.181  -8.301  0.00  0.00    +0.221 A 
ATOM     12  N   UNL     1       5.778   4.972  -8.472  0.00  0.00    -0.218 NA
ATOM     13  C   UNL     1       6.228   5.661  -9.529  0.00  0.00    +0.101 A 
ATOM     14  C   UNL     1       5.114   6.214 -10.147  0.00  0.00    +0.101 A 
ATOM     15  C   UNL     1       5.264   7.144 -11.168  0.00  0.00    +0.021 A 
ATOM     16  C   UNL     1       6.425   7.890 -11.181  0.00  0.00    +0.002 A 
ATOM     17  C   UNL     1       7.551   7.306 -10.625  0.00  0.00    +0.002 A 
ATOM     18  C   UNL     1       7.463   6.060 -10.016  0.00  0.00    +0.021 A 
ATOM     19  N   UNL     1       4.055   5.751  -9.449  0.00  0.00    -0.218 NA
ENDBRANCH   9  11
ENDBRANCH   8   9
ENDBRANCH   3   8
BRANCH   7  20
ATOM     20  O   UNL     1      -1.056   6.015  -3.641  0.00  0.00    -0.467 OA
BRANCH  20  21
ATOM     21  C   UNL     1      -2.110   6.816  -3.160  0.00  0.00    +0.308 C 
BRANCH  21  22
ATOM     22  C   UNL     1      -3.210   5.963  -2.561  0.00  0.00    +0.438 C 
ATOM     23  F   UNL     1      -2.742   5.398  -1.384  0.00  0.00    -0.166 F 
ATOM     24  F   UNL     1      -4.328   6.751  -2.326  0.00  0.00    -0.166 F 
ATOM     25  F   UNL     1      -3.581   4.978  -3.443  0.00  0.00    -0.166 F 
ENDBRANCH  21  22
ENDBRANCH  20  21
ENDBRANCH   7  20
TORSDOF 6
ENDMDL
MODEL 5
REMARK VINA RESULT:      -8.4      5.672      8.876
REMARK  Name = 
REMARK  6 active torsions:
REMARK  status: ('A' for Active; 'I' for Inactive)
REMARK    1  A    between atoms: C_3  and  O_4
REMARK    2  A    between atoms: O_4  and  C_5
REMARK    3  A    between atoms: C_5  and  C_6
REMARK    4  A    between atoms: C_13  and  C_14
REMARK    5  A    between atoms: C_14  and  S_15
REMARK    6  A    between atoms: S_15  and  C_17
REMARK                            x       y       z     vdW  Elec       q    Type
REMARK                         _______ _______ _______ _____ _____    ______ ____
ROOT
ATOM      1  C   UNL     1       5.125   5.400  -8.483  0.00  0.00    +0.035 C 
ATOM      2  C   UNL     1       4.546   5.601  -9.513  0.00  0.00    +0.027 A 
ATOM      3  C   UNL     1       3.189   5.340  -9.659  0.00  0.00    +0.072 A 
ATOM      4  N   UNL     1       2.547   5.495 -10.844  0.00  0.00    -0.247 NA
ATOM      5  C   UNL     1       3.153   6.007 -11.924  0.00  0.00    +0.102 A 
ATOM      6  C   UNL     1       4.507   6.305 -11.841  0.00  0.00    +0.057 A 
ATOM      7  C   UNL     1       5.140   6.217 -10.607  0.00  0.00    +0.138 A 
ENDROOT
BRANCH   3   8
ATOM      8  C   UNL     1       2.557   4.406  -8.690  0.00  0.00    +0.145 C 
BRANCH   8   9
ATOM      9  S   UNL     1       1.203   5.268  -7.788  0.00  0.00    +0.107 S 
ATOM     10  O   UNL     1       1.521   6.743  -8.177  0.00  0.00    -0.248 OA
BRANCH   9  11
ATOM     11  C   UNL     1       1.853   5.204  -6.097  0.00  0.00    +0.221 A 
ATOM     12  N   UNL     1       1.598   6.161  -5.170  0.00  0.00    -0.218 NA
ATOM     13  C   UNL     1       2.689   6.397  -4.430  0.00  0.00    +0.101 A 
ATOM     14  C   UNL     1       3.634   5.448  -4.798  0.00  0.00    +0.101 A 
ATOM     15  C   UNL     1       4.943   5.544  -4.343  0.00  0.00    +0.021 A 
ATOM     16  C   UNL     1       5.410   6.799  -4.012  0.00  0.00    +0.002 A 
ATOM     17  C   UNL     1       4.472   7.721  -3.578  0.00  0.00    +0.002 A 
ATOM     18  C   UNL     1       3.121   7.393  -3.568  0.00  0.00    +0.021 A 
ATOM     19  N   UNL     1       3.009   4.656  -5.695  0.00  0.00    -0.218 NA
ENDBRANCH   9  11
ENDBRANCH   8   9
ENDBRANCH   3   8
BRANCH   7  20
ATOM     20  O   UNL     1       6.401   6.772 -10.397  0.00  0.00    -0.467 OA
BRANCH  20  21
ATOM     21  C   UNL     1       7.389   6.802 -11.400  0.00  0.00    +0.308 C 
BRANCH  21  22
ATOM     22  C   UNL     1       8.180   5.509 -11.422  0.00  0.00    +0.438 C 
ATOM     23  F   UNL     1       7.526   4.603 -12.245  0.00  0.00    -0.166 F 
ATOM     24  F   UNL     1       9.465   5.762 -11.880  0.00  0.00    -0.166 F 
ATOM     25  F   UNL     1       8.290   4.999 -10.152  0.00  0.00    -0.166 F 
ENDBRANCH  21  22
ENDBRANCH  20  21
ENDBRANCH   7  20
TORSDOF 6
ENDMDL
MODEL 6
REMARK VINA RESULT:      -8.3      5.607      9.577
REMARK  Name = 
REMARK  6 active torsions:
REMARK  status: ('A' for Active; 'I' for Inactive)
REMARK    1  A    between atoms: C_3  and  O_4
REMARK    2  A    between atoms: O_4  and  C_5
REMARK    3  A    between atoms: C_5  and  C_6
REMARK    4  A    between atoms: C_13  and  C_14
REMARK    5  A    between atoms: C_14  and  S_15
REMARK    6  A    between atoms: S_15  and  C_17
REMARK                            x       y       z     vdW  Elec       q    Type
REMARK                         _______ _______ _______ _____ _____    ______ ____
ROOT
ATOM      1  C   UNL     1       3.561   6.274 -11.627  0.00  0.00    +0.035 C 
ATOM      2  C   UNL     1       4.127   5.993 -10.609  0.00  0.00    +0.027 A 
ATOM      3  C   UNL     1       3.463   5.924  -9.390  0.00  0.00    +0.072 A 
ATOM      4  N   UNL     1       4.114   5.680  -8.226  0.00  0.00    -0.247 NA
ATOM      5  C   UNL     1       5.421   5.389  -8.184  0.00  0.00    +0.102 A 
ATOM      6  C   UNL     1       6.142   5.425  -9.371  0.00  0.00    +0.057 A 
ATOM      7  C   UNL     1       5.459   5.599 -10.568  0.00  0.00    +0.138 A 
ENDROOT
BRANCH   3   8
ATOM      8  C   UNL     1       2.156   6.623  -9.275  0.00  0.00    +0.145 C 
BRANCH   8   9
ATOM      9  S   UNL     1       0.783   5.414  -9.488  0.00  0.00    +0.107 S 
ATOM     10  O   UNL     1      -0.313   6.356 -10.069  0.00  0.00    -0.248 OA
BRANCH   9  11
ATOM     11  C   UNL     1       0.231   5.251  -7.770  0.00  0.00    +0.221 A 
ATOM     12  N   UNL     1      -1.058   5.006  -7.428  0.00  0.00    -0.218 NA
ATOM     13  C   UNL     1      -1.394   5.706  -6.336  0.00  0.00    +0.101 A 
ATOM     14  C   UNL     1      -0.230   6.306  -5.875  0.00  0.00    +0.101 A 
ATOM     15  C   UNL     1      -0.280   7.255  -4.862  0.00  0.00    +0.021 A 
ATOM     16  C   UNL     1      -1.455   7.966  -4.715  0.00  0.00    +0.002 A 
ATOM     17  C   UNL     1      -2.622   7.335  -5.113  0.00  0.00    +0.002 A 
ATOM     18  C   UNL     1      -2.570   6.078  -5.705  0.00  0.00    +0.021 A 
ATOM     19  N   UNL     1       0.747   5.860  -6.692  0.00  0.00    -0.218 NA
ENDBRANCH   9  11
ENDBRANCH   8   9
ENDBRANCH   3   8
BRANCH   7  20
ATOM     20  O   UNL     1       6.071   5.357 -11.795  0.00  0.00    -0.467 OA
BRANCH  20  21
ATOM     21  C   UNL     1       7.432   5.010 -11.904  0.00  0.00    +0.308 C 
BRANCH  21  22
ATOM     22  C   UNL     1       8.255   6.188 -12.389  0.00  0.00    +0.438 C 
ATOM     23  F   UNL     1       7.976   6.399 -13.731  0.00  0.00    -0.166 F 
ATOM     24  F   UNL     1       7.945   7.309 -11.632  0.00  0.00    -0.166 F 
ATOM     25  F   UNL     1       9.593   5.935 -12.217  0.00  0.00    -0.166 F 
ENDBRANCH  21  22
ENDBRANCH  20  21
ENDBRANCH   7  20
TORSDOF 6
ENDMDL
MODEL 7
REMARK VINA RESULT:      -8.3      3.672      7.743
REMARK  Name = 
REMARK  6 active torsions:
REMARK  status: ('A' for Active; 'I' for Inactive)
REMARK    1  A    between atoms: C_3  and  O_4
REMARK    2  A    between atoms: O_4  and  C_5
REMARK    3  A    between atoms: C_5  and  C_6
REMARK    4  A    between atoms: C_13  and  C_14
REMARK    5  A    between atoms: C_14  and  S_15
REMARK    6  A    between atoms: S_15  and  C_17
REMARK                            x       y       z     vdW  Elec       q    Type
REMARK                         _______ _______ _______ _____ _____    ______ ____
ROOT
ATOM      1  C   UNL     1       1.898   7.181  -7.813  0.00  0.00    +0.035 C 
ATOM      2  C   UNL     1       2.867   6.575  -8.172  0.00  0.00    +0.027 A 
ATOM      3  C   UNL     1       3.730   5.960  -7.272  0.00  0.00    +0.072 A 
ATOM      4  N   UNL     1       4.867   5.339  -7.670  0.00  0.00    -0.247 NA
ATOM      5  C   UNL     1       5.183   5.186  -8.963  0.00  0.00    +0.102 A 
ATOM      6  C   UNL     1       4.355   5.763  -9.917  0.00  0.00    +0.057 A 
ATOM      7  C   UNL     1       3.154   6.331  -9.510  0.00  0.00    +0.138 A 
ENDROOT
BRANCH   3   8
ATOM      8  C   UNL     1       3.697   6.423  -5.860  0.00  0.00    +0.145 C 
BRANCH   8   9
ATOM      9  S   UNL     1       3.089   5.065  -4.774  0.00  0.00    +0.107 S 
ATOM     10  O   UNL     1       2.354   4.189  -5.832  0.00  0.00    -0.248 OA
BRANCH   9  11
ATOM     11  C   UNL     1       1.690   5.896  -3.975  0.00  0.00    +0.221 A 
ATOM     12  N   UNL     1       0.745   5.233  -3.262  0.00  0.00    -0.218 NA
ATOM     13  C   UNL     1      -0.466   5.757  -3.491  0.00  0.00    +0.101 A 
ATOM     14  C   UNL     1      -0.268   6.895  -4.263  0.00  0.00    +0.101 A 
ATOM     15  C   UNL     1      -1.349   7.560  -4.827  0.00  0.00    +0.021 A 
ATOM     16  C   UNL     1      -2.490   6.823  -5.074  0.00  0.00    +0.002 A 
ATOM     17  C   UNL     1      -2.718   5.729  -4.256  0.00  0.00    +0.002 A 
ATOM     18  C   UNL     1      -1.781   5.369  -3.294  0.00  0.00    +0.021 A 
ATOM     19  N   UNL     1       1.071   7.013  -4.384  0.00  0.00    -0.218 NA
ENDBRANCH   9  11
ENDBRANCH   8   9
ENDBRANCH   3   8
BRANCH   7  20
ATOM     20  O   UNL     1       2.159   6.660 -10.427  0.00  0.00    -0.467 OA
BRANCH  20  21
ATOM     21  C   UNL     1       1.521   5.693 -11.228  0.00  0.00    +0.308 C 
BRANCH  21  22
ATOM     22  C   UNL     1       0.105   5.439 -10.750  0.00  0.00    +0.438 C 
ATOM     23  F   UNL     1      -0.570   6.650 -10.703  0.00  0.00    -0.166 F 
ATOM     24  F   UNL     1      -0.521   4.551 -11.613  0.00  0.00    -0.166 F 
ATOM     25  F   UNL     1       0.121   4.858  -9.506  0.00  0.00    -0.166 F 
ENDBRANCH  21  22
ENDBRANCH  20  21
ENDBRANCH   7  20
TORSDOF 6
ENDMDL
MODEL 8
REMARK VINA RESULT:      -8.3      2.851      4.138
REMARK  Name = 
REMARK  6 active torsions:
REMARK  status: ('A' for Active; 'I' for Inactive)
REMARK    1  A    between atoms: C_3  and  O_4
REMARK    2  A    between atoms: O_4  and  C_5
REMARK    3  A    between atoms: C_5  and  C_6
REMARK    4  A    between atoms: C_13  and  C_14
REMARK    5  A    between atoms: C_14  and  S_15
REMARK    6  A    between atoms: S_15  and  C_17
REMARK                            x       y       z     vdW  Elec       q    Type
REMARK                         _______ _______ _______ _____ _____    ______ ____
ROOT
ATOM      1  C   UNL     1       1.087   4.969  -4.492  0.00  0.00    +0.035 C 
ATOM      2  C   UNL     1       0.112   5.209  -5.145  0.00  0.00    +0.027 A 
ATOM      3  C   UNL     1       0.019   4.863  -6.487  0.00  0.00    +0.072 A 
ATOM      4  N   UNL     1      -1.052   5.200  -7.247  0.00  0.00    -0.247 NA
ATOM      5  C   UNL     1      -2.136   5.797  -6.732  0.00  0.00    +0.102 A 
ATOM      6  C   UNL     1      -2.115   6.157  -5.391  0.00  0.00    +0.057 A 
ATOM      7  C   UNL     1      -1.050   5.742  -4.600  0.00  0.00    +0.138 A 
ENDROOT
BRANCH   3   8
ATOM      8  C   UNL     1       1.284   4.598  -7.221  0.00  0.00    +0.145 C 
BRANCH   8   9
ATOM      9  S   UNL     1       1.911   6.162  -7.965  0.00  0.00    +0.107 S 
ATOM     10  O   UNL     1       2.614   5.590  -9.232  0.00  0.00    -0.248 OA
BRANCH   9  11
ATOM     11  C   UNL     1       3.334   6.480  -6.888  0.00  0.00    +0.221 A 
ATOM     12  N   UNL     1       4.114   5.492  -6.382  0.00  0.00    -0.218 NA
ATOM     13  C   UNL     1       4.464   5.773  -5.120  0.00  0.00    +0.101 A 
ATOM     14  C   UNL     1       4.016   7.061  -4.860  0.00  0.00    +0.101 A 
ATOM     15  C   UNL     1       4.060   7.576  -3.570  0.00  0.00    +0.021 A 
ATOM     16  C   UNL     1       4.022   6.674  -2.526  0.00  0.00    +0.002 A 
ATOM     17  C   UNL     1       4.534   5.411  -2.771  0.00  0.00    +0.002 A 
ATOM     18  C   UNL     1       4.982   5.073  -4.042  0.00  0.00    +0.021 A 
ATOM     19  N   UNL     1       3.484   7.493  -6.023  0.00  0.00    -0.218 NA
ENDBRANCH   9  11
ENDBRANCH   8   9
ENDBRANCH   3   8
BRANCH   7  20
ATOM     20  O   UNL     1      -1.107   5.814  -3.210  0.00  0.00    -0.467 OA
BRANCH  20  21
ATOM     21  C   UNL     1      -2.282   5.528  -2.488  0.00  0.00    +0.308 C 
BRANCH  21  22
ATOM     22  C   UNL     1      -2.901   6.797  -1.934  0.00  0.00    +0.438 C 
ATOM     23  F   UNL     1      -2.649   6.854  -0.571  0.00  0.00    -0.166 F 
ATOM     24  F   UNL     1      -2.363   7.896  -2.588  0.00  0.00    -0.166 F 
ATOM     25  F   UNL     1      -4.254   6.804  -2.166  0.00  0.00    -0.166 F 
ENDBRANCH  21  22
ENDBRANCH  20  21
ENDBRANCH   7  20
TORSDOF 6
ENDMDL
MODEL 9
REMARK VINA RESULT:      -8.3      3.268      4.980
REMARK  Name = 
REMARK  6 active torsions:
REMARK  status: ('A' for Active; 'I' for Inactive)
REMARK    1  A    between atoms: C_3  and  O_4
REMARK    2  A    between atoms: O_4  and  C_5
REMARK    3  A    between atoms: C_5  and  C_6
REMARK    4  A    between atoms: C_13  and  C_14
REMARK    5  A    between atoms: C_14  and  S_15
REMARK    6  A    between atoms: S_15  and  C_17
REMARK                            x       y       z     vdW  Elec       q    Type
REMARK                         _______ _______ _______ _____ _____    ______ ____
ROOT
ATOM      1  C   UNL     1       0.958   6.575  -4.147  0.00  0.00    +0.035 C 
ATOM      2  C   UNL     1       0.367   6.201  -5.120  0.00  0.00    +0.027 A 
ATOM      3  C   UNL     1       0.958   6.172  -6.377  0.00  0.00    +0.072 A 
ATOM      4  N   UNL     1       0.270   5.820  -7.491  0.00  0.00    -0.247 NA
ATOM      5  C   UNL     1      -0.994   5.378  -7.441  0.00  0.00    +0.102 A 
ATOM      6  C   UNL     1      -1.640   5.365  -6.212  0.00  0.00    +0.057 A 
ATOM      7  C   UNL     1      -0.909   5.654  -5.066  0.00  0.00    +0.138 A 
ENDROOT
BRANCH   3   8
ATOM      8  C   UNL     1       2.164   7.015  -6.591  0.00  0.00    +0.145 C 
BRANCH   8   9
ATOM      9  S   UNL     1       3.619   5.940  -6.944  0.00  0.00    +0.107 S 
ATOM     10  O   UNL     1       2.952   4.539  -6.813  0.00  0.00    -0.248 OA
BRANCH   9  11
ATOM     11  C   UNL     1       4.495   6.060  -5.362  0.00  0.00    +0.221 A 
ATOM     12  N   UNL     1       4.481   5.073  -4.432  0.00  0.00    -0.218 NA
ATOM     13  C   UNL     1       4.406   5.592  -3.199  0.00  0.00    +0.101 A 
ATOM     14  C   UNL     1       4.529   6.968  -3.339  0.00  0.00    +0.101 A 
ATOM     15  C   UNL     1       4.303   7.809  -2.257  0.00  0.00    +0.021 A 
ATOM     16  C   UNL     1       3.463   7.350  -1.262  0.00  0.00    +0.002 A 
ATOM     17  C   UNL     1       3.398   5.979  -1.081  0.00  0.00    +0.002 A 
ATOM     18  C   UNL     1       4.092   5.127  -1.932  0.00  0.00    +0.021 A 
ATOM     19  N   UNL     1       4.743   7.173  -4.656  0.00  0.00    -0.218 NA
ENDBRANCH   9  11
ENDBRANCH   8   9
ENDBRANCH   3   8
BRANCH   7  20
ATOM     20  O   UNL     1      -1.413   5.379  -3.796  0.00  0.00    -0.467 OA
BRANCH  20  21
ATOM     21  C   UNL     1      -2.785   5.469  -3.493  0.00  0.00    +0.308 C 
BRANCH  21  22
ATOM     22  C   UNL     1      -3.041   6.541  -2.451  0.00  0.00    +0.438 C 
ATOM     23  F   UNL     1      -2.470   6.139  -1.253  0.00  0.00    -0.166 F 
ATOM     24  F   UNL     1      -2.499   7.743  -2.885  0.00  0.00    -0.166 F 
ATOM     25  F   UNL     1      -4.391   6.734  -2.291  0.00  0.00    -0.166 F 
ENDBRANCH  21  22
ENDBRANCH  20  21
ENDBRANCH   7  20
TORSDOF 6
ENDMDL
