MODEL 1
REMARK VINA RESULT:      -8.5      0.000      0.000
REMARK  Name = 
REMARK  5 active torsions:
REMARK  status: ('A' for Active; 'I' for Inactive)
REMARK    1  A    between atoms: N_2  and  S_4
REMARK    2  A    between atoms: S_4  and  C_7
REMARK    3  A    between atoms: C_14  and  C_15
REMARK    4  A    between atoms: C_15  and  C_16
REMARK    5  A    between atoms: C_16  and  N_17
REMARK                            x       y       z     vdW  Elec       q    Type
REMARK                         _______ _______ _______ _____ _____    ______ ____
ROOT
ATOM      1  C   UNL     1      -1.135   5.610  -2.766  0.00  0.00    +0.122 A 
ATOM      2  C   UNL     1      -0.155   5.178  -3.654  0.00  0.00    +0.020 A 
ATOM      3  C   UNL     1       1.157   5.208  -3.195  0.00  0.00    +0.007 A 
ATOM      4  C   UNL     1       2.286   5.370  -4.120  0.00  0.00    -0.003 C 
ATOM      5  C   UNL     1       3.550   5.996  -3.714  0.00  0.00    +0.006 A 
ATOM      6  C   UNL     1       3.998   5.970  -2.399  0.00  0.00    +0.029 A 
ATOM      7  S   UNL     1       3.070   4.915  -1.281  0.00  0.00    -0.087 S 
ATOM      8  C   UNL     1       4.537   7.119  -1.832  0.00  0.00    +0.006 A 
ATOM      9  C   UNL     1       5.055   8.073  -2.695  0.00  0.00    +0.001 A 
ATOM     10  C   UNL     1       5.092   7.841  -4.064  0.00  0.00    +0.000 A 
ATOM     11  C   UNL     1       4.250   6.851  -4.558  0.00  0.00    +0.000 A 
ATOM     12  C   UNL     1       2.109   5.145  -5.420  0.00  0.00    -0.025 C 
ATOM     13  C   UNL     1       1.363   5.007  -1.836  0.00  0.00    +0.030 A 
ATOM     14  C   UNL     1       0.467   5.564  -0.942  0.00  0.00    +0.008 A 
ATOM     15  C   UNL     1      -0.828   5.734  -1.417  0.00  0.00    +0.020 A 
ENDROOT
BRANCH   1  16
ATOM     16  S   UNL     1      -2.717   6.122  -3.261  0.00  0.00    +0.063 S 
ATOM     17  O   UNL     1      -3.424   6.834  -2.158  0.00  0.00    -0.153 OA
ATOM     18  O   UNL     1      -3.534   4.917  -3.669  0.00  0.00    -0.153 OA
BRANCH  16  20
ATOM     19  C   UNL     1      -2.474   6.286  -5.819  0.00  0.00    +0.115 C 
ATOM     20  N   UNL     1      -2.614   7.136  -4.663  0.00  0.00    -0.153 NA
ATOM     21  C   UNL     1      -1.458   8.002  -4.602  0.00  0.00    +0.115 C 
ENDBRANCH  16  20
ENDBRANCH   1  16
BRANCH  12  22
ATOM     22  C   UNL     1       0.829   4.495  -5.840  0.00  0.00    +0.043 C 
BRANCH  22  23
ATOM     23  C   UNL     1       0.568   4.848  -7.295  0.00  0.00    +0.077 C 
BRANCH  23  24
ATOM     24  N   UNL     1       1.822   5.253  -7.915  0.00  0.00    -0.270 NA
ATOM     25  C   UNL     1       2.258   4.280  -8.890  0.00  0.00    +0.090 C 
ATOM     26  C   UNL     1       3.634   4.705  -9.383  0.00  0.00    +0.090 C 
ATOM     27  N   UNL     1       3.462   5.972 -10.085  0.00  0.00    -0.269 NA
ATOM     28  C   UNL     1       2.442   5.735 -11.102  0.00  0.00    +0.090 C 
ATOM     29  C   UNL     1       3.012   6.950  -9.111  0.00  0.00    +0.090 C 
ATOM     30  C   UNL     1       1.676   6.561  -8.511  0.00  0.00    +0.090 C 
ENDBRANCH  23  24
ENDBRANCH  22  23
ENDBRANCH  12  22
TORSDOF 5
ENDMDL
MODEL 2
REMARK VINA RESULT:      -8.5      3.778      5.540
REMARK  Name = 
REMARK  5 active torsions:
REMARK  status: ('A' for Active; 'I' for Inactive)
REMARK    1  A    between atoms: N_2  and  S_4
REMARK    2  A    between atoms: S_4  and  C_7
REMARK    3  A    between atoms: C_14  and  C_15
REMARK    4  A    between atoms: C_15  and  C_16
REMARK    5  A    between atoms: C_16  and  N_17
REMARK                            x       y       z     vdW  Elec       q    Type
REMARK                         _______ _______ _______ _____ _____    ______ ____
ROOT
ATOM      1  C   UNL     1       1.223   5.749  -9.047  0.00  0.00    +0.122 A 
ATOM      2  C   UNL     1       2.479   5.399  -8.561  0.00  0.00    +0.020 A 
ATOM      3  C   UNL     1       2.611   5.315  -7.180  0.00  0.00    +0.007 A 
ATOM      4  C   UNL     1       3.900   5.552  -6.520  0.00  0.00    -0.003 C 
ATOM      5  C   UNL     1       3.998   6.066  -5.149  0.00  0.00    +0.006 A 
ATOM      6  C   UNL     1       3.002   5.848  -4.206  0.00  0.00    +0.029 A 
ATOM      7  S   UNL     1       1.714   4.693  -4.687  0.00  0.00    -0.087 S 
ATOM      8  C   UNL     1       2.596   6.889  -3.378  0.00  0.00    +0.006 A 
ATOM      9  C   UNL     1       3.494   7.927  -3.175  0.00  0.00    +0.001 A 
ATOM     10  C   UNL     1       4.768   7.877  -3.723  0.00  0.00    +0.000 A 
ATOM     11  C   UNL     1       4.964   6.997  -4.781  0.00  0.00    +0.000 A 
ATOM     12  C   UNL     1       5.023   5.509  -7.235  0.00  0.00    -0.025 C 
ATOM     13  C   UNL     1       1.491   4.928  -6.454  0.00  0.00    +0.030 A 
ATOM     14  C   UNL     1       0.252   5.397  -6.849  0.00  0.00    +0.008 A 
ATOM     15  C   UNL     1       0.122   5.681  -8.204  0.00  0.00    +0.020 A 
ENDROOT
BRANCH   1  16
ATOM     16  S   UNL     1       0.954   6.387 -10.638  0.00  0.00    +0.063 S 
ATOM     17  O   UNL     1       2.236   6.795 -11.282  0.00  0.00    -0.153 OA
ATOM     18  O   UNL     1       0.045   7.592 -10.553  0.00  0.00    -0.153 OA
BRANCH  16  20
ATOM     19  C   UNL     1       0.140   3.962 -10.931  0.00  0.00    +0.115 C 
ATOM     20  N   UNL     1       0.128   5.225 -11.624  0.00  0.00    -0.153 NA
ATOM     21  C   UNL     1       0.796   5.045 -12.894  0.00  0.00    +0.115 C 
ENDBRANCH  16  20
ENDBRANCH   1  16
BRANCH  12  22
ATOM     22  C   UNL     1       4.934   4.973  -8.629  0.00  0.00    +0.043 C 
BRANCH  22  23
ATOM     23  C   UNL     1       6.235   5.288  -9.347  0.00  0.00    +0.077 C 
BRANCH  23  24
ATOM     24  N   UNL     1       5.944   6.115 -10.510  0.00  0.00    -0.270 NA
ATOM     25  C   UNL     1       7.066   6.964 -10.838  0.00  0.00    +0.090 C 
ATOM     26  C   UNL     1       6.632   7.888 -11.967  0.00  0.00    +0.090 C 
ATOM     27  N   UNL     1       6.372   7.047 -13.130  0.00  0.00    -0.269 NA
ATOM     28  C   UNL     1       7.590   6.270 -13.346  0.00  0.00    +0.090 C 
ATOM     29  C   UNL     1       5.254   6.183 -12.800  0.00  0.00    +0.090 C 
ATOM     30  C   UNL     1       5.577   5.278 -11.629  0.00  0.00    +0.090 C 
ENDBRANCH  23  24
ENDBRANCH  22  23
ENDBRANCH  12  22
TORSDOF 5
ENDMDL
MODEL 3
REMARK VINA RESULT:      -8.4      2.443      3.603
REMARK  Name = 
REMARK  5 active torsions:
REMARK  status: ('A' for Active; 'I' for Inactive)
REMARK    1  A    between atoms: N_2  and  S_4
REMARK    2  A    between atoms: S_4  and  C_7
REMARK    3  A    between atoms: C_14  and  C_15
REMARK    4  A    between atoms: C_15  and  C_16
REMARK    5  A    between atoms: C_16  and  N_17
REMARK                            x       y       z     vdW  Elec       q    Type
REMARK                         _______ _______ _______ _____ _____    ______ ____
ROOT
ATOM      1  C   UNL     1      -1.398   6.404  -1.399  0.00  0.00    +0.122 A 
ATOM      2  C   UNL     1      -0.022   6.206  -1.409  0.00  0.00    +0.020 A 
ATOM      3  C   UNL     1       0.710   6.872  -0.433  0.00  0.00    +0.007 A 
ATOM      4  C   UNL     1       2.111   7.250  -0.653  0.00  0.00    -0.003 C 
ATOM      5  C   UNL     1       2.725   8.409   0.005  0.00  0.00    +0.006 A 
ATOM      6  C   UNL     1       2.281   8.882   1.234  0.00  0.00    +0.029 A 
ATOM      7  S   UNL     1       1.087   7.843   2.082  0.00  0.00    -0.087 S 
ATOM      8  C   UNL     1       2.137  10.250   1.435  0.00  0.00    +0.006 A 
ATOM      9  C   UNL     1       2.878  11.095   0.623  0.00  0.00    +0.001 A 
ATOM     10  C   UNL     1       3.779  10.578  -0.299  0.00  0.00    +0.000 A 
ATOM     11  C   UNL     1       3.614   9.246  -0.661  0.00  0.00    +0.000 A 
ATOM     12  C   UNL     1       2.804   6.669  -1.631  0.00  0.00    -0.025 C 
ATOM     13  C   UNL     1       0.085   7.103   0.787  0.00  0.00    +0.030 A 
ATOM     14  C   UNL     1      -1.254   7.446   0.790  0.00  0.00    +0.008 A 
ATOM     15  C   UNL     1      -2.000   6.960  -0.277  0.00  0.00    +0.020 A 
ENDROOT
BRANCH   1  16
ATOM     16  S   UNL     1      -2.420   6.100  -2.767  0.00  0.00    +0.063 S 
ATOM     17  O   UNL     1      -3.691   6.875  -2.677  0.00  0.00    -0.153 OA
ATOM     18  O   UNL     1      -2.750   4.625  -2.835  0.00  0.00    -0.153 OA
BRANCH  16  20
ATOM     19  C   UNL     1      -1.754   7.886  -4.498  0.00  0.00    +0.115 C 
ATOM     20  N   UNL     1      -1.588   6.478  -4.241  0.00  0.00    -0.153 NA
ATOM     21  C   UNL     1      -2.145   5.750  -5.359  0.00  0.00    +0.115 C 
ENDBRANCH  16  20
ENDBRANCH   1  16
BRANCH  12  22
ATOM     22  C   UNL     1       2.191   5.478  -2.296  0.00  0.00    +0.043 C 
BRANCH  22  23
ATOM     23  C   UNL     1       2.981   5.176  -3.559  0.00  0.00    +0.077 C 
BRANCH  23  24
ATOM     24  N   UNL     1       2.122   5.388  -4.715  0.00  0.00    -0.270 NA
ATOM     25  C   UNL     1       2.364   6.680  -5.314  0.00  0.00    +0.090 C 
ATOM     26  C   UNL     1       1.335   6.878  -6.419  0.00  0.00    +0.090 C 
ATOM     27  N   UNL     1       1.609   5.872  -7.440  0.00  0.00    -0.269 NA
ATOM     28  C   UNL     1       3.012   6.041  -7.807  0.00  0.00    +0.090 C 
ATOM     29  C   UNL     1       1.380   4.571  -6.839  0.00  0.00    +0.090 C 
ATOM     30  C   UNL     1       2.317   4.324  -5.674  0.00  0.00    +0.090 C 
ENDBRANCH  23  24
ENDBRANCH  22  23
ENDBRANCH  12  22
TORSDOF 5
ENDMDL
MODEL 4
REMARK VINA RESULT:      -8.2      3.208      6.363
REMARK  Name = 
REMARK  5 active torsions:
REMARK  status: ('A' for Active; 'I' for Inactive)
REMARK    1  A    between atoms: N_2  and  S_4
REMARK    2  A    between atoms: S_4  and  C_7
REMARK    3  A    between atoms: C_14  and  C_15
REMARK    4  A    between atoms: C_15  and  C_16
REMARK    5  A    between atoms: C_16  and  N_17
REMARK                            x       y       z     vdW  Elec       q    Type
REMARK                         _______ _______ _______ _____ _____    ______ ____
ROOT
ATOM      1  C   UNL     1       0.095   6.187  -3.910  0.00  0.00    +0.122 A 
ATOM      2  C   UNL     1       1.374   6.709  -4.076  0.00  0.00    +0.020 A 
ATOM      3  C   UNL     1       1.841   6.808  -5.381  0.00  0.00    +0.007 A 
ATOM      4  C   UNL     1       3.276   6.754  -5.685  0.00  0.00    -0.003 C 
ATOM      5  C   UNL     1       3.789   6.256  -6.966  0.00  0.00    +0.006 A 
ATOM      6  C   UNL     1       3.046   6.329  -8.139  0.00  0.00    +0.029 A 
ATOM      7  S   UNL     1       1.534   7.292  -8.042  0.00  0.00    -0.087 S 
ATOM      8  C   UNL     1       3.011   5.240  -9.002  0.00  0.00    +0.006 A 
ATOM      9  C   UNL     1       4.062   4.338  -8.932  0.00  0.00    +0.001 A 
ATOM     10  C   UNL     1       5.136   4.568  -8.082  0.00  0.00    +0.000 A 
ATOM     11  C   UNL     1       4.934   5.470  -7.043  0.00  0.00    +0.000 A 
ATOM     12  C   UNL     1       4.163   6.956  -4.713  0.00  0.00    -0.025 C 
ATOM     13  C   UNL     1       0.902   7.033  -6.380  0.00  0.00    +0.030 A 
ATOM     14  C   UNL     1      -0.322   6.394  -6.293  0.00  0.00    +0.008 A 
ATOM     15  C   UNL     1      -0.754   6.098  -5.006  0.00  0.00    +0.020 A 
ENDROOT
BRANCH   1  16
ATOM     16  S   UNL     1      -0.482   5.522  -2.416  0.00  0.00    +0.063 S 
ATOM     17  O   UNL     1       0.498   4.556  -1.839  0.00  0.00    -0.153 OA
ATOM     18  O   UNL     1      -1.793   4.806  -2.653  0.00  0.00    -0.153 OA
BRANCH  16  20
ATOM     19  C   UNL     1      -1.256   6.176  -0.049  0.00  0.00    +0.115 C 
ATOM     20  N   UNL     1      -0.819   6.787  -1.279  0.00  0.00    -0.153 NA
ATOM     21  C   UNL     1      -1.880   7.648  -1.752  0.00  0.00    +0.115 C 
ENDBRANCH  16  20
ENDBRANCH   1  16
BRANCH  12  22
ATOM     22  C   UNL     1       3.649   7.477  -3.408  0.00  0.00    +0.043 C 
BRANCH  22  23
ATOM     23  C   UNL     1       4.439   6.823  -2.287  0.00  0.00    +0.077 C 
BRANCH  23  24
ATOM     24  N   UNL     1       4.415   7.695  -1.121  0.00  0.00    -0.270 NA
ATOM     25  C   UNL     1       3.545   8.828  -1.337  0.00  0.00    +0.090 C 
ATOM     26  C   UNL     1       3.686   9.755  -0.138  0.00  0.00    +0.090 C 
ATOM     27  N   UNL     1       3.174   9.032   1.022  0.00  0.00    -0.269 NA
ATOM     28  C   UNL     1       1.820   8.611   0.669  0.00  0.00    +0.090 C 
ATOM     29  C   UNL     1       4.038   7.885   1.234  0.00  0.00    +0.090 C 
ATOM     30  C   UNL     1       4.015   6.944   0.047  0.00  0.00    +0.090 C 
ENDBRANCH  23  24
ENDBRANCH  22  23
ENDBRANCH  12  22
TORSDOF 5
ENDMDL
MODEL 5
REMARK VINA RESULT:      -8.2      3.199      7.214
REMARK  Name = 
REMARK  5 active torsions:
REMARK  status: ('A' for Active; 'I' for Inactive)
REMARK    1  A    between atoms: N_2  and  S_4
REMARK    2  A    between atoms: S_4  and  C_7
REMARK    3  A    between atoms: C_14  and  C_15
REMARK    4  A    between atoms: C_15  and  C_16
REMARK    5  A    between atoms: C_16  and  N_17
REMARK                            x       y       z     vdW  Elec       q    Type
REMARK                         _______ _______ _______ _____ _____    ______ ____
ROOT
ATOM      1  C   UNL     1       3.660   6.174  -5.345  0.00  0.00    +0.122 A 
ATOM      2  C   UNL     1       2.419   5.668  -5.716  0.00  0.00    +0.020 A 
ATOM      3  C   UNL     1       2.284   5.260  -7.038  0.00  0.00    +0.007 A 
ATOM      4  C   UNL     1       0.982   5.283  -7.715  0.00  0.00    -0.003 C 
ATOM      5  C   UNL     1       0.854   5.460  -9.167  0.00  0.00    +0.006 A 
ATOM      6  C   UNL     1       1.854   5.071 -10.049  0.00  0.00    +0.029 A 
ATOM      7  S   UNL     1       3.194   4.114  -9.333  0.00  0.00    -0.087 S 
ATOM      8  C   UNL     1       2.209   5.907 -11.102  0.00  0.00    +0.006 A 
ATOM      9  C   UNL     1       1.266   6.831 -11.526  0.00  0.00    +0.001 A 
ATOM     10  C   UNL     1      -0.003   6.857 -10.962  0.00  0.00    +0.000 A 
ATOM     11  C   UNL     1      -0.154   6.238  -9.725  0.00  0.00    +0.000 A 
ATOM     12  C   UNL     1      -0.135   5.360  -6.993  0.00  0.00    -0.025 C 
ATOM     13  C   UNL     1       3.416   4.762  -7.671  0.00  0.00    +0.030 A 
ATOM     14  C   UNL     1       4.635   5.362  -7.415  0.00  0.00    +0.008 A 
ATOM     15  C   UNL     1       4.760   5.958  -6.166  0.00  0.00    +0.020 A 
ENDROOT
BRANCH   1  16
ATOM     16  S   UNL     1       3.909   7.174  -3.949  0.00  0.00    +0.063 S 
ATOM     17  O   UNL     1       2.633   7.800  -3.497  0.00  0.00    -0.153 OA
ATOM     18  O   UNL     1       4.899   8.268  -4.281  0.00  0.00    -0.153 OA
BRANCH  16  20
ATOM     19  C   UNL     1       3.896   5.011  -2.553  0.00  0.00    +0.115 C 
ATOM     20  N   UNL     1       4.617   6.254  -2.662  0.00  0.00    -0.153 NA
ATOM     21  C   UNL     1       4.507   6.947  -1.399  0.00  0.00    +0.115 C 
ENDBRANCH  16  20
ENDBRANCH   1  16
BRANCH  12  22
ATOM     22  C   UNL     1      -0.014   5.167  -5.515  0.00  0.00    +0.043 C 
BRANCH  22  23
ATOM     23  C   UNL     1      -1.222   5.805  -4.849  0.00  0.00    +0.077 C 
BRANCH  23  24
ATOM     24  N   UNL     1      -1.240   5.428  -3.443  0.00  0.00    -0.270 NA
ATOM     25  C   UNL     1       0.005   5.774  -2.796  0.00  0.00    +0.090 C 
ATOM     26  C   UNL     1      -0.042   5.223  -1.377  0.00  0.00    +0.090 C 
ATOM     27  N   UNL     1      -1.105   5.938  -0.678  0.00  0.00    -0.269 NA
ATOM     28  C   UNL     1      -0.799   7.358  -0.823  0.00  0.00    +0.090 C 
ATOM     29  C   UNL     1      -2.356   5.603  -1.333  0.00  0.00    +0.090 C 
ATOM     30  C   UNL     1      -2.363   6.052  -2.781  0.00  0.00    +0.090 C 
ENDBRANCH  23  24
ENDBRANCH  22  23
ENDBRANCH  12  22
TORSDOF 5
ENDMDL
MODEL 6
REMARK VINA RESULT:      -7.9      3.089      5.171
REMARK  Name = 
REMARK  5 active torsions:
REMARK  status: ('A' for Active; 'I' for Inactive)
REMARK    1  A    between atoms: N_2  and  S_4
REMARK    2  A    between atoms: S_4  and  C_7
REMARK    3  A    between atoms: C_14  and  C_15
REMARK    4  A    between atoms: C_15  and  C_16
REMARK    5  A    between atoms: C_16  and  N_17
REMARK                            x       y       z     vdW  Elec       q    Type
REMARK                         _______ _______ _______ _____ _____    ______ ____
ROOT
ATOM      1  C   UNL     1      -1.322   6.501  -3.155  0.00  0.00    +0.122 A 
ATOM      2  C   UNL     1      -0.249   6.348  -2.284  0.00  0.00    +0.020 A 
ATOM      3  C   UNL     1      -0.489   6.632  -0.944  0.00  0.00    +0.007 A 
ATOM      4  C   UNL     1       0.585   7.093  -0.056  0.00  0.00    -0.003 C 
ATOM      5  C   UNL     1       0.329   7.949   1.107  0.00  0.00    +0.006 A 
ATOM      6  C   UNL     1      -0.887   7.938   1.780  0.00  0.00    +0.029 A 
ATOM      7  S   UNL     1      -2.029   6.638   1.299  0.00  0.00    -0.087 S 
ATOM      8  C   UNL     1      -1.472   9.137   2.169  0.00  0.00    +0.006 A 
ATOM      9  C   UNL     1      -0.636  10.234   2.319  0.00  0.00    +0.001 A 
ATOM     10  C   UNL     1       0.737  10.103   2.157  0.00  0.00    +0.000 A 
ATOM     11  C   UNL     1       1.185   8.988   1.457  0.00  0.00    +0.000 A 
ATOM     12  C   UNL     1       1.855   6.918  -0.414  0.00  0.00    -0.025 C 
ATOM     13  C   UNL     1      -1.771   6.394  -0.462  0.00  0.00    +0.030 A 
ATOM     14  C   UNL     1      -2.849   6.686  -1.276  0.00  0.00    +0.008 A 
ATOM     15  C   UNL     1      -2.609   6.602  -2.643  0.00  0.00    +0.020 A 
ENDROOT
BRANCH   1  16
ATOM     16  S   UNL     1      -1.144   6.690  -4.871  0.00  0.00    +0.063 S 
ATOM     17  O   UNL     1      -0.019   7.611  -5.200  0.00  0.00    -0.153 OA
ATOM     18  O   UNL     1      -2.422   7.250  -5.453  0.00  0.00    -0.153 OA
BRANCH  16  20
ATOM     19  C   UNL     1       0.514   4.881  -5.650  0.00  0.00    +0.115 C 
ATOM     20  N   UNL     1      -0.902   5.149  -5.628  0.00  0.00    -0.153 NA
ATOM     21  C   UNL     1      -1.377   5.155  -6.993  0.00  0.00    +0.115 C 
ENDBRANCH  16  20
ENDBRANCH   1  16
BRANCH  12  22
ATOM     22  C   UNL     1       2.125   6.035  -1.591  0.00  0.00    +0.043 C 
BRANCH  22  23
ATOM     23  C   UNL     1       3.468   5.357  -1.382  0.00  0.00    +0.077 C 
BRANCH  23  24
ATOM     24  N   UNL     1       4.283   5.545  -2.575  0.00  0.00    -0.270 NA
ATOM     25  C   UNL     1       3.626   5.007  -3.744  0.00  0.00    +0.090 C 
ATOM     26  C   UNL     1       4.597   5.117  -4.911  0.00  0.00    +0.090 C 
ATOM     27  N   UNL     1       4.812   6.540  -5.154  0.00  0.00    -0.269 NA
ATOM     28  C   UNL     1       3.486   7.122  -5.342  0.00  0.00    +0.090 C 
ATOM     29  C   UNL     1       5.460   7.087  -3.976  0.00  0.00    +0.090 C 
ATOM     30  C   UNL     1       4.587   6.948  -2.746  0.00  0.00    +0.090 C 
ENDBRANCH  23  24
ENDBRANCH  22  23
ENDBRANCH  12  22
TORSDOF 5
ENDMDL
MODEL 7
REMARK VINA RESULT:      -7.5      7.032     11.452
REMARK  Name = 
REMARK  5 active torsions:
REMARK  status: ('A' for Active; 'I' for Inactive)
REMARK    1  A    between atoms: N_2  and  S_4
REMARK    2  A    between atoms: S_4  and  C_7
REMARK    3  A    between atoms: C_14  and  C_15
REMARK    4  A    between atoms: C_15  and  C_16
REMARK    5  A    between atoms: C_16  and  N_17
REMARK                            x       y       z     vdW  Elec       q    Type
REMARK                         _______ _______ _______ _____ _____    ______ ____
ROOT
ATOM      1  C   UNL     1       5.851   6.392 -14.156  0.00  0.00    +0.122 A 
ATOM      2  C   UNL     1       4.497   6.159 -14.371  0.00  0.00    +0.020 A 
ATOM      3  C   UNL     1       3.897   6.875 -15.400  0.00  0.00    +0.007 A 
ATOM      4  C   UNL     1       2.466   7.199 -15.372  0.00  0.00    -0.003 C 
ATOM      5  C   UNL     1       1.917   8.387 -16.036  0.00  0.00    +0.006 A 
ATOM      6  C   UNL     1       2.523   8.959 -17.148  0.00  0.00    +0.029 A 
ATOM      7  S   UNL     1       3.869   8.015 -17.871  0.00  0.00    -0.087 S 
ATOM      8  C   UNL     1       2.646  10.341 -17.232  0.00  0.00    +0.006 A 
ATOM      9  C   UNL     1       1.760  11.105 -16.487  0.00  0.00    +0.001 A 
ATOM     10  C   UNL     1       0.750  10.500 -15.751  0.00  0.00    +0.000 A 
ATOM     11  C   UNL     1       0.907   9.149 -15.459  0.00  0.00    +0.000 A 
ATOM     12  C   UNL     1       1.655   6.531 -14.554  0.00  0.00    -0.025 C 
ATOM     13  C   UNL     1       4.690   7.209 -16.491  0.00  0.00    +0.030 A 
ATOM     14  C   UNL     1       6.001   7.587 -16.265  0.00  0.00    +0.008 A 
ATOM     15  C   UNL     1       6.595   7.044 -15.132  0.00  0.00    +0.020 A 
ENDROOT
BRANCH   1  16
ATOM     16  S   UNL     1       6.665   6.016 -12.671  0.00  0.00    +0.063 S 
ATOM     17  O   UNL     1       7.880   6.862 -12.491  0.00  0.00    -0.153 OA
ATOM     18  O   UNL     1       7.078   4.561 -12.675  0.00  0.00    -0.153 OA
BRANCH  16  20
ATOM     19  C   UNL     1       5.505   7.619 -11.023  0.00  0.00    +0.115 C 
ATOM     20  N   UNL     1       5.590   6.212 -11.325  0.00  0.00    -0.153 NA
ATOM     21  C   UNL     1       6.090   5.532 -10.151  0.00  0.00    +0.115 C 
ENDBRANCH  16  20
ENDBRANCH   1  16
BRANCH  12  22
ATOM     22  C   UNL     1       2.204   5.311 -13.884  0.00  0.00    +0.043 C 
BRANCH  22  23
ATOM     23  C   UNL     1       1.084   4.654 -13.095  0.00  0.00    +0.077 C 
BRANCH  23  24
ATOM     24  N   UNL     1       0.974   5.308 -11.799  0.00  0.00    -0.270 NA
ATOM     25  C   UNL     1       0.317   4.451 -10.838  0.00  0.00    +0.090 C 
ATOM     26  C   UNL     1       0.116   5.256  -9.562  0.00  0.00    +0.090 C 
ATOM     27  N   UNL     1       1.444   5.557  -9.035  0.00  0.00    -0.269 NA
ATOM     28  C   UNL     1       2.127   4.272  -8.904  0.00  0.00    +0.090 C 
ATOM     29  C   UNL     1       2.112   6.407 -10.003  0.00  0.00    +0.090 C 
ATOM     30  C   UNL     1       2.284   5.704 -11.335  0.00  0.00    +0.090 C 
ENDBRANCH  23  24
ENDBRANCH  22  23
ENDBRANCH  12  22
TORSDOF 5
ENDMDL
MODEL 8
REMARK VINA RESULT:      -7.4      3.613      7.259
REMARK  Name = 
REMARK  5 active torsions:
REMARK  status: ('A' for Active; 'I' for Inactive)
REMARK    1  A    between atoms: N_2  and  S_4
REMARK    2  A    between atoms: S_4  and  C_7
REMARK    3  A    between atoms: C_14  and  C_15
REMARK    4  A    between atoms: C_15  and  C_16
REMARK    5  A    between atoms: C_16  and  N_17
REMARK                            x       y       z     vdW  Elec       q    Type
REMARK                         _______ _______ _______ _____ _____    ______ ____
ROOT
ATOM      1  C   UNL     1       2.197   5.626  -8.524  0.00  0.00    +0.122 A 
ATOM      2  C   UNL     1       2.051   5.231  -7.199  0.00  0.00    +0.020 A 
ATOM      3  C   UNL     1       0.763   5.265  -6.677  0.00  0.00    +0.007 A 
ATOM      4  C   UNL     1       0.525   5.466  -5.243  0.00  0.00    -0.003 C 
ATOM      5  C   UNL     1      -0.698   6.096  -4.730  0.00  0.00    +0.006 A 
ATOM      6  C   UNL     1      -1.903   6.039  -5.420  0.00  0.00    +0.029 A 
ATOM      7  S   UNL     1      -1.934   4.942  -6.841  0.00  0.00    -0.087 S 
ATOM      8  C   UNL     1      -2.692   7.178  -5.523  0.00  0.00    +0.006 A 
ATOM      9  C   UNL     1      -2.519   8.162  -4.561  0.00  0.00    +0.001 A 
ATOM     10  C   UNL     1      -1.641   7.969  -3.503  0.00  0.00    +0.000 A 
ATOM     11  C   UNL     1      -0.673   6.983  -3.660  0.00  0.00    +0.000 A 
ATOM     12  C   UNL     1       1.519   5.275  -4.377  0.00  0.00    -0.025 C 
ATOM     13  C   UNL     1      -0.288   5.028  -7.555  0.00  0.00    +0.030 A 
ATOM     14  C   UNL     1      -0.211   5.549  -8.834  0.00  0.00    +0.008 A 
ATOM     15  C   UNL     1       1.074   5.716  -9.337  0.00  0.00    +0.020 A 
ENDROOT
BRANCH   1  16
ATOM     16  S   UNL     1       3.706   6.132  -9.213  0.00  0.00    +0.063 S 
ATOM     17  O   UNL     1       4.850   5.801  -8.315  0.00  0.00    -0.153 OA
ATOM     18  O   UNL     1       3.681   7.627  -9.443  0.00  0.00    -0.153 OA
BRANCH  16  20
ATOM     19  C   UNL     1       5.347   5.406 -11.060  0.00  0.00    +0.115 C 
ATOM     20  N   UNL     1       3.935   5.406 -10.771  0.00  0.00    -0.153 NA
ATOM     21  C   UNL     1       3.267   6.164 -11.806  0.00  0.00    +0.115 C 
ENDBRANCH  16  20
ENDBRANCH   1  16
BRANCH  12  22
ATOM     22  C   UNL     1       2.763   4.622  -4.889  0.00  0.00    +0.043 C 
BRANCH  22  23
ATOM     23  C   UNL     1       3.897   4.930  -3.926  0.00  0.00    +0.077 C 
BRANCH  23  24
ATOM     24  N   UNL     1       3.454   5.952  -2.988  0.00  0.00    -0.270 NA
ATOM     25  C   UNL     1       3.341   5.417  -1.651  0.00  0.00    +0.090 C 
ATOM     26  C   UNL     1       2.742   6.503  -0.767  0.00  0.00    +0.090 C 
ATOM     27  N   UNL     1       3.712   7.593  -0.716  0.00  0.00    -0.269 NA
ATOM     28  C   UNL     1       4.967   6.995  -0.267  0.00  0.00    +0.090 C 
ATOM     29  C   UNL     1       3.838   8.125  -2.060  0.00  0.00    +0.090 C 
ATOM     30  C   UNL     1       4.359   7.079  -3.025  0.00  0.00    +0.090 C 
ENDBRANCH  23  24
ENDBRANCH  22  23
ENDBRANCH  12  22
TORSDOF 5
ENDMDL
MODEL 9
REMARK VINA RESULT:      -7.3      3.642      5.958
REMARK  Name = 
REMARK  5 active torsions:
REMARK  status: ('A' for Active; 'I' for Inactive)
REMARK    1  A    between atoms: N_2  and  S_4
REMARK    2  A    between atoms: S_4  and  C_7
REMARK    3  A    between atoms: C_14  and  C_15
REMARK    4  A    between atoms: C_15  and  C_16
REMARK    5  A    between atoms: C_16  and  N_17
REMARK                            x       y       z     vdW  Elec       q    Type
REMARK                         _______ _______ _______ _____ _____    ______ ____
ROOT
ATOM      1  C   UNL     1       2.552   5.815  -6.590  0.00  0.00    +0.122 A 
ATOM      2  C   UNL     1       2.525   5.598  -7.964  0.00  0.00    +0.020 A 
ATOM      3  C   UNL     1       3.755   5.466  -8.598  0.00  0.00    +0.007 A 
ATOM      4  C   UNL     1       3.930   5.827 -10.009  0.00  0.00    -0.003 C 
ATOM      5  C   UNL     1       5.215   6.284 -10.550  0.00  0.00    +0.006 A 
ATOM      6  C   UNL     1       6.429   5.901  -9.992  0.00  0.00    +0.029 A 
ATOM      7  S   UNL     1       6.339   4.622  -8.735  0.00  0.00    -0.087 S 
ATOM      8  C   UNL     1       7.435   6.845  -9.818  0.00  0.00    +0.006 A 
ATOM      9  C   UNL     1       7.396   7.974 -10.623  0.00  0.00    +0.001 A 
ATOM     10  C   UNL     1       6.427   8.106 -11.608  0.00  0.00    +0.000 A 
ATOM     11  C   UNL     1       5.295   7.306 -11.489  0.00  0.00    +0.000 A 
ATOM     12  C   UNL     1       2.861   5.955 -10.793  0.00  0.00    -0.025 C 
ATOM     13  C   UNL     1       4.795   4.911  -7.862  0.00  0.00    +0.030 A 
ATOM     14  C   UNL     1       4.912   5.244  -6.525  0.00  0.00    +0.008 A 
ATOM     15  C   UNL     1       3.724   5.574  -5.884  0.00  0.00    +0.020 A 
ENDROOT
BRANCH   1  16
ATOM     16  S   UNL     1       1.225   6.490  -5.700  0.00  0.00    +0.063 S 
ATOM     17  O   UNL     1       0.603   7.629  -6.435  0.00  0.00    -0.153 OA
ATOM     18  O   UNL     1       1.715   6.984  -4.357  0.00  0.00    -0.153 OA
BRANCH  16  20
ATOM     19  C   UNL     1      -0.974   5.340  -6.387  0.00  0.00    +0.115 C 
ATOM     20  N   UNL     1       0.039   5.271  -5.364  0.00  0.00    -0.153 NA
ATOM     21  C   UNL     1      -0.599   5.497  -4.086  0.00  0.00    +0.115 C 
ENDBRANCH  16  20
ENDBRANCH   1  16
BRANCH  12  22
ATOM     22  C   UNL     1       1.549   5.478 -10.254  0.00  0.00    +0.043 C 
BRANCH  22  23
ATOM     23  C   UNL     1       0.508   5.601 -11.354  0.00  0.00    +0.077 C 
BRANCH  23  24
ATOM     24  N   UNL     1       1.068   6.377 -12.451  0.00  0.00    -0.270 NA
ATOM     25  C   UNL     1       1.361   5.535 -13.587  0.00  0.00    +0.090 C 
ATOM     26  C   UNL     1       2.069   6.392 -14.628  0.00  0.00    +0.090 C 
ATOM     27  N   UNL     1       1.110   7.399 -15.073  0.00  0.00    -0.269 NA
ATOM     28  C   UNL     1      -0.071   6.663 -15.517  0.00  0.00    +0.090 C 
ATOM     29  C   UNL     1       0.803   8.239 -13.930  0.00  0.00    +0.090 C 
ATOM     30  C   UNL     1       0.162   7.444 -12.811  0.00  0.00    +0.090 C 
ENDBRANCH  23  24
ENDBRANCH  22  23
ENDBRANCH  12  22
TORSDOF 5
ENDMDL
