MODEL 1
REMARK VINA RESULT:      -8.9      0.000      0.000
REMARK  Name = 
REMARK  5 active torsions:
REMARK  status: ('A' for Active; 'I' for Inactive)
REMARK    1  A    between atoms: N_14  and  C_15
REMARK    2  A    between atoms: C_15  and  C_16
REMARK    3  A    between atoms: C_16  and  C_18
REMARK    4  A    between atoms: C_18  and  C_20
REMARK    5  A    between atoms: C_20  and  C_22
REMARK                            x       y       z     vdW  Elec       q    Type
REMARK                         _______ _______ _______ _____ _____    ______ ____
ROOT
ATOM      1  C   UNL     1      -2.301   7.850  -4.902  0.00  0.00    +0.031 C 
ATOM      2  C   UNL     1      -1.260   6.855  -5.310  0.00  0.00    -0.024 A 
ATOM      3  C   UNL     1      -1.658   5.788  -6.106  0.00  0.00    -0.024 A 
ATOM      4  C   UNL     1      -2.843   5.055  -5.609  0.00  0.00    +0.031 C 
ATOM      5  C   UNL     1      -0.906   5.388  -7.205  0.00  0.00    +0.014 A 
ATOM      6  C   UNL     1       0.398   5.869  -7.264  0.00  0.00    +0.079 A 
ATOM      7  C   UNL     1       0.945   6.552  -6.183  0.00  0.00    +0.097 A 
ATOM      8  N   UNL     1       2.268   6.478  -5.898  0.00  0.00    -0.236 NA
ATOM      9  C   UNL     1       3.061   6.059  -6.894  0.00  0.00    +0.173 A 
ATOM     10  C   UNL     1       2.479   5.883  -8.233  0.00  0.00    +0.171 A 
ATOM     11  N   UNL     1       3.298   5.663  -9.262  0.00  0.00    -0.172 NA
ATOM     12  C   UNL     1       4.614   5.527  -8.991  0.00  0.00    +0.373 A 
ATOM     13  O   UNL     1       5.446   5.727  -9.914  0.00  0.00    -0.242 OA
ATOM     14  N   UNL     1       5.085   5.324  -7.748  0.00  0.00    -0.150 NA
ATOM     15  C   UNL     1       4.324   5.529  -6.660  0.00  0.00    +0.304 A 
ATOM     16  O   UNL     1       4.619   5.107  -5.516  0.00  0.00    -0.263 OA
ATOM     17  N   UNL     1       1.156   5.739  -8.366  0.00  0.00    -0.307 N 
ATOM     18  C   UNL     1       0.064   7.270  -5.381  0.00  0.00    +0.016 A 
ENDROOT
BRANCH  17  19
ATOM     19  C   UNL     1       0.513   5.357  -9.586  0.00  0.00    +0.143 C 
BRANCH  19  20
ATOM     20  C   UNL     1       1.085   6.426 -10.691  0.00  0.00    +0.207 C 
ATOM     21  O   UNL     1      -0.001   7.430 -10.385  0.00  0.00    -0.218 OA
BRANCH  20  22
ATOM     22  C   UNL     1       0.235   5.769 -12.038  0.00  0.00    +0.217 C 
ATOM     23  O   UNL     1       0.792   4.385 -11.915  0.00  0.00    -0.218 OA
BRANCH  22  24
ATOM     24  C   UNL     1       1.429   6.331 -13.136  0.00  0.00    +0.217 C 
ATOM     25  O   UNL     1       0.553   7.497 -13.538  0.00  0.00    -0.217 OA
BRANCH  24  26
ATOM     26  C   UNL     1       0.865   5.445 -14.389  0.00  0.00    +0.217 C 
ATOM     27  O   UNL     1       0.835   6.225 -15.501  0.00  0.00    -0.217 OA
ENDBRANCH  24  26
ENDBRANCH  22  24
ENDBRANCH  20  22
ENDBRANCH  19  20
ENDBRANCH  17  19
TORSDOF 5
ENDMDL
MODEL 2
REMARK VINA RESULT:      -8.9      2.710      7.859
REMARK  Name = 
REMARK  5 active torsions:
REMARK  status: ('A' for Active; 'I' for Inactive)
REMARK    1  A    between atoms: N_14  and  C_15
REMARK    2  A    between atoms: C_15  and  C_16
REMARK    3  A    between atoms: C_16  and  C_18
REMARK    4  A    between atoms: C_18  and  C_20
REMARK    5  A    between atoms: C_20  and  C_22
REMARK                            x       y       z     vdW  Elec       q    Type
REMARK                         _______ _______ _______ _____ _____    ______ ____
ROOT
ATOM      1  C   UNL     1       6.999   7.782 -10.855  0.00  0.00    +0.031 C 
ATOM      2  C   UNL     1       5.971   6.787 -10.414  0.00  0.00    -0.024 A 
ATOM      3  C   UNL     1       6.371   5.791  -9.530  0.00  0.00    -0.024 A 
ATOM      4  C   UNL     1       7.593   5.062  -9.934  0.00  0.00    +0.031 C 
ATOM      5  C   UNL     1       5.591   5.446  -8.432  0.00  0.00    +0.014 A 
ATOM      6  C   UNL     1       4.273   5.890  -8.452  0.00  0.00    +0.079 A 
ATOM      7  C   UNL     1       3.746   6.478  -9.598  0.00  0.00    +0.097 A 
ATOM      8  N   UNL     1       2.436   6.345  -9.921  0.00  0.00    -0.236 NA
ATOM      9  C   UNL     1       1.620   5.972  -8.926  0.00  0.00    +0.173 A 
ATOM     10  C   UNL     1       2.158   5.908  -7.559  0.00  0.00    +0.171 A 
ATOM     11  N   UNL     1       1.309   5.736  -6.545  0.00  0.00    -0.172 NA
ATOM     12  C   UNL     1       0.008   5.541  -6.851  0.00  0.00    +0.373 A 
ATOM     13  O   UNL     1      -0.862   5.779  -5.973  0.00  0.00    -0.242 OA
ATOM     14  N   UNL     1      -0.412   5.237  -8.092  0.00  0.00    -0.150 NA
ATOM     15  C   UNL     1       0.382   5.389  -9.164  0.00  0.00    +0.304 A 
ATOM     16  O   UNL     1       0.141   4.878 -10.285  0.00  0.00    -0.263 OA
ATOM     17  N   UNL     1       3.479   5.815  -7.370  0.00  0.00    -0.307 N 
ATOM     18  C   UNL     1       4.635   7.165 -10.418  0.00  0.00    +0.016 A 
ENDROOT
BRANCH  17  19
ATOM     19  C   UNL     1       4.087   5.539  -6.105  0.00  0.00    +0.143 C 
BRANCH  19  20
ATOM     20  C   UNL     1       3.401   6.627  -5.087  0.00  0.00    +0.207 C 
ATOM     21  O   UNL     1       4.433   7.682  -5.406  0.00  0.00    -0.218 OA
BRANCH  20  22
ATOM     22  C   UNL     1       4.233   6.101  -3.672  0.00  0.00    +0.217 C 
ATOM     23  O   UNL     1       3.726   4.693  -3.705  0.00  0.00    -0.218 OA
BRANCH  22  24
ATOM     24  C   UNL     1       2.989   6.700  -2.651  0.00  0.00    +0.217 C 
ATOM     25  O   UNL     1       3.735   8.002  -2.456  0.00  0.00    -0.217 OA
BRANCH  24  26
ATOM     26  C   UNL     1       3.650   6.090  -1.286  0.00  0.00    +0.217 C 
ATOM     27  O   UNL     1       2.683   5.453  -0.575  0.00  0.00    -0.217 OA
ENDBRANCH  24  26
ENDBRANCH  22  24
ENDBRANCH  20  22
ENDBRANCH  19  20
ENDBRANCH  17  19
TORSDOF 5
ENDMDL
MODEL 3
REMARK VINA RESULT:      -8.8      4.959      8.818
REMARK  Name = 
REMARK  5 active torsions:
REMARK  status: ('A' for Active; 'I' for Inactive)
REMARK    1  A    between atoms: N_14  and  C_15
REMARK    2  A    between atoms: C_15  and  C_16
REMARK    3  A    between atoms: C_16  and  C_18
REMARK    4  A    between atoms: C_18  and  C_20
REMARK    5  A    between atoms: C_20  and  C_22
REMARK                            x       y       z     vdW  Elec       q    Type
REMARK                         _______ _______ _______ _____ _____    ______ ____
ROOT
ATOM      1  C   UNL     1       1.510   6.435  -8.907  0.00  0.00    +0.031 C 
ATOM      2  C   UNL     1       0.980   5.657  -7.743  0.00  0.00    -0.024 A 
ATOM      3  C   UNL     1       1.832   4.746  -7.129  0.00  0.00    -0.024 A 
ATOM      4  C   UNL     1       2.505   3.811  -8.055  0.00  0.00    +0.031 C 
ATOM      5  C   UNL     1       1.921   4.663  -5.744  0.00  0.00    +0.014 A 
ATOM      6  C   UNL     1       0.899   5.274  -5.026  0.00  0.00    +0.079 A 
ATOM      7  C   UNL     1      -0.225   5.767  -5.681  0.00  0.00    +0.097 A 
ATOM      8  N   UNL     1      -1.444   5.768  -5.088  0.00  0.00    -0.236 NA
ATOM      9  C   UNL     1      -1.449   5.649  -3.754  0.00  0.00    +0.173 A 
ATOM     10  C   UNL     1      -0.165   5.700  -3.036  0.00  0.00    +0.171 A 
ATOM     11  N   UNL     1      -0.180   5.784  -1.706  0.00  0.00    -0.172 NA
ATOM     12  C   UNL     1      -1.382   5.727  -1.092  0.00  0.00    +0.373 A 
ATOM     13  O   UNL     1      -1.492   6.198   0.069  0.00  0.00    -0.242 OA
ATOM     14  N   UNL     1      -2.500   5.315  -1.717  0.00  0.00    -0.150 NA
ATOM     15  C   UNL     1      -2.567   5.211  -3.054  0.00  0.00    +0.304 A 
ATOM     16  O   UNL     1      -3.474   4.589  -3.659  0.00  0.00    -0.263 OA
ATOM     17  N   UNL     1       0.972   5.455  -3.696  0.00  0.00    -0.307 N 
ATOM     18  C   UNL     1      -0.048   6.208  -6.988  0.00  0.00    +0.016 A 
ENDROOT
BRANCH  17  19
ATOM     19  C   UNL     1       2.241   5.275  -3.059  0.00  0.00    +0.143 C 
BRANCH  19  20
ATOM     20  C   UNL     1       2.596   6.757  -2.451  0.00  0.00    +0.207 C 
ATOM     21  O   UNL     1       3.580   7.052  -3.558  0.00  0.00    -0.218 OA
BRANCH  20  22
ATOM     22  C   UNL     1       3.825   6.219  -1.370  0.00  0.00    +0.217 C 
ATOM     23  O   UNL     1       2.992   5.178  -0.690  0.00  0.00    -0.218 OA
BRANCH  22  24
ATOM     24  C   UNL     1       3.466   7.472  -0.252  0.00  0.00    +0.217 C 
ATOM     25  O   UNL     1       4.311   8.453  -1.034  0.00  0.00    -0.217 OA
BRANCH  24  26
ATOM     26  C   UNL     1       4.731   7.127   0.725  0.00  0.00    +0.217 C 
ATOM     27  O   UNL     1       4.277   6.982   1.998  0.00  0.00    -0.217 OA
ENDBRANCH  24  26
ENDBRANCH  22  24
ENDBRANCH  20  22
ENDBRANCH  19  20
ENDBRANCH  17  19
TORSDOF 5
ENDMDL
MODEL 4
REMARK VINA RESULT:      -8.5      3.380      6.878
REMARK  Name = 
REMARK  5 active torsions:
REMARK  status: ('A' for Active; 'I' for Inactive)
REMARK    1  A    between atoms: N_14  and  C_15
REMARK    2  A    between atoms: C_15  and  C_16
REMARK    3  A    between atoms: C_16  and  C_18
REMARK    4  A    between atoms: C_18  and  C_20
REMARK    5  A    between atoms: C_20  and  C_22
REMARK                            x       y       z     vdW  Elec       q    Type
REMARK                         _______ _______ _______ _____ _____    ______ ____
ROOT
ATOM      1  C   UNL     1       0.375   4.379 -14.533  0.00  0.00    +0.031 C 
ATOM      2  C   UNL     1       1.547   5.194 -14.081  0.00  0.00    -0.024 A 
ATOM      3  C   UNL     1       1.293   6.319 -13.306  0.00  0.00    -0.024 A 
ATOM      4  C   UNL     1       0.268   7.231 -13.859  0.00  0.00    +0.031 C 
ATOM      5  C   UNL     1       2.052   6.602 -12.175  0.00  0.00    +0.014 A 
ATOM      6  C   UNL     1       3.255   5.914 -12.056  0.00  0.00    +0.079 A 
ATOM      7  C   UNL     1       3.730   5.141 -13.109  0.00  0.00    +0.097 A 
ATOM      8  N   UNL     1       5.059   4.994 -13.334  0.00  0.00    -0.236 NA
ATOM      9  C   UNL     1       5.865   5.288 -12.304  0.00  0.00    +0.173 A 
ATOM     10  C   UNL     1       5.260   5.570 -10.993  0.00  0.00    +0.171 A 
ATOM     11  N   UNL     1       6.058   5.664  -9.929  0.00  0.00    -0.172 NA
ATOM     12  C   UNL     1       7.389   5.579 -10.140  0.00  0.00    +0.373 A 
ATOM     13  O   UNL     1       8.135   5.256  -9.180  0.00  0.00    -0.242 OA
ATOM     14  N   UNL     1       7.942   5.691 -11.361  0.00  0.00    -0.150 NA
ATOM     15  C   UNL     1       7.207   5.601 -12.481  0.00  0.00    +0.304 A 
ATOM     16  O   UNL     1       7.617   5.959 -13.612  0.00  0.00    -0.263 OA
ATOM     17  N   UNL     1       3.974   5.930 -10.921  0.00  0.00    -0.307 N 
ATOM     18  C   UNL     1       2.780   4.569 -13.949  0.00  0.00    +0.016 A 
ENDROOT
BRANCH  17  19
ATOM     19  C   UNL     1       3.350   6.424  -9.732  0.00  0.00    +0.143 C 
BRANCH  19  20
ATOM     20  C   UNL     1       2.907   5.068  -8.921  0.00  0.00    +0.207 C 
ATOM     21  O   UNL     1       1.453   5.236  -9.294  0.00  0.00    -0.218 OA
BRANCH  20  22
ATOM     22  C   UNL     1       2.703   5.832  -7.389  0.00  0.00    +0.217 C 
ATOM     23  O   UNL     1       4.157   6.094  -7.150  0.00  0.00    -0.218 OA
BRANCH  22  24
ATOM     24  C   UNL     1       2.673   4.319  -6.578  0.00  0.00    +0.217 C 
ATOM     25  O   UNL     1       1.172   4.405  -6.410  0.00  0.00    -0.217 OA
BRANCH  24  26
ATOM     26  C   UNL     1       2.900   4.973  -5.097  0.00  0.00    +0.217 C 
ATOM     27  O   UNL     1       3.849   4.257  -4.440  0.00  0.00    -0.217 OA
ENDBRANCH  24  26
ENDBRANCH  22  24
ENDBRANCH  20  22
ENDBRANCH  19  20
ENDBRANCH  17  19
TORSDOF 5
ENDMDL
MODEL 5
REMARK VINA RESULT:      -8.5      3.821      6.179
REMARK  Name = 
REMARK  5 active torsions:
REMARK  status: ('A' for Active; 'I' for Inactive)
REMARK    1  A    between atoms: N_14  and  C_15
REMARK    2  A    between atoms: C_15  and  C_16
REMARK    3  A    between atoms: C_16  and  C_18
REMARK    4  A    between atoms: C_18  and  C_20
REMARK    5  A    between atoms: C_20  and  C_22
REMARK                            x       y       z     vdW  Elec       q    Type
REMARK                         _______ _______ _______ _____ _____    ______ ____
ROOT
ATOM      1  C   UNL     1       4.617   4.455  -0.730  0.00  0.00    +0.031 C 
ATOM      2  C   UNL     1       3.448   5.262  -1.203  0.00  0.00    -0.024 A 
ATOM      3  C   UNL     1       3.710   6.407  -1.947  0.00  0.00    -0.024 A 
ATOM      4  C   UNL     1       4.703   7.322  -1.344  0.00  0.00    +0.031 C 
ATOM      5  C   UNL     1       2.983   6.701  -3.095  0.00  0.00    +0.014 A 
ATOM      6  C   UNL     1       1.794   5.999  -3.266  0.00  0.00    +0.079 A 
ATOM      7  C   UNL     1       1.298   5.198  -2.243  0.00  0.00    +0.097 A 
ATOM      8  N   UNL     1      -0.036   5.028  -2.064  0.00  0.00    -0.236 NA
ATOM      9  C   UNL     1      -0.813   5.331  -3.113  0.00  0.00    +0.173 A 
ATOM     10  C   UNL     1      -0.172   5.648  -4.398  0.00  0.00    +0.171 A 
ATOM     11  N   UNL     1      -0.937   5.752  -5.485  0.00  0.00    -0.172 NA
ATOM     12  C   UNL     1      -2.273   5.644  -5.318  0.00  0.00    +0.373 A 
ATOM     13  O   UNL     1      -2.984   5.329  -6.307  0.00  0.00    -0.242 OA
ATOM     14  N   UNL     1      -2.865   5.723  -4.113  0.00  0.00    -0.150 NA
ATOM     15  C   UNL     1      -2.164   5.622  -2.972  0.00  0.00    +0.304 A 
ATOM     16  O   UNL     1      -2.615   5.951  -1.847  0.00  0.00    -0.263 OA
ATOM     17  N   UNL     1       1.110   6.027  -4.423  0.00  0.00    -0.307 N 
ATOM     18  C   UNL     1       2.229   4.623  -1.386  0.00  0.00    +0.016 A 
ENDROOT
BRANCH  17  19
ATOM     19  C   UNL     1       1.765   6.553  -5.581  0.00  0.00    +0.143 C 
BRANCH  19  20
ATOM     20  C   UNL     1       2.285   5.222  -6.386  0.00  0.00    +0.207 C 
ATOM     21  O   UNL     1       3.736   5.547  -6.128  0.00  0.00    -0.218 OA
BRANCH  20  22
ATOM     22  C   UNL     1       2.298   5.948  -7.949  0.00  0.00    +0.217 C 
ATOM     23  O   UNL     1       0.839   6.281  -7.980  0.00  0.00    -0.218 OA
BRANCH  22  24
ATOM     24  C   UNL     1       2.135   4.422  -8.719  0.00  0.00    +0.217 C 
ATOM     25  O   UNL     1       3.594   4.435  -9.120  0.00  0.00    -0.217 OA
BRANCH  24  26
ATOM     26  C   UNL     1       1.710   5.062 -10.163  0.00  0.00    +0.217 C 
ATOM     27  O   UNL     1       0.671   4.349 -10.671  0.00  0.00    -0.217 OA
ENDBRANCH  24  26
ENDBRANCH  22  24
ENDBRANCH  20  22
ENDBRANCH  19  20
ENDBRANCH  17  19
TORSDOF 5
ENDMDL
MODEL 6
REMARK VINA RESULT:      -8.5      2.782      6.843
REMARK  Name = 
REMARK  5 active torsions:
REMARK  status: ('A' for Active; 'I' for Inactive)
REMARK    1  A    between atoms: N_14  and  C_15
REMARK    2  A    between atoms: C_15  and  C_16
REMARK    3  A    between atoms: C_16  and  C_18
REMARK    4  A    between atoms: C_18  and  C_20
REMARK    5  A    between atoms: C_20  and  C_22
REMARK                            x       y       z     vdW  Elec       q    Type
REMARK                         _______ _______ _______ _____ _____    ______ ____
ROOT
ATOM      1  C   UNL     1      -2.978   5.234  -4.755  0.00  0.00    +0.031 C 
ATOM      2  C   UNL     1      -1.908   5.855  -5.598  0.00  0.00    -0.024 A 
ATOM      3  C   UNL     1      -1.350   7.051  -5.161  0.00  0.00    -0.024 A 
ATOM      4  C   UNL     1      -2.334   8.095  -4.802  0.00  0.00    +0.031 C 
ATOM      5  C   UNL     1       0.024   7.261  -5.195  0.00  0.00    +0.014 A 
ATOM      6  C   UNL     1       0.759   6.380  -5.981  0.00  0.00    +0.079 A 
ATOM      7  C   UNL     1       0.113   5.474  -6.816  0.00  0.00    +0.097 A 
ATOM      8  N   UNL     1       0.663   5.083  -7.992  0.00  0.00    -0.236 NA
ATOM      9  C   UNL     1       1.980   5.289  -8.123  0.00  0.00    +0.173 A 
ATOM     10  C   UNL     1       2.742   5.750  -6.952  0.00  0.00    +0.171 A 
ATOM     11  N   UNL     1       4.074   5.763  -7.021  0.00  0.00    -0.172 NA
ATOM     12  C   UNL     1       4.638   5.433  -8.203  0.00  0.00    +0.373 A 
ATOM     13  O   UNL     1       5.833   5.039  -8.214  0.00  0.00    -0.242 OA
ATOM     14  N   UNL     1       3.942   5.374  -9.352  0.00  0.00    -0.150 NA
ATOM     15  C   UNL     1       2.599   5.350  -9.365  0.00  0.00    +0.304 A 
ATOM     16  O   UNL     1       1.910   5.563 -10.393  0.00  0.00    -0.263 OA
ATOM     17  N   UNL     1       2.102   6.334  -5.933  0.00  0.00    -0.307 N 
ATOM     18  C   UNL     1      -1.141   5.031  -6.412  0.00  0.00    +0.016 A 
ENDROOT
BRANCH  17  19
ATOM     19  C   UNL     1       2.762   6.999  -4.852  0.00  0.00    +0.143 C 
BRANCH  19  20
ATOM     20  C   UNL     1       3.202   5.782  -3.844  0.00  0.00    +0.207 C 
ATOM     21  O   UNL     1       1.767   5.436  -3.522  0.00  0.00    -0.218 OA
BRANCH  20  22
ATOM     22  C   UNL     1       3.383   6.765  -2.440  0.00  0.00    +0.217 C 
ATOM     23  O   UNL     1       4.690   7.373  -2.842  0.00  0.00    -0.218 OA
BRANCH  22  24
ATOM     24  C   UNL     1       4.071   5.467  -1.552  0.00  0.00    +0.217 C 
ATOM     25  O   UNL     1       2.834   5.364  -0.687  0.00  0.00    -0.217 OA
BRANCH  24  26
ATOM     26  C   UNL     1       4.787   6.441  -0.452  0.00  0.00    +0.217 C 
ATOM     27  O   UNL     1       4.080   6.390   0.707  0.00  0.00    -0.217 OA
ENDBRANCH  24  26
ENDBRANCH  22  24
ENDBRANCH  20  22
ENDBRANCH  19  20
ENDBRANCH  17  19
TORSDOF 5
ENDMDL
MODEL 7
REMARK VINA RESULT:      -8.4      2.043      5.309
REMARK  Name = 
REMARK  5 active torsions:
REMARK  status: ('A' for Active; 'I' for Inactive)
REMARK    1  A    between atoms: N_14  and  C_15
REMARK    2  A    between atoms: C_15  and  C_16
REMARK    3  A    between atoms: C_16  and  C_18
REMARK    4  A    between atoms: C_18  and  C_20
REMARK    5  A    between atoms: C_20  and  C_22
REMARK                            x       y       z     vdW  Elec       q    Type
REMARK                         _______ _______ _______ _____ _____    ______ ____
ROOT
ATOM      1  C   UNL     1       7.848   5.346 -10.613  0.00  0.00    +0.031 C 
ATOM      2  C   UNL     1       6.704   6.023  -9.924  0.00  0.00    -0.024 A 
ATOM      3  C   UNL     1       6.084   7.079 -10.582  0.00  0.00    -0.024 A 
ATOM      4  C   UNL     1       7.007   8.114 -11.094  0.00  0.00    +0.031 C 
ATOM      5  C   UNL     1       4.699   7.188 -10.624  0.00  0.00    +0.014 A 
ATOM      6  C   UNL     1       3.994   6.406  -9.714  0.00  0.00    +0.079 A 
ATOM      7  C   UNL     1       4.667   5.712  -8.714  0.00  0.00    +0.097 A 
ATOM      8  N   UNL     1       4.098   5.493  -7.503  0.00  0.00    -0.236 NA
ATOM      9  C   UNL     1       2.766   5.620  -7.447  0.00  0.00    +0.173 A 
ATOM     10  C   UNL     1       2.022   5.809  -8.702  0.00  0.00    +0.171 A 
ATOM     11  N   UNL     1       0.691   5.735  -8.674  0.00  0.00    -0.172 NA
ATOM     12  C   UNL     1       0.103   5.576  -7.468  0.00  0.00    +0.373 A 
ATOM     13  O   UNL     1      -1.062   5.102  -7.420  0.00  0.00    -0.242 OA
ATOM     14  N   UNL     1       0.755   5.772  -6.308  0.00  0.00    -0.150 NA
ATOM     15  C   UNL     1       2.094   5.851  -6.253  0.00  0.00    +0.304 A 
ATOM     16  O   UNL     1       2.725   6.292  -5.261  0.00  0.00    -0.263 OA
ATOM     17  N   UNL     1       2.661   6.252  -9.790  0.00  0.00    -0.307 N 
ATOM     18  C   UNL     1       5.964   5.300  -8.998  0.00  0.00    +0.016 A 
ENDROOT
BRANCH  17  19
ATOM     19  C   UNL     1       2.001   6.666 -10.990  0.00  0.00    +0.143 C 
BRANCH  19  20
ATOM     20  C   UNL     1       2.280   5.439 -12.043  0.00  0.00    +0.207 C 
ATOM     21  O   UNL     1       2.831   6.372 -13.094  0.00  0.00    -0.218 OA
BRANCH  20  22
ATOM     22  C   UNL     1       0.702   5.432 -12.736  0.00  0.00    +0.217 C 
ATOM     23  O   UNL     1       0.140   4.376 -11.836  0.00  0.00    -0.218 OA
BRANCH  22  24
ATOM     24  C   UNL     1       1.192   4.348 -13.975  0.00  0.00    +0.217 C 
ATOM     25  O   UNL     1       0.788   5.341 -15.044  0.00  0.00    -0.217 OA
BRANCH  24  26
ATOM     26  C   UNL     1      -0.266   3.614 -14.074  0.00  0.00    +0.217 C 
ATOM     27  O   UNL     1      -0.511   3.296 -15.372  0.00  0.00    -0.217 OA
ENDBRANCH  24  26
ENDBRANCH  22  24
ENDBRANCH  20  22
ENDBRANCH  19  20
ENDBRANCH  17  19
TORSDOF 5
ENDMDL
MODEL 8
REMARK VINA RESULT:      -8.3      2.614      5.316
REMARK  Name = 
REMARK  5 active torsions:
REMARK  status: ('A' for Active; 'I' for Inactive)
REMARK    1  A    between atoms: N_14  and  C_15
REMARK    2  A    between atoms: C_15  and  C_16
REMARK    3  A    between atoms: C_16  and  C_18
REMARK    4  A    between atoms: C_18  and  C_20
REMARK    5  A    between atoms: C_20  and  C_22
REMARK                            x       y       z     vdW  Elec       q    Type
REMARK                         _______ _______ _______ _____ _____    ______ ____
ROOT
ATOM      1  C   UNL     1       4.795   4.746  -3.601  0.00  0.00    +0.031 C 
ATOM      2  C   UNL     1       3.932   5.431  -4.613  0.00  0.00    -0.024 A 
ATOM      3  C   UNL     1       4.385   6.633  -5.145  0.00  0.00    -0.024 A 
ATOM      4  C   UNL     1       4.818   7.628  -4.140  0.00  0.00    +0.031 C 
ATOM      5  C   UNL     1       4.304   6.894  -6.508  0.00  0.00    +0.014 A 
ATOM      6  C   UNL     1       3.461   6.066  -7.242  0.00  0.00    +0.079 A 
ATOM      7  C   UNL     1       2.623   5.164  -6.595  0.00  0.00    +0.097 A 
ATOM      8  N   UNL     1       1.414   4.830  -7.110  0.00  0.00    -0.236 NA
ATOM      9  C   UNL     1       1.238   5.089  -8.412  0.00  0.00    +0.173 A 
ATOM     10  C   UNL     1       2.392   5.540  -9.204  0.00  0.00    +0.171 A 
ATOM     11  N   UNL     1       2.271   5.605 -10.531  0.00  0.00    -0.172 NA
ATOM     12  C   UNL     1       1.057   5.334 -11.058  0.00  0.00    +0.373 A 
ATOM     13  O   UNL     1       0.986   4.985 -12.265  0.00  0.00    -0.242 OA
ATOM     14  N   UNL     1      -0.065   5.285 -10.318  0.00  0.00    -0.150 NA
ATOM     15  C   UNL     1      -0.026   5.213  -8.978  0.00  0.00    +0.304 A 
ATOM     16  O   UNL     1      -1.018   5.432  -8.240  0.00  0.00    -0.263 OA
ATOM     17  N   UNL     1       3.454   6.068  -8.586  0.00  0.00    -0.307 N 
ATOM     18  C   UNL     1       3.061   4.662  -5.374  0.00  0.00    +0.016 A 
ENDROOT
BRANCH  17  19
ATOM     19  C   UNL     1       4.530   6.723  -9.266  0.00  0.00    +0.143 C 
BRANCH  19  20
ATOM     20  C   UNL     1       5.419   5.491  -9.884  0.00  0.00    +0.207 C 
ATOM     21  O   UNL     1       6.464   5.609  -8.800  0.00  0.00    -0.218 OA
BRANCH  20  22
ATOM     22  C   UNL     1       6.319   6.456 -10.993  0.00  0.00    +0.217 C 
ATOM     23  O   UNL     1       5.223   6.598 -12.002  0.00  0.00    -0.218 OA
BRANCH  22  24
ATOM     24  C   UNL     1       7.026   5.066 -11.712  0.00  0.00    +0.217 C 
ATOM     25  O   UNL     1       8.359   5.372 -11.065  0.00  0.00    -0.217 OA
BRANCH  24  26
ATOM     26  C   UNL     1       7.480   5.854 -13.072  0.00  0.00    +0.217 C 
ATOM     27  O   UNL     1       7.261   5.046 -14.142  0.00  0.00    -0.217 OA
ENDBRANCH  24  26
ENDBRANCH  22  24
ENDBRANCH  20  22
ENDBRANCH  19  20
ENDBRANCH  17  19
TORSDOF 5
ENDMDL
MODEL 9
REMARK VINA RESULT:      -8.3      4.996      9.388
REMARK  Name = 
REMARK  5 active torsions:
REMARK  status: ('A' for Active; 'I' for Inactive)
REMARK    1  A    between atoms: N_14  and  C_15
REMARK    2  A    between atoms: C_15  and  C_16
REMARK    3  A    between atoms: C_16  and  C_18
REMARK    4  A    between atoms: C_18  and  C_20
REMARK    5  A    between atoms: C_20  and  C_22
REMARK                            x       y       z     vdW  Elec       q    Type
REMARK                         _______ _______ _______ _____ _____    ______ ____
ROOT
ATOM      1  C   UNL     1       5.193   7.425  -4.933  0.00  0.00    +0.031 C 
ATOM      2  C   UNL     1       4.007   6.512  -4.902  0.00  0.00    -0.024 A 
ATOM      3  C   UNL     1       4.007   5.481  -3.969  0.00  0.00    -0.024 A 
ATOM      4  C   UNL     1       5.236   4.660  -3.957  0.00  0.00    +0.031 C 
ATOM      5  C   UNL     1       2.875   5.192  -3.215  0.00  0.00    +0.014 A 
ATOM      6  C   UNL     1       1.680   5.740  -3.668  0.00  0.00    +0.079 A 
ATOM      7  C   UNL     1       1.621   6.377  -4.904  0.00  0.00    +0.097 A 
ATOM      8  N   UNL     1       0.495   6.350  -5.658  0.00  0.00    -0.236 NA
ATOM      9  C   UNL     1      -0.637   6.037  -5.014  0.00  0.00    +0.173 A 
ATOM     10  C   UNL     1      -0.606   5.921  -3.548  0.00  0.00    +0.171 A 
ATOM     11  N   UNL     1      -1.761   5.809  -2.891  0.00  0.00    -0.172 NA
ATOM     12  C   UNL     1      -2.889   5.721  -3.628  0.00  0.00    +0.373 A 
ATOM     13  O   UNL     1      -3.988   6.022  -3.092  0.00  0.00    -0.242 OA
ATOM     14  N   UNL     1      -2.880   5.460  -4.947  0.00  0.00    -0.150 NA
ATOM     15  C   UNL     1      -1.758   5.556  -5.680  0.00  0.00    +0.304 A 
ATOM     16  O   UNL     1      -1.637   5.074  -6.832  0.00  0.00    -0.263 OA
ATOM     17  N   UNL     1       0.560   5.721  -2.924  0.00  0.00    -0.307 N 
ATOM     18  C   UNL     1       2.784   6.996  -5.348  0.00  0.00    +0.016 A 
ENDROOT
BRANCH  17  19
ATOM     19  C   UNL     1       0.677   5.388  -1.538  0.00  0.00    +0.143 C 
BRANCH  19  20
ATOM     20  C   UNL     1       1.271   6.753  -0.849  0.00  0.00    +0.207 C 
ATOM     21  O   UNL     1       2.275   5.983  -0.024  0.00  0.00    -0.218 OA
BRANCH  20  22
ATOM     22  C   UNL     1       0.124   6.823   0.435  0.00  0.00    +0.217 C 
ATOM     23  O   UNL     1      -0.950   7.506  -0.352  0.00  0.00    -0.218 OA
BRANCH  22  24
ATOM     24  C   UNL     1       0.820   8.267   1.051  0.00  0.00    +0.217 C 
ATOM     25  O   UNL     1       1.187   7.574   2.345  0.00  0.00    -0.217 OA
BRANCH  24  26
ATOM     26  C   UNL     1      -0.579   8.802   1.708  0.00  0.00    +0.217 C 
ATOM     27  O   UNL     1      -0.671  10.144   1.513  0.00  0.00    -0.217 OA
ENDBRANCH  24  26
ENDBRANCH  22  24
ENDBRANCH  20  22
ENDBRANCH  19  20
ENDBRANCH  17  19
TORSDOF 5
ENDMDL
