MODEL 1
REMARK VINA RESULT:      -7.3      0.000      0.000
REMARK  Name = 
REMARK  2 active torsions:
REMARK  status: ('A' for Active; 'I' for Inactive)
REMARK    1  A    between atoms: C_2  and  C_4
REMARK    2  A    between atoms: C_4  and  N_5
REMARK                            x       y       z     vdW  Elec       q    Type
REMARK                         _______ _______ _______ _____ _____    ______ ____
ROOT
ATOM      1  N   UNL     1       4.943   5.550 -10.090  0.00  0.00    -0.309 N 
ATOM      2  C   UNL     1       3.621   5.849 -10.139  0.00  0.00    +0.083 A 
ATOM      3  C   UNL     1       2.728   6.127 -11.164  0.00  0.00    +0.035 A 
ATOM      4  C   UNL     1       1.421   6.441 -10.811  0.00  0.00    +0.084 A 
ATOM      5  N   UNL     1       1.168   7.066  -9.636  0.00  0.00    -0.226 NA
ATOM      6  C   UNL     1       2.115   7.082  -8.686  0.00  0.00    +0.189 A 
ATOM      7  N   UNL     1       2.129   8.100  -7.682  0.00  0.00    -0.106 NA
ATOM      8  C   UNL     1       0.450   6.282 -11.774  0.00  0.00    +0.019 A 
ATOM      9  C   UNL     1       0.843   6.079 -13.088  0.00  0.00    +0.002 A 
ATOM     10  C   UNL     1       2.112   5.661 -13.392  0.00  0.00    +0.000 A 
ATOM     11  C   UNL     1       3.108   5.802 -12.439  0.00  0.00    +0.003 A 
ATOM     12  C   UNL     1       3.211   6.248  -8.873  0.00  0.00    +0.133 A 
ATOM     13  N   UNL     1       4.193   5.867  -8.057  0.00  0.00    -0.221 NA
ATOM     14  C   UNL     1       5.187   5.313  -8.793  0.00  0.00    +0.179 A 
ENDROOT
BRANCH   1  15
ATOM     15  C   UNL     1       5.810   5.603 -11.230  0.00  0.00    +0.108 C 
BRANCH  15  17
ATOM     16  C   UNL     1       6.464   8.025 -11.437  0.00  0.00    +0.002 C 
ATOM     17  C   UNL     1       6.897   6.623 -11.143  0.00  0.00    +0.023 C 
ATOM     18  C   UNL     1       8.111   6.305 -11.965  0.00  0.00    +0.002 C 
ENDBRANCH  15  17
ENDBRANCH   1  15
TORSDOF 2
ENDMDL
MODEL 2
REMARK VINA RESULT:      -7.2      3.240      5.605
REMARK  Name = 
REMARK  2 active torsions:
REMARK  status: ('A' for Active; 'I' for Inactive)
REMARK    1  A    between atoms: C_2  and  C_4
REMARK    2  A    between atoms: C_4  and  N_5
REMARK                            x       y       z     vdW  Elec       q    Type
REMARK                         _______ _______ _______ _____ _____    ______ ____
ROOT
ATOM      1  N   UNL     1       1.207   4.925  -8.749  0.00  0.00    -0.309 N 
ATOM      2  C   UNL     1       1.043   5.282  -7.450  0.00  0.00    +0.083 A 
ATOM      3  C   UNL     1      -0.040   5.694  -6.688  0.00  0.00    +0.035 A 
ATOM      4  C   UNL     1       0.196   6.025  -5.359  0.00  0.00    +0.084 A 
ATOM      5  N   UNL     1       1.393   6.543  -4.993  0.00  0.00    -0.226 NA
ATOM      6  C   UNL     1       2.439   6.428  -5.826  0.00  0.00    +0.189 A 
ATOM      7  N   UNL     1       3.536   7.343  -5.756  0.00  0.00    -0.106 NA
ATOM      8  C   UNL     1      -0.878   6.000  -4.500  0.00  0.00    +0.019 A 
ATOM      9  C   UNL     1      -2.155   5.910  -5.033  0.00  0.00    +0.002 A 
ATOM     10  C   UNL     1      -2.358   5.472  -6.316  0.00  0.00    +0.000 A 
ATOM     11  C   UNL     1      -1.292   5.479  -7.200  0.00  0.00    +0.003 A 
ATOM     12  C   UNL     1       2.290   5.572  -6.911  0.00  0.00    +0.133 A 
ATOM     13  N   UNL     1       3.167   5.074  -7.782  0.00  0.00    -0.221 NA
ATOM     14  C   UNL     1       2.493   4.554  -8.837  0.00  0.00    +0.179 A 
ENDROOT
BRANCH   1  15
ATOM     15  C   UNL     1       0.180   5.053  -9.740  0.00  0.00    +0.108 C 
BRANCH  15  17
ATOM     16  C   UNL     1      -0.222   7.084 -11.172  0.00  0.00    +0.002 C 
ATOM     17  C   UNL     1       0.573   5.836 -10.950  0.00  0.00    +0.023 C 
ATOM     18  C   UNL     1       0.597   5.040 -12.221  0.00  0.00    +0.002 C 
ENDBRANCH  15  17
ENDBRANCH   1  15
TORSDOF 2
ENDMDL
MODEL 3
REMARK VINA RESULT:      -7.2      4.859      8.297
REMARK  Name = 
REMARK  2 active torsions:
REMARK  status: ('A' for Active; 'I' for Inactive)
REMARK    1  A    between atoms: C_2  and  C_4
REMARK    2  A    between atoms: C_4  and  N_5
REMARK                            x       y       z     vdW  Elec       q    Type
REMARK                         _______ _______ _______ _____ _____    ______ ____
ROOT
ATOM      1  N   UNL     1      -0.269   5.645  -5.147  0.00  0.00    -0.309 N 
ATOM      2  C   UNL     1       1.024   6.047  -5.226  0.00  0.00    +0.083 A 
ATOM      3  C   UNL     1       1.959   6.493  -4.302  0.00  0.00    +0.035 A 
ATOM      4  C   UNL     1       3.209   6.867  -4.780  0.00  0.00    +0.084 A 
ATOM      5  N   UNL     1       3.330   7.387  -6.025  0.00  0.00    -0.226 NA
ATOM      6  C   UNL     1       2.323   7.235  -6.899  0.00  0.00    +0.189 A 
ATOM      7  N   UNL     1       2.159   8.142  -7.992  0.00  0.00    -0.106 NA
ATOM      8  C   UNL     1       4.251   6.879  -3.882  0.00  0.00    +0.019 A 
ATOM      9  C   UNL     1       3.966   6.782  -2.529  0.00  0.00    +0.002 A 
ATOM     10  C   UNL     1       2.758   6.303  -2.092  0.00  0.00    +0.000 A 
ATOM     11  C   UNL     1       1.693   6.271  -2.977  0.00  0.00    +0.003 A 
ATOM     12  C   UNL     1       1.315   6.345  -6.552  0.00  0.00    +0.133 A 
ATOM     13  N   UNL     1       0.315   5.810  -7.252  0.00  0.00    -0.221 NA
ATOM     14  C   UNL     1      -0.579   5.261  -6.394  0.00  0.00    +0.179 A 
ENDROOT
BRANCH   1  15
ATOM     15  C   UNL     1      -1.058   5.749  -3.956  0.00  0.00    +0.108 C 
BRANCH  15  17
ATOM     16  C   UNL     1      -1.938   8.078  -4.323  0.00  0.00    +0.002 C 
ATOM     17  C   UNL     1      -2.253   6.637  -4.072  0.00  0.00    +0.023 C 
ATOM     18  C   UNL     1      -3.210   6.540  -2.921  0.00  0.00    +0.002 C 
ENDBRANCH  15  17
ENDBRANCH   1  15
TORSDOF 2
ENDMDL
MODEL 4
REMARK VINA RESULT:      -7.1      5.977      7.763
REMARK  Name = 
REMARK  2 active torsions:
REMARK  status: ('A' for Active; 'I' for Inactive)
REMARK    1  A    between atoms: C_2  and  C_4
REMARK    2  A    between atoms: C_4  and  N_5
REMARK                            x       y       z     vdW  Elec       q    Type
REMARK                         _______ _______ _______ _____ _____    ______ ____
ROOT
ATOM      1  N   UNL     1       0.980   5.517  -2.647  0.00  0.00    -0.309 N 
ATOM      2  C   UNL     1      -0.067   5.438  -3.507  0.00  0.00    +0.083 A 
ATOM      3  C   UNL     1      -0.223   5.670  -4.866  0.00  0.00    +0.035 A 
ATOM      4  C   UNL     1      -1.496   5.522  -5.403  0.00  0.00    +0.084 A 
ATOM      5  N   UNL     1      -2.586   5.783  -4.641  0.00  0.00    -0.226 NA
ATOM      6  C   UNL     1      -2.450   5.858  -3.308  0.00  0.00    +0.189 A 
ATOM      7  N   UNL     1      -3.384   6.597  -2.517  0.00  0.00    -0.106 NA
ATOM      8  C   UNL     1      -1.591   5.310  -6.759  0.00  0.00    +0.019 A 
ATOM      9  C   UNL     1      -0.467   5.514  -7.544  0.00  0.00    +0.002 A 
ATOM     10  C   UNL     1       0.787   5.543  -6.994  0.00  0.00    +0.000 A 
ATOM     11  C   UNL     1       0.912   5.747  -5.629  0.00  0.00    +0.003 A 
ATOM     12  C   UNL     1      -1.245   5.423  -2.771  0.00  0.00    +0.133 A 
ATOM     13  N   UNL     1      -0.866   5.165  -1.520  0.00  0.00    -0.221 NA
ATOM     14  C   UNL     1       0.487   5.083  -1.477  0.00  0.00    +0.179 A 
ENDROOT
BRANCH   1  15
ATOM     15  C   UNL     1       2.259   6.054  -3.004  0.00  0.00    +0.108 C 
BRANCH  15  17
ATOM     16  C   UNL     1       4.144   5.423  -1.459  0.00  0.00    +0.002 C 
ATOM     17  C   UNL     1       3.415   5.148  -2.737  0.00  0.00    +0.023 C 
ATOM     18  C   UNL     1       4.409   5.066  -3.858  0.00  0.00    +0.002 C 
ENDBRANCH  15  17
ENDBRANCH   1  15
TORSDOF 2
ENDMDL
MODEL 5
REMARK VINA RESULT:      -7.1      2.178      4.817
REMARK  Name = 
REMARK  2 active torsions:
REMARK  status: ('A' for Active; 'I' for Inactive)
REMARK    1  A    between atoms: C_2  and  C_4
REMARK    2  A    between atoms: C_4  and  N_5
REMARK                            x       y       z     vdW  Elec       q    Type
REMARK                         _______ _______ _______ _____ _____    ______ ____
ROOT
ATOM      1  N   UNL     1       3.877   5.025  -7.819  0.00  0.00    -0.309 N 
ATOM      2  C   UNL     1       4.154   5.142  -9.142  0.00  0.00    +0.083 A 
ATOM      3  C   UNL     1       5.254   5.578  -9.867  0.00  0.00    +0.035 A 
ATOM      4  C   UNL     1       5.146   5.594 -11.253  0.00  0.00    +0.084 A 
ATOM      5  N   UNL     1       3.943   5.814 -11.836  0.00  0.00    -0.226 NA
ATOM      6  C   UNL     1       2.827   5.685 -11.102  0.00  0.00    +0.189 A 
ATOM      7  N   UNL     1       1.624   6.362 -11.473  0.00  0.00    -0.106 NA
ATOM      8  C   UNL     1       6.315   5.588 -11.979  0.00  0.00    +0.019 A 
ATOM      9  C   UNL     1       7.510   5.828 -11.318  0.00  0.00    +0.002 A 
ATOM     10  C   UNL     1       7.608   5.694  -9.957  0.00  0.00    +0.000 A 
ATOM     11  C   UNL     1       6.446   5.689  -9.202  0.00  0.00    +0.003 A 
ATOM     12  C   UNL     1       2.959   5.099  -9.849  0.00  0.00    +0.133 A 
ATOM     13  N   UNL     1       2.061   4.637  -8.980  0.00  0.00    -0.221 NA
ATOM     14  C   UNL     1       2.662   4.461  -7.778  0.00  0.00    +0.179 A 
ENDROOT
BRANCH   1  15
ATOM     15  C   UNL     1       4.735   5.523  -6.785  0.00  0.00    +0.108 C 
BRANCH  15  17
ATOM     16  C   UNL     1       4.199   7.185  -4.972  0.00  0.00    +0.002 C 
ATOM     17  C   UNL     1       4.055   5.786  -5.481  0.00  0.00    +0.023 C 
ATOM     18  C   UNL     1       4.424   4.828  -4.387  0.00  0.00    +0.002 C 
ENDBRANCH  15  17
ENDBRANCH   1  15
TORSDOF 2
ENDMDL
MODEL 6
REMARK VINA RESULT:      -6.9      6.581      8.117
REMARK  Name = 
REMARK  2 active torsions:
REMARK  status: ('A' for Active; 'I' for Inactive)
REMARK    1  A    between atoms: C_2  and  C_4
REMARK    2  A    between atoms: C_4  and  N_5
REMARK                            x       y       z     vdW  Elec       q    Type
REMARK                         _______ _______ _______ _____ _____    ______ ____
ROOT
ATOM      1  N   UNL     1       1.900   5.702  -2.802  0.00  0.00    -0.309 N 
ATOM      2  C   UNL     1       0.552   5.555  -2.771  0.00  0.00    +0.083 A 
ATOM      3  C   UNL     1      -0.471   5.800  -3.676  0.00  0.00    +0.035 A 
ATOM      4  C   UNL     1      -1.773   5.559  -3.256  0.00  0.00    +0.084 A 
ATOM      5  N   UNL     1      -2.104   5.713  -1.951  0.00  0.00    -0.226 NA
ATOM      6  C   UNL     1      -1.129   5.772  -1.031  0.00  0.00    +0.189 A 
ATOM      7  N   UNL     1      -1.346   6.415   0.227  0.00  0.00    -0.106 NA
ATOM      8  C   UNL     1      -2.727   5.367  -4.229  0.00  0.00    +0.019 A 
ATOM      9  C   UNL     1      -2.409   5.678  -5.542  0.00  0.00    +0.002 A 
ATOM     10  C   UNL     1      -1.105   5.800  -5.947  0.00  0.00    +0.000 A 
ATOM     11  C   UNL     1      -0.123   5.986  -4.987  0.00  0.00    +0.003 A 
ATOM     12  C   UNL     1       0.152   5.428  -1.447  0.00  0.00    +0.133 A 
ATOM     13  N   UNL     1       1.272   5.176  -0.771  0.00  0.00    -0.221 NA
ATOM     14  C   UNL     1       2.320   5.206  -1.629  0.00  0.00    +0.179 A 
ENDROOT
BRANCH   1  15
ATOM     15  C   UNL     1       2.601   6.351  -3.871  0.00  0.00    +0.108 C 
BRANCH  15  17
ATOM     16  C   UNL     1       4.812   7.510  -4.195  0.00  0.00    +0.002 C 
ATOM     17  C   UNL     1       4.089   6.265  -3.786  0.00  0.00    +0.023 C 
ATOM     18  C   UNL     1       4.684   5.095  -4.512  0.00  0.00    +0.002 C 
ENDBRANCH  15  17
ENDBRANCH   1  15
TORSDOF 2
ENDMDL
MODEL 7
REMARK VINA RESULT:      -6.7      4.213      6.107
REMARK  Name = 
REMARK  2 active torsions:
REMARK  status: ('A' for Active; 'I' for Inactive)
REMARK    1  A    between atoms: C_2  and  C_4
REMARK    2  A    between atoms: C_4  and  N_5
REMARK                            x       y       z     vdW  Elec       q    Type
REMARK                         _______ _______ _______ _____ _____    ______ ____
ROOT
ATOM      1  N   UNL     1       1.805   4.914  -7.016  0.00  0.00    -0.309 N 
ATOM      2  C   UNL     1       1.096   5.067  -5.869  0.00  0.00    +0.083 A 
ATOM      3  C   UNL     1      -0.186   5.506  -5.574  0.00  0.00    +0.035 A 
ATOM      4  C   UNL     1      -0.554   5.566  -4.235  0.00  0.00    +0.084 A 
ATOM      5  N   UNL     1       0.380   5.822  -3.287  0.00  0.00    -0.226 NA
ATOM      6  C   UNL     1       1.679   5.690  -3.595  0.00  0.00    +0.189 A 
ATOM      7  N   UNL     1       2.682   6.398  -2.862  0.00  0.00    -0.106 NA
ATOM      8  C   UNL     1      -1.899   5.562  -3.947  0.00  0.00    +0.019 A 
ATOM      9  C   UNL     1      -2.801   5.763  -4.981  0.00  0.00    +0.002 A 
ATOM     10  C   UNL     1      -2.432   5.586  -6.289  0.00  0.00    +0.000 A 
ATOM     11  C   UNL     1      -1.083   5.578  -6.606  0.00  0.00    +0.003 A 
ATOM     12  C   UNL     1       1.981   5.064  -4.798  0.00  0.00    +0.133 A 
ATOM     13  N   UNL     1       3.123   4.591  -5.297  0.00  0.00    -0.221 NA
ATOM     14  C   UNL     1       2.965   4.369  -6.624  0.00  0.00    +0.179 A 
ENDROOT
BRANCH   1  15
ATOM     15  C   UNL     1       1.346   5.367  -8.296  0.00  0.00    +0.108 C 
BRANCH  15  17
ATOM     16  C   UNL     1       3.276   6.502  -9.446  0.00  0.00    +0.002 C 
ATOM     17  C   UNL     1       1.954   6.649  -8.761  0.00  0.00    +0.023 C 
ATOM     18  C   UNL     1       2.070   7.700  -7.697  0.00  0.00    +0.002 C 
ENDBRANCH  15  17
ENDBRANCH   1  15
TORSDOF 2
ENDMDL
MODEL 8
REMARK VINA RESULT:      -6.7      3.963      6.142
REMARK  Name = 
REMARK  2 active torsions:
REMARK  status: ('A' for Active; 'I' for Inactive)
REMARK    1  A    between atoms: C_2  and  C_4
REMARK    2  A    between atoms: C_4  and  N_5
REMARK                            x       y       z     vdW  Elec       q    Type
REMARK                         _______ _______ _______ _____ _____    ______ ____
ROOT
ATOM      1  N   UNL     1       2.386   6.836  -6.201  0.00  0.00    -0.309 N 
ATOM      2  C   UNL     1       1.142   6.492  -6.619  0.00  0.00    +0.083 A 
ATOM      3  C   UNL     1       0.010   5.999  -5.986  0.00  0.00    +0.035 A 
ATOM      4  C   UNL     1      -1.098   5.717  -6.777  0.00  0.00    +0.084 A 
ATOM      5  N   UNL     1      -0.929   5.315  -8.060  0.00  0.00    -0.226 NA
ATOM      6  C   UNL     1       0.258   5.507  -8.655  0.00  0.00    +0.189 A 
ATOM      7  N   UNL     1       0.662   4.697  -9.761  0.00  0.00    -0.106 NA
ATOM      8  C   UNL     1      -2.323   5.662  -6.153  0.00  0.00    +0.019 A 
ATOM      9  C   UNL     1      -2.364   5.626  -4.768  0.00  0.00    +0.002 A 
ATOM     10  C   UNL     1      -1.287   6.019  -4.016  0.00  0.00    +0.000 A 
ATOM     11  C   UNL     1      -0.042   6.091  -4.621  0.00  0.00    +0.003 A 
ATOM     12  C   UNL     1       1.168   6.325  -7.998  0.00  0.00    +0.133 A 
ATOM     13  N   UNL     1       2.313   6.883  -8.390  0.00  0.00    -0.221 NA
ATOM     14  C   UNL     1       2.987   7.319  -7.298  0.00  0.00    +0.179 A 
ENDROOT
BRANCH   1  15
ATOM     15  C   UNL     1       2.870   6.597  -4.874  0.00  0.00    +0.108 C 
BRANCH  15  17
ATOM     16  C   UNL     1       4.854   5.294  -4.035  0.00  0.00    +0.002 C 
ATOM     17  C   UNL     1       4.356   6.507  -4.757  0.00  0.00    +0.023 C 
ATOM     18  C   UNL     1       5.005   7.725  -4.169  0.00  0.00    +0.002 C 
ENDBRANCH  15  17
ENDBRANCH   1  15
TORSDOF 2
ENDMDL
MODEL 9
REMARK VINA RESULT:      -6.7      5.095      7.912
REMARK  Name = 
REMARK  2 active torsions:
REMARK  status: ('A' for Active; 'I' for Inactive)
REMARK    1  A    between atoms: C_2  and  C_4
REMARK    2  A    between atoms: C_4  and  N_5
REMARK                            x       y       z     vdW  Elec       q    Type
REMARK                         _______ _______ _______ _____ _____    ______ ____
ROOT
ATOM      1  N   UNL     1       0.123   5.872  -3.175  0.00  0.00    -0.309 N 
ATOM      2  C   UNL     1       0.846   5.777  -4.319  0.00  0.00    +0.083 A 
ATOM      3  C   UNL     1       0.546   5.437  -5.630  0.00  0.00    +0.035 A 
ATOM      4  C   UNL     1       1.593   5.410  -6.544  0.00  0.00    +0.084 A 
ATOM      5  N   UNL     1       2.843   5.087  -6.132  0.00  0.00    -0.226 NA
ATOM      6  C   UNL     1       3.130   5.119  -4.822  0.00  0.00    +0.189 A 
ATOM      7  N   UNL     1       4.202   4.340  -4.287  0.00  0.00    -0.106 NA
ATOM      8  C   UNL     1       1.272   5.516  -7.877  0.00  0.00    +0.019 A 
ATOM      9  C   UNL     1      -0.055   5.381  -8.255  0.00  0.00    +0.002 A 
ATOM     10  C   UNL     1      -1.070   5.525  -7.345  0.00  0.00    +0.000 A 
ATOM     11  C   UNL     1      -0.773   5.430  -5.995  0.00  0.00    +0.003 A 
ATOM     12  C   UNL     1       2.194   5.716  -3.986  0.00  0.00    +0.133 A 
ATOM     13  N   UNL     1       2.251   6.100  -2.711  0.00  0.00    -0.221 NA
ATOM     14  C   UNL     1       0.993   6.329  -2.263  0.00  0.00    +0.179 A 
ENDROOT
BRANCH   1  15
ATOM     15  C   UNL     1      -1.243   5.451  -3.066  0.00  0.00    +0.108 C 
BRANCH  15  17
ATOM     16  C   UNL     1      -3.647   6.124  -2.740  0.00  0.00    +0.002 C 
ATOM     17  C   UNL     1      -2.210   6.544  -2.750  0.00  0.00    +0.023 C 
ATOM     18  C   UNL     1      -2.065   7.766  -3.608  0.00  0.00    +0.002 C 
ENDBRANCH  15  17
ENDBRANCH   1  15
TORSDOF 2
ENDMDL
