MODEL 1
REMARK VINA RESULT:      -4.6      0.000      0.000
REMARK  Name = 
REMARK  7 active torsions:
REMARK  status: ('A' for Active; 'I' for Inactive)
REMARK    1  A    between atoms: C_2  and  C_3
REMARK    2  A    between atoms: C_9  and  O_10
REMARK    3  A    between atoms: O_10  and  C_11
REMARK    4  A    between atoms: C_13  and  O_15
REMARK    5  A    between atoms: C_24  and  O_25
REMARK    6  A    between atoms: O_25  and  C_26
REMARK    7  A    between atoms: C_31  and  N_32
REMARK                            x       y       z     vdW  Elec       q    Type
REMARK                         _______ _______ _______ _____ _____    ______ ____
ROOT
ATOM      1  C   UNL     1      -1.136   5.722  -4.989  0.00  0.00    +0.199 C 
ATOM      2  C   UNL     1      -2.291   5.810  -3.826  0.00  0.00    +0.191 C 
ATOM      3  O   UNL     1      -3.358   5.129  -4.309  0.00  0.00    -0.219 OA
ATOM      4  C   UNL     1      -2.486   7.174  -3.415  0.00  0.00    +0.039 C 
ATOM      5  C   UNL     1      -1.639   4.904  -2.638  0.00  0.00    +0.190 C 
ATOM      6  O   UNL     1      -2.913   4.922  -1.837  0.00  0.00    -0.220 OA
ATOM      7  C   UNL     1      -0.820   6.217  -1.878  0.00  0.00    +0.091 C 
ATOM      8  C   UNL     1      -1.958   6.624  -0.799  0.00  0.00    +0.010 C 
ATOM      9  C   UNL     1      -0.085   5.233  -0.882  0.00  0.00    +0.152 C 
ATOM     10  O   UNL     1       0.237   4.133  -1.224  0.00  0.00    -0.296 OA
ATOM     11  C   UNL     1       1.143   5.837  -0.057  0.00  0.00    +0.060 C 
ATOM     12  C   UNL     1       0.200   6.877   0.778  0.00  0.00    +0.008 C 
ATOM     13  C   UNL     1       1.605   6.970  -1.147  0.00  0.00    +0.040 C 
ATOM     14  C   UNL     1       2.914   6.449  -1.425  0.00  0.00    +0.152 C 
ATOM     15  O   UNL     1       3.080   5.163  -1.833  0.00  0.00    -0.223 OA
ATOM     16  C   UNL     1       3.765   6.404  -0.146  0.00  0.00    +0.035 C 
ATOM     17  C   UNL     1       3.849   7.418  -2.339  0.00  0.00    +0.148 C 
ATOM     18  C   UNL     1       2.831   7.584  -3.692  0.00  0.00    +0.058 C 
ATOM     19  C   UNL     1       3.995   8.434  -4.412  0.00  0.00    +0.005 C 
ATOM     20  C   UNL     1       3.149   6.079  -4.364  0.00  0.00    +0.131 C 
ATOM     21  C   UNL     1       1.814   5.992  -5.429  0.00  0.00    +0.126 C 
ATOM     22  C   UNL     1       1.232   4.698  -4.638  0.00  0.00    +0.014 C 
ATOM     23  C   UNL     1       0.895   7.123  -4.802  0.00  0.00    +0.319 C 
ATOM     24  O   UNL     1       1.212   8.179  -5.460  0.00  0.00    -0.250 OA
ATOM     25  O   UNL     1      -0.303   6.824  -4.324  0.00  0.00    -0.450 OA
ENDROOT
BRANCH   1  27
ATOM     26  C   UNL     1      -2.455   6.327  -6.804  0.00  0.00    +0.004 C 
ATOM     27  C   UNL     1      -2.006   6.786  -5.902  0.00  0.00    +0.046 C 
ENDBRANCH   1  27
BRANCH  20  28
ATOM     28  O   UNL     1       3.963   6.507  -5.569  0.00  0.00    -0.332 OA
BRANCH  28  29
ATOM     29  C   UNL     1       3.365   5.276  -6.260  0.00  0.00    +0.238 C 
ATOM     30  O   UNL     1       4.716   4.867  -6.835  0.00  0.00    -0.330 OA
ATOM     31  C   UNL     1       4.928   5.804  -7.984  0.00  0.00    +0.150 C 
ATOM     32  C   UNL     1       6.411   5.153  -8.236  0.00  0.00    +0.035 C 
ATOM     33  C   UNL     1       4.249   4.689  -9.107  0.00  0.00    +0.204 C 
ATOM     34  O   UNL     1       3.987   5.786 -10.112  0.00  0.00    -0.218 OA
ATOM     35  C   UNL     1       2.762   4.877  -8.463  0.00  0.00    +0.128 C 
ATOM     36  C   UNL     1       2.575   3.580  -7.768  0.00  0.00    +0.033 C 
ATOM     37  C   UNL     1       2.801   6.091  -7.606  0.00  0.00    +0.091 C 
BRANCH  35  38
ATOM     38  O   UNL     1       1.868   4.983  -9.444  0.00  0.00    -0.353 OA
ATOM     39  C   UNL     1       0.696   5.493  -8.870  0.00  0.00    +0.174 C 
ENDBRANCH  35  38
ENDBRANCH  28  29
ENDBRANCH  20  28
BRANCH  17  40
ATOM     40  O   UNL     1       3.275   8.722  -1.820  0.00  0.00    -0.328 OA
BRANCH  40  41
ATOM     41  C   UNL     1       4.109   8.987  -0.579  0.00  0.00    +0.268 C 
ATOM     42  C   UNL     1       3.594  10.632  -0.407  0.00  0.00    +0.222 C 
ATOM     43  O   UNL     1       4.406  11.143  -1.548  0.00  0.00    -0.216 OA
ATOM     44  C   UNL     1       4.941  10.874   0.614  0.00  0.00    +0.096 C 
ATOM     45  C   UNL     1       4.811   9.563   1.503  0.00  0.00    +0.048 C 
ATOM     46  C   UNL     1       3.366   8.872   1.712  0.00  0.00    +0.119 C 
ATOM     47  C   UNL     1       2.406  10.222   1.852  0.00  0.00    +0.032 C 
ATOM     48  O   UNL     1       2.924   8.628   0.284  0.00  0.00    -0.331 OA
BRANCH  44  49
ATOM     49  N   UNL     1       4.239  11.824   1.652  0.00  0.00    -0.269 NA
ATOM     50  C   UNL     1       5.173  11.617   2.766  0.00  0.00    +0.090 C 
ATOM     51  C   UNL     1       4.499  13.173   1.205  0.00  0.00    +0.090 C 
ENDBRANCH  44  49
ENDBRANCH  40  41
ENDBRANCH  17  40
TORSDOF 7
ENDMDL
MODEL 2
REMARK VINA RESULT:      -3.5      4.350      8.220
REMARK  Name = 
REMARK  7 active torsions:
REMARK  status: ('A' for Active; 'I' for Inactive)
REMARK    1  A    between atoms: C_2  and  C_3
REMARK    2  A    between atoms: C_9  and  O_10
REMARK    3  A    between atoms: O_10  and  C_11
REMARK    4  A    between atoms: C_13  and  O_15
REMARK    5  A    between atoms: C_24  and  O_25
REMARK    6  A    between atoms: O_25  and  C_26
REMARK    7  A    between atoms: C_31  and  N_32
REMARK                            x       y       z     vdW  Elec       q    Type
REMARK                         _______ _______ _______ _____ _____    ______ ____
ROOT
ATOM      1  C   UNL     1      -0.579   6.209  -5.731  0.00  0.00    +0.199 C 
ATOM      2  C   UNL     1       0.242   6.115  -4.313  0.00  0.00    +0.191 C 
ATOM      3  O   UNL     1      -0.690   5.886  -3.357  0.00  0.00    -0.219 OA
ATOM      4  C   UNL     1       1.108   7.253  -4.158  0.00  0.00    +0.039 C 
ATOM      5  C   UNL     1       1.084   4.732  -4.505  0.00  0.00    +0.190 C 
ATOM      6  O   UNL     1       1.529   4.727  -3.067  0.00  0.00    -0.220 OA
ATOM      7  C   UNL     1       2.460   5.490  -5.214  0.00  0.00    +0.091 C 
ATOM      8  C   UNL     1       3.337   5.713  -3.871  0.00  0.00    +0.010 C 
ATOM      9  C   UNL     1       3.118   4.087  -5.531  0.00  0.00    +0.152 C 
ATOM     10  O   UNL     1       2.447   3.139  -5.816  0.00  0.00    -0.296 OA
ATOM     11  C   UNL     1       4.360   4.091  -6.537  0.00  0.00    +0.060 C 
ATOM     12  C   UNL     1       5.313   4.937  -5.514  0.00  0.00    +0.008 C 
ATOM     13  C   UNL     1       3.938   5.415  -7.404  0.00  0.00    +0.040 C 
ATOM     14  C   UNL     1       3.767   4.769  -8.675  0.00  0.00    +0.152 C 
ATOM     15  O   UNL     1       2.930   3.707  -8.809  0.00  0.00    -0.223 OA
ATOM     16  C   UNL     1       5.075   4.097  -9.123  0.00  0.00    +0.035 C 
ATOM     17  C   UNL     1       3.540   5.784  -9.926  0.00  0.00    +0.148 C 
ATOM     18  C   UNL     1       2.178   6.626  -9.352  0.00  0.00    +0.058 C 
ATOM     19  C   UNL     1       2.126   7.416 -10.755  0.00  0.00    +0.005 C 
ATOM     20  C   UNL     1       1.050   5.427  -9.683  0.00  0.00    +0.131 C 
ATOM     21  C   UNL     1      -0.223   6.002  -8.697  0.00  0.00    +0.126 C 
ATOM     22  C   UNL     1      -0.158   4.662  -7.782  0.00  0.00    +0.014 C 
ATOM     23  C   UNL     1       0.584   7.000  -7.766  0.00  0.00    +0.319 C 
ATOM     24  O   UNL     1       0.486   8.131  -8.366  0.00  0.00    -0.250 OA
ATOM     25  O   UNL     1       0.632   6.805  -6.458  0.00  0.00    -0.450 OA
ENDROOT
BRANCH   1  27
ATOM     26  C   UNL     1      -2.266   7.743  -5.279  0.00  0.00    +0.004 C 
ATOM     27  C   UNL     1      -1.160   7.683  -5.270  0.00  0.00    +0.046 C 
ENDBRANCH   1  27
BRANCH  20  28
ATOM     28  O   UNL     1       0.322   6.077 -10.842  0.00  0.00    -0.332 OA
BRANCH  28  29
ATOM     29  C   UNL     1       1.270   5.269 -11.735  0.00  0.00    +0.238 C 
ATOM     30  O   UNL     1       1.523   6.461 -12.650  0.00  0.00    -0.330 OA
ATOM     31  C   UNL     1       0.288   6.548 -13.494  0.00  0.00    +0.150 C 
ATOM     32  C   UNL     1       0.871   7.906 -14.202  0.00  0.00    +0.035 C 
ATOM     33  C   UNL     1       0.993   5.594 -14.743  0.00  0.00    +0.204 C 
ATOM     34  O   UNL     1      -0.363   5.253 -15.315  0.00  0.00    -0.218 OA
ATOM     35  C   UNL     1       0.969   4.262 -13.801  0.00  0.00    +0.128 C 
ATOM     36  C   UNL     1       2.409   4.093 -13.493  0.00  0.00    +0.033 C 
ATOM     37  C   UNL     1       0.072   4.549 -12.651  0.00  0.00    +0.091 C 
BRANCH  35  38
ATOM     38  O   UNL     1       0.547   3.224 -14.520  0.00  0.00    -0.353 OA
ATOM     39  C   UNL     1       1.463   2.185 -14.303  0.00  0.00    +0.174 C 
ENDBRANCH  35  38
ENDBRANCH  28  29
ENDBRANCH  20  28
BRANCH  17  40
ATOM     40  O   UNL     1       4.396   6.907  -9.373  0.00  0.00    -0.328 OA
BRANCH  40  41
ATOM     41  C   UNL     1       5.193   7.352 -10.587  0.00  0.00    +0.268 C 
ATOM     42  C   UNL     1       6.400   6.120 -10.425  0.00  0.00    +0.222 C 
ATOM     43  O   UNL     1       7.074   6.751  -9.255  0.00  0.00    -0.216 OA
ATOM     44  C   UNL     1       7.392   7.054 -11.455  0.00  0.00    +0.096 C 
ATOM     45  C   UNL     1       6.313   7.423 -12.561  0.00  0.00    +0.048 C 
ATOM     46  C   UNL     1       5.053   6.444 -12.817  0.00  0.00    +0.119 C 
ATOM     47  C   UNL     1       5.789   4.962 -12.653  0.00  0.00    +0.032 C 
ATOM     48  O   UNL     1       4.435   6.360 -11.436  0.00  0.00    -0.331 OA
BRANCH  44  49
ATOM     49  N   UNL     1       8.025   5.861 -12.261  0.00  0.00    -0.269 NA
ATOM     50  C   UNL     1       8.075   6.519 -13.572  0.00  0.00    +0.090 C 
ATOM     51  C   UNL     1       9.406   5.779 -11.842  0.00  0.00    +0.090 C 
ENDBRANCH  44  49
ENDBRANCH  40  41
ENDBRANCH  17  40
TORSDOF 7
ENDMDL
MODEL 3
REMARK VINA RESULT:      -3.1      3.133      9.250
REMARK  Name = 
REMARK  7 active torsions:
REMARK  status: ('A' for Active; 'I' for Inactive)
REMARK    1  A    between atoms: C_2  and  C_3
REMARK    2  A    between atoms: C_9  and  O_10
REMARK    3  A    between atoms: O_10  and  C_11
REMARK    4  A    between atoms: C_13  and  O_15
REMARK    5  A    between atoms: C_24  and  O_25
REMARK    6  A    between atoms: O_25  and  C_26
REMARK    7  A    between atoms: C_31  and  N_32
REMARK                            x       y       z     vdW  Elec       q    Type
REMARK                         _______ _______ _______ _____ _____    ______ ____
ROOT
ATOM      1  C   UNL     1       1.420   9.526   2.580  0.00  0.00    +0.199 C 
ATOM      2  C   UNL     1       2.889  10.210   2.320  0.00  0.00    +0.191 C 
ATOM      3  O   UNL     1       3.222  10.830   3.477  0.00  0.00    -0.219 OA
ATOM      4  C   UNL     1       2.872  10.990   1.112  0.00  0.00    +0.039 C 
ATOM      5  C   UNL     1       3.849   8.898   2.183  0.00  0.00    +0.190 C 
ATOM      6  O   UNL     1       5.101   9.732   2.206  0.00  0.00    -0.220 OA
ATOM      7  C   UNL     1       3.653   8.745   0.477  0.00  0.00    +0.091 C 
ATOM      8  C   UNL     1       4.942   9.606   0.005  0.00  0.00    +0.010 C 
ATOM      9  C   UNL     1       4.441   7.374   0.471  0.00  0.00    +0.152 C 
ATOM     10  O   UNL     1       4.369   6.614   1.392  0.00  0.00    -0.296 OA
ATOM     11  C   UNL     1       4.337   6.496  -0.860  0.00  0.00    +0.060 C 
ATOM     12  C   UNL     1       5.128   7.599  -1.769  0.00  0.00    +0.008 C 
ATOM     13  C   UNL     1       2.857   7.004  -1.344  0.00  0.00    +0.040 C 
ATOM     14  C   UNL     1       2.180   5.740  -1.257  0.00  0.00    +0.152 C 
ATOM     15  O   UNL     1       2.188   5.025  -0.102  0.00  0.00    -0.223 OA
ATOM     16  C   UNL     1       2.838   4.705  -2.182  0.00  0.00    +0.035 C 
ATOM     17  C   UNL     1       0.673   5.736  -1.872  0.00  0.00    +0.148 C 
ATOM     18  C   UNL     1      -0.006   6.989  -0.943  0.00  0.00    +0.058 C 
ATOM     19  C   UNL     1      -1.423   6.686  -1.646  0.00  0.00    +0.005 C 
ATOM     20  C   UNL     1      -0.215   6.100   0.466  0.00  0.00    +0.131 C 
ATOM     21  C   UNL     1      -0.425   7.402   1.554  0.00  0.00    +0.126 C 
ATOM     22  C   UNL     1       0.920   6.980   2.362  0.00  0.00    +0.014 C 
ATOM     23  C   UNL     1       0.154   8.587   0.674  0.00  0.00    +0.319 C 
ATOM     24  O   UNL     1      -0.879   9.062   0.077  0.00  0.00    -0.250 OA
ATOM     25  O   UNL     1       1.210   9.273   1.083  0.00  0.00    -0.450 OA
ENDROOT
BRANCH   1  27
ATOM     26  C   UNL     1       0.032  11.219   3.361  0.00  0.00    +0.004 C 
ATOM     27  C   UNL     1       0.738  11.028   2.529  0.00  0.00    +0.046 C 
ENDBRANCH   1  27
BRANCH  20  28
ATOM     28  O   UNL     1      -1.726   5.979   0.466  0.00  0.00    -0.332 OA
BRANCH  28  29
ATOM     29  C   UNL     1      -1.675   6.838   1.734  0.00  0.00    +0.238 C 
ATOM     30  O   UNL     1      -2.077   5.665   2.620  0.00  0.00    -0.330 OA
ATOM     31  C   UNL     1      -3.550   5.518   2.394  0.00  0.00    +0.150 C 
ATOM     32  C   UNL     1      -3.564   4.195   3.361  0.00  0.00    +0.035 C 
ATOM     33  C   UNL     1      -3.925   6.512   3.749  0.00  0.00    +0.204 C 
ATOM     34  O   UNL     1      -5.316   6.786   3.226  0.00  0.00    -0.218 OA
ATOM     35  C   UNL     1      -3.344   7.837   2.995  0.00  0.00    +0.128 C 
ATOM     36  C   UNL     1      -2.089   8.079   3.749  0.00  0.00    +0.033 C 
ATOM     37  C   UNL     1      -3.199   7.499   1.555  0.00  0.00    +0.091 C 
BRANCH  35  38
ATOM     38  O   UNL     1      -4.178   8.856   3.192  0.00  0.00    -0.353 OA
ATOM     39  C   UNL     1      -3.398  10.019   3.209  0.00  0.00    +0.174 C 
ENDBRANCH  35  38
ENDBRANCH  28  29
ENDBRANCH  20  28
BRANCH  17  40
ATOM     40  O   UNL     1       0.943   6.762  -2.954  0.00  0.00    -0.328 OA
BRANCH  40  41
ATOM     41  C   UNL     1       1.541   5.924  -4.071  0.00  0.00    +0.268 C 
ATOM     42  C   UNL     1       0.355   6.383  -5.247  0.00  0.00    +0.222 C 
ATOM     43  O   UNL     1      -0.735   5.550  -4.664  0.00  0.00    -0.216 OA
ATOM     44  C   UNL     1       0.847   5.033  -6.169  0.00  0.00    +0.096 C 
ATOM     45  C   UNL     1       2.420   5.211  -6.040  0.00  0.00    +0.048 C 
ATOM     46  C   UNL     1       3.047   6.681  -5.796  0.00  0.00    +0.119 C 
ATOM     47  C   UNL     1       2.057   7.594  -6.769  0.00  0.00    +0.032 C 
ATOM     48  O   UNL     1       2.327   7.124  -4.539  0.00  0.00    -0.331 OA
BRANCH  44  49
ATOM     49  N   UNL     1       0.739   5.706  -7.586  0.00  0.00    -0.269 NA
ATOM     50  C   UNL     1       1.622   4.781  -8.307  0.00  0.00    +0.090 C 
ATOM     51  C   UNL     1      -0.585   5.403  -8.078  0.00  0.00    +0.090 C 
ENDBRANCH  44  49
ENDBRANCH  40  41
ENDBRANCH  17  40
TORSDOF 7
ENDMDL
