MODEL 1
REMARK VINA RESULT:      -7.0      0.000      0.000
REMARK  Name = 
REMARK  2 active torsions:
REMARK  status: ('A' for Active; 'I' for Inactive)
REMARK    1  A    between atoms: C_5  and  S_6
REMARK    2  A    between atoms: S_6  and  N_9
REMARK                            x       y       z     vdW  Elec       q    Type
REMARK                         _______ _______ _______ _____ _____    ______ ____
ROOT
ATOM      1  S   UNL     1       2.133   6.927  -8.389  0.00  0.00    +0.096 S 
ATOM      2  O   UNL     1       1.230   6.915  -9.604  0.00  0.00    -0.148 OA
ATOM      3  O   UNL     1       2.076   8.335  -7.836  0.00  0.00    -0.148 OA
ENDROOT
BRANCH   1   8
ATOM      4  N   UNL     1       7.574   5.549 -10.112  0.00  0.00    -0.128 NA
ATOM      5  C   UNL     1       6.257   5.917  -9.698  0.00  0.00    +0.089 A 
ATOM      6  C   UNL     1       5.435   6.603 -10.553  0.00  0.00    +0.019 A 
ATOM      7  C   UNL     1       4.105   6.785 -10.204  0.00  0.00    +0.022 A 
ATOM      8  C   UNL     1       3.767   6.544  -8.878  0.00  0.00    +0.127 A 
ATOM      9  C   UNL     1       4.374   5.408  -8.348  0.00  0.00    +0.022 A 
ATOM     10  C   UNL     1       5.718   5.207  -8.640  0.00  0.00    +0.019 A 
ENDBRANCH   1   8
BRANCH   1  11
ATOM     11  N   UNL     1       1.534   5.897  -7.171  0.00  0.00    -0.058 NA
ATOM     12  C   UNL     1       0.264   6.059  -6.528  0.00  0.00    +0.259 A 
ATOM     13  N   UNL     1       0.277   5.789  -5.198  0.00  0.00    -0.210 NA
ATOM     14  C   UNL     1      -0.853   5.813  -4.477  0.00  0.00    +0.104 A 
ATOM     15  C   UNL     1      -2.025   5.688  -5.212  0.00  0.00    +0.041 A 
ATOM     16  C   UNL     1      -1.962   5.447  -6.564  0.00  0.00    +0.104 A 
ATOM     17  N   UNL     1      -0.777   5.505  -7.200  0.00  0.00    -0.210 NA
ENDBRANCH   1  11
TORSDOF 2
ENDMDL
MODEL 2
REMARK VINA RESULT:      -6.8      1.738      6.801
REMARK  Name = 
REMARK  2 active torsions:
REMARK  status: ('A' for Active; 'I' for Inactive)
REMARK    1  A    between atoms: C_5  and  S_6
REMARK    2  A    between atoms: S_6  and  N_9
REMARK                            x       y       z     vdW  Elec       q    Type
REMARK                         _______ _______ _______ _____ _____    ______ ____
ROOT
ATOM      1  S   UNL     1       2.278   7.085  -7.168  0.00  0.00    +0.096 S 
ATOM      2  O   UNL     1       3.338   7.358  -6.122  0.00  0.00    -0.148 OA
ATOM      3  O   UNL     1       2.107   8.375  -7.940  0.00  0.00    -0.148 OA
ENDROOT
BRANCH   1   8
ATOM      4  N   UNL     1      -2.701   5.548  -4.462  0.00  0.00    -0.128 NA
ATOM      5  C   UNL     1      -1.491   5.953  -5.108  0.00  0.00    +0.089 A 
ATOM      6  C   UNL     1      -0.439   6.418  -4.364  0.00  0.00    +0.019 A 
ATOM      7  C   UNL     1       0.783   6.627  -4.987  0.00  0.00    +0.022 A 
ATOM      8  C   UNL     1       0.780   6.659  -6.376  0.00  0.00    +0.127 A 
ATOM      9  C   UNL     1      -0.025   5.679  -6.951  0.00  0.00    +0.022 A 
ATOM     10  C   UNL     1      -1.275   5.464  -6.383  0.00  0.00    +0.019 A 
ENDBRANCH   1   8
BRANCH   1  11
ATOM     11  N   UNL     1       2.810   5.911  -8.284  0.00  0.00    -0.058 NA
ATOM     12  C   UNL     1       3.956   6.061  -9.131  0.00  0.00    +0.259 A 
ATOM     13  N   UNL     1       3.789   5.565 -10.382  0.00  0.00    -0.210 NA
ATOM     14  C   UNL     1       4.800   5.555 -11.263  0.00  0.00    +0.104 A 
ATOM     15  C   UNL     1       6.069   5.654 -10.704  0.00  0.00    +0.041 A 
ATOM     16  C   UNL     1       6.217   5.646  -9.338  0.00  0.00    +0.104 A 
ATOM     17  N   UNL     1       5.131   5.717  -8.545  0.00  0.00    -0.210 NA
ENDBRANCH   1  11
TORSDOF 2
ENDMDL
MODEL 3
REMARK VINA RESULT:      -6.8      5.561      6.224
REMARK  Name = 
REMARK  2 active torsions:
REMARK  status: ('A' for Active; 'I' for Inactive)
REMARK    1  A    between atoms: C_5  and  S_6
REMARK    2  A    between atoms: S_6  and  N_9
REMARK                            x       y       z     vdW  Elec       q    Type
REMARK                         _______ _______ _______ _____ _____    ______ ____
ROOT
ATOM      1  S   UNL     1       1.502   5.170  -1.094  0.00  0.00    +0.096 S 
ATOM      2  O   UNL     1       1.143   6.043   0.090  0.00  0.00    -0.148 OA
ATOM      3  O   UNL     1       2.140   3.923  -0.520  0.00  0.00    -0.148 OA
ENDROOT
BRANCH   1   8
ATOM      4  N   UNL     1       5.449   7.967  -4.422  0.00  0.00    -0.128 NA
ATOM      5  C   UNL     1       4.476   7.272  -3.639  0.00  0.00    +0.089 A 
ATOM      6  C   UNL     1       4.435   5.902  -3.654  0.00  0.00    +0.019 A 
ATOM      7  C   UNL     1       3.614   5.245  -2.751  0.00  0.00    +0.022 A 
ATOM      8  C   UNL     1       2.649   6.013  -2.108  0.00  0.00    +0.127 A 
ATOM      9  C   UNL     1       3.116   7.259  -1.696  0.00  0.00    +0.022 A 
ATOM     10  C   UNL     1       3.911   7.970  -2.588  0.00  0.00    +0.019 A 
ENDBRANCH   1   8
BRANCH   1  11
ATOM     11  N   UNL     1       0.105   4.667  -1.930  0.00  0.00    -0.058 NA
ATOM     12  C   UNL     1      -0.916   5.554  -2.404  0.00  0.00    +0.259 A 
ATOM     13  N   UNL     1      -2.177   5.072  -2.266  0.00  0.00    -0.210 NA
ATOM     14  C   UNL     1      -3.232   5.749  -2.741  0.00  0.00    +0.104 A 
ATOM     15  C   UNL     1      -2.937   6.688  -3.722  0.00  0.00    +0.041 A 
ATOM     16  C   UNL     1      -1.655   6.789  -4.209  0.00  0.00    +0.104 A 
ATOM     17  N   UNL     1      -0.658   6.105  -3.616  0.00  0.00    -0.210 NA
ENDBRANCH   1  11
TORSDOF 2
ENDMDL
MODEL 4
REMARK VINA RESULT:      -6.6      1.943      6.815
REMARK  Name = 
REMARK  2 active torsions:
REMARK  status: ('A' for Active; 'I' for Inactive)
REMARK    1  A    between atoms: C_5  and  S_6
REMARK    2  A    between atoms: S_6  and  N_9
REMARK                            x       y       z     vdW  Elec       q    Type
REMARK                         _______ _______ _______ _____ _____    ______ ____
ROOT
ATOM      1  S   UNL     1       2.265   4.910  -8.593  0.00  0.00    +0.096 S 
ATOM      2  O   UNL     1       1.642   5.342  -9.904  0.00  0.00    -0.148 OA
ATOM      3  O   UNL     1       2.528   3.425  -8.722  0.00  0.00    -0.148 OA
ENDROOT
BRANCH   1   8
ATOM      4  N   UNL     1      -1.552   5.780  -4.218  0.00  0.00    -0.128 NA
ATOM      5  C   UNL     1      -0.600   5.585  -5.266  0.00  0.00    +0.089 A 
ATOM      6  C   UNL     1       0.587   4.953  -5.006  0.00  0.00    +0.019 A 
ATOM      7  C   UNL     1       1.411   4.608  -6.066  0.00  0.00    +0.022 A 
ATOM      8  C   UNL     1       1.138   5.206  -7.291  0.00  0.00    +0.127 A 
ATOM      9  C   UNL     1      -0.221   5.270  -7.586  0.00  0.00    +0.022 A 
ATOM     10  C   UNL     1      -1.080   5.650  -6.560  0.00  0.00    +0.019 A 
ENDBRANCH   1   8
BRANCH   1  11
ATOM     11  N   UNL     1       3.778   5.659  -8.359  0.00  0.00    -0.058 NA
ATOM     12  C   UNL     1       4.750   5.857  -9.393  0.00  0.00    +0.259 A 
ATOM     13  N   UNL     1       6.032   5.665  -8.993  0.00  0.00    -0.210 NA
ATOM     14  C   UNL     1       7.058   5.896  -9.825  0.00  0.00    +0.104 A 
ATOM     15  C   UNL     1       6.770   6.729 -10.899  0.00  0.00    +0.041 A 
ATOM     16  C   UNL     1       5.537   7.329 -10.987  0.00  0.00    +0.104 A 
ATOM     17  N   UNL     1       4.558   6.978 -10.133  0.00  0.00    -0.210 NA
ENDBRANCH   1  11
TORSDOF 2
ENDMDL
MODEL 5
REMARK VINA RESULT:      -6.6      5.124      6.962
REMARK  Name = 
REMARK  2 active torsions:
REMARK  status: ('A' for Active; 'I' for Inactive)
REMARK    1  A    between atoms: C_5  and  S_6
REMARK    2  A    between atoms: S_6  and  N_9
REMARK                            x       y       z     vdW  Elec       q    Type
REMARK                         _______ _______ _______ _____ _____    ______ ____
ROOT
ATOM      1  S   UNL     1      -1.456   5.631  -2.524  0.00  0.00    +0.096 S 
ATOM      2  O   UNL     1      -2.746   4.889  -2.250  0.00  0.00    -0.148 OA
ATOM      3  O   UNL     1      -1.699   7.066  -2.108  0.00  0.00    -0.148 OA
ENDROOT
BRANCH   1   8
ATOM      4  N   UNL     1      -0.263   5.514  -8.272  0.00  0.00    -0.128 NA
ATOM      5  C   UNL     1      -0.527   5.523  -6.867  0.00  0.00    +0.089 A 
ATOM      6  C   UNL     1       0.426   5.974  -5.993  0.00  0.00    +0.019 A 
ATOM      7  C   UNL     1       0.085   6.149  -4.660  0.00  0.00    +0.022 A 
ATOM      8  C   UNL     1      -1.098   5.558  -4.233  0.00  0.00    +0.127 A 
ATOM      9  C   UNL     1      -2.145   5.695  -5.141  0.00  0.00    +0.022 A 
ATOM     10  C   UNL     1      -1.856   5.488  -6.485  0.00  0.00    +0.019 A 
ENDBRANCH   1   8
BRANCH   1  11
ATOM     11  N   UNL     1      -0.192   5.042  -1.545  0.00  0.00    -0.058 NA
ATOM     12  C   UNL     1       1.070   5.698  -1.372  0.00  0.00    +0.259 A 
ATOM     13  N   UNL     1       2.131   4.855  -1.320  0.00  0.00    -0.210 NA
ATOM     14  C   UNL     1       3.368   5.313  -1.077  0.00  0.00    +0.104 A 
ATOM     15  C   UNL     1       3.425   6.560  -0.466  0.00  0.00    +0.041 A 
ATOM     16  C   UNL     1       2.265   7.178  -0.064  0.00  0.00    +0.104 A 
ATOM     17  N   UNL     1       1.073   6.660  -0.414  0.00  0.00    -0.210 NA
ENDBRANCH   1  11
TORSDOF 2
ENDMDL
MODEL 6
REMARK VINA RESULT:      -6.6      2.297      2.858
REMARK  Name = 
REMARK  2 active torsions:
REMARK  status: ('A' for Active; 'I' for Inactive)
REMARK    1  A    between atoms: C_5  and  S_6
REMARK    2  A    between atoms: S_6  and  N_9
REMARK                            x       y       z     vdW  Elec       q    Type
REMARK                         _______ _______ _______ _____ _____    ______ ____
ROOT
ATOM      1  S   UNL     1       3.068   5.702  -5.148  0.00  0.00    +0.096 S 
ATOM      2  O   UNL     1       3.204   7.044  -4.459  0.00  0.00    -0.148 OA
ATOM      3  O   UNL     1       4.112   4.801  -4.525  0.00  0.00    -0.148 OA
ENDROOT
BRANCH   1   8
ATOM      4  N   UNL     1       4.228   6.427 -10.857  0.00  0.00    -0.128 NA
ATOM      5  C   UNL     1       3.947   6.218  -9.472  0.00  0.00    +0.089 A 
ATOM      6  C   UNL     1       4.832   5.524  -8.689  0.00  0.00    +0.019 A 
ATOM      7  C   UNL     1       4.634   5.492  -7.317  0.00  0.00    +0.022 A 
ATOM      8  C   UNL     1       3.386   5.893  -6.855  0.00  0.00    +0.127 A 
ATOM      9  C   UNL     1       2.889   7.019  -7.506  0.00  0.00    +0.022 A 
ATOM     10  C   UNL     1       3.031   7.073  -8.888  0.00  0.00    +0.019 A 
ENDBRANCH   1   8
BRANCH   1  11
ATOM     11  N   UNL     1       1.551   4.998  -4.818  0.00  0.00    -0.058 NA
ATOM     12  C   UNL     1       0.300   5.518  -5.284  0.00  0.00    +0.259 A 
ATOM     13  N   UNL     1      -0.708   5.429  -4.380  0.00  0.00    -0.210 NA
ATOM     14  C   UNL     1      -1.958   5.795  -4.701  0.00  0.00    +0.104 A 
ATOM     15  C   UNL     1      -2.230   5.835  -6.063  0.00  0.00    +0.041 A 
ATOM     16  C   UNL     1      -1.281   5.410  -6.962  0.00  0.00    +0.104 A 
ATOM     17  N   UNL     1      -0.036   5.123  -6.538  0.00  0.00    -0.210 NA
ENDBRANCH   1  11
TORSDOF 2
ENDMDL
MODEL 7
REMARK VINA RESULT:      -6.6      5.612      7.567
REMARK  Name = 
REMARK  2 active torsions:
REMARK  status: ('A' for Active; 'I' for Inactive)
REMARK    1  A    between atoms: C_5  and  S_6
REMARK    2  A    between atoms: S_6  and  N_9
REMARK                            x       y       z     vdW  Elec       q    Type
REMARK                         _______ _______ _______ _____ _____    ______ ____
ROOT
ATOM      1  S   UNL     1      -2.553   6.269  -2.514  0.00  0.00    +0.096 S 
ATOM      2  O   UNL     1      -2.384   5.000  -1.705  0.00  0.00    -0.148 OA
ATOM      3  O   UNL     1      -4.044   6.505  -2.620  0.00  0.00    -0.148 OA
ENDROOT
BRANCH   1   8
ATOM      4  N   UNL     1      -0.297   5.359  -7.858  0.00  0.00    -0.128 NA
ATOM      5  C   UNL     1      -0.863   5.607  -6.569  0.00  0.00    +0.089 A 
ATOM      6  C   UNL     1      -2.223   5.625  -6.409  0.00  0.00    +0.019 A 
ATOM      7  C   UNL     1      -2.748   5.680  -5.126  0.00  0.00    +0.022 A 
ATOM      8  C   UNL     1      -1.871   6.035  -4.106  0.00  0.00    +0.127 A 
ATOM      9  C   UNL     1      -0.621   5.434  -4.216  0.00  0.00    +0.022 A 
ATOM     10  C   UNL     1      -0.040   5.393  -5.479  0.00  0.00    +0.019 A 
ENDBRANCH   1   8
BRANCH   1  11
ATOM     11  N   UNL     1      -1.900   7.610  -1.691  0.00  0.00    -0.058 NA
ATOM     12  C   UNL     1      -1.332   7.553  -0.376  0.00  0.00    +0.259 A 
ATOM     13  N   UNL     1      -1.623   8.627   0.400  0.00  0.00    -0.210 NA
ATOM     14  C   UNL     1      -1.094   8.758   1.625  0.00  0.00    +0.104 A 
ATOM     15  C   UNL     1       0.055   8.010   1.854  0.00  0.00    +0.041 A 
ATOM     16  C   UNL     1       0.621   7.295   0.827  0.00  0.00    +0.104 A 
ATOM     17  N   UNL     1      -0.028   7.180  -0.347  0.00  0.00    -0.210 NA
ENDBRANCH   1  11
TORSDOF 2
ENDMDL
MODEL 8
REMARK VINA RESULT:      -6.6      3.304      6.872
REMARK  Name = 
REMARK  2 active torsions:
REMARK  status: ('A' for Active; 'I' for Inactive)
REMARK    1  A    between atoms: C_5  and  S_6
REMARK    2  A    between atoms: S_6  and  N_9
REMARK                            x       y       z     vdW  Elec       q    Type
REMARK                         _______ _______ _______ _____ _____    ______ ____
ROOT
ATOM      1  S   UNL     1       0.688   5.669  -7.437  0.00  0.00    +0.096 S 
ATOM      2  O   UNL     1       1.747   4.594  -7.317  0.00  0.00    -0.148 OA
ATOM      3  O   UNL     1       1.416   6.991  -7.334  0.00  0.00    -0.148 OA
ENDROOT
BRANCH   1   8
ATOM      4  N   UNL     1      -3.162   5.258  -3.022  0.00  0.00    -0.128 NA
ATOM      5  C   UNL     1      -2.239   5.331  -4.111  0.00  0.00    +0.089 A 
ATOM      6  C   UNL     1      -2.700   5.457  -5.395  0.00  0.00    +0.019 A 
ATOM      7  C   UNL     1      -1.793   5.713  -6.412  0.00  0.00    +0.022 A 
ATOM      8  C   UNL     1      -0.450   5.509  -6.119  0.00  0.00    +0.127 A 
ATOM      9  C   UNL     1      -0.081   5.971  -4.859  0.00  0.00    +0.022 A 
ATOM     10  C   UNL     1      -0.943   5.701  -3.802  0.00  0.00    +0.019 A 
ENDBRANCH   1   8
BRANCH   1  11
ATOM     11  N   UNL     1      -0.050   5.632  -8.973  0.00  0.00    -0.058 NA
ATOM     12  C   UNL     1       0.507   6.228 -10.151  0.00  0.00    +0.259 A 
ATOM     13  N   UNL     1      -0.409   6.823 -10.956  0.00  0.00    -0.210 NA
ATOM     14  C   UNL     1      -0.052   7.350 -12.136  0.00  0.00    +0.104 A 
ATOM     15  C   UNL     1       1.145   6.874 -12.657  0.00  0.00    +0.041 A 
ATOM     16  C   UNL     1       1.812   5.856 -12.018  0.00  0.00    +0.104 A 
ATOM     17  N   UNL     1       1.400   5.443 -10.805  0.00  0.00    -0.210 NA
ENDBRANCH   1  11
TORSDOF 2
ENDMDL
MODEL 9
REMARK VINA RESULT:      -6.5      2.681      3.446
REMARK  Name = 
REMARK  2 active torsions:
REMARK  status: ('A' for Active; 'I' for Inactive)
REMARK    1  A    between atoms: C_5  and  S_6
REMARK    2  A    between atoms: S_6  and  N_9
REMARK                            x       y       z     vdW  Elec       q    Type
REMARK                         _______ _______ _______ _____ _____    ______ ____
ROOT
ATOM      1  S   UNL     1       4.263   5.689  -8.904  0.00  0.00    +0.096 S 
ATOM      2  O   UNL     1       3.457   4.451  -9.237  0.00  0.00    -0.148 OA
ATOM      3  O   UNL     1       3.360   6.869  -9.190  0.00  0.00    -0.148 OA
ENDROOT
BRANCH   1   8
ATOM      4  N   UNL     1       9.049   6.009 -12.291  0.00  0.00    -0.128 NA
ATOM      5  C   UNL     1       7.890   5.898 -11.462  0.00  0.00    +0.089 A 
ATOM      6  C   UNL     1       8.005   5.432 -10.179  0.00  0.00    +0.019 A 
ATOM      7  C   UNL     1       6.907   5.508  -9.336  0.00  0.00    +0.022 A 
ATOM      8  C   UNL     1       5.675   5.754  -9.932  0.00  0.00    +0.127 A 
ATOM      9  C   UNL     1       5.727   6.718 -10.935  0.00  0.00    +0.022 A 
ATOM     10  C   UNL     1       6.792   6.654 -11.828  0.00  0.00    +0.019 A 
ENDBRANCH   1   8
BRANCH   1  11
ATOM     11  N   UNL     1       4.636   5.746  -7.242  0.00  0.00    -0.058 NA
ATOM     12  C   UNL     1       3.712   6.139  -6.220  0.00  0.00    +0.259 A 
ATOM     13  N   UNL     1       4.262   6.889  -5.232  0.00  0.00    -0.210 NA
ATOM     14  C   UNL     1       3.543   7.260  -4.163  0.00  0.00    +0.104 A 
ATOM     15  C   UNL     1       2.409   6.494  -3.921  0.00  0.00    +0.041 A 
ATOM     16  C   UNL     1       2.157   5.384  -4.690  0.00  0.00    +0.104 A 
ATOM     17  N   UNL     1       2.908   5.137  -5.779  0.00  0.00    -0.210 NA
ENDBRANCH   1  11
TORSDOF 2
ENDMDL
