MODEL 1
REMARK VINA RESULT:      -7.0      0.000      0.000
REMARK  Name = 
REMARK  4 active torsions:
REMARK  status: ('A' for Active; 'I' for Inactive)
REMARK    1  A    between atoms: O_2  and  C_3
REMARK    2  A    between atoms: C_8  and  C_9
REMARK    3  A    between atoms: C_9  and  C_10
REMARK    4  A    between atoms: C_10  and  C_11
REMARK                            x       y       z     vdW  Elec       q    Type
REMARK                         _______ _______ _______ _____ _____    ______ ____
ROOT
ATOM      1  C   UNL     1       4.177   5.608  -8.224  0.00  0.00    +0.139 A 
ATOM      2  C   UNL     1       5.461   5.192  -8.557  0.00  0.00    +0.037 A 
ATOM      3  C   UNL     1       6.150   5.754  -9.592  0.00  0.00    +0.003 A 
ATOM      4  C   UNL     1       5.484   6.530 -10.533  0.00  0.00    -0.000 A 
ATOM      5  C   UNL     1       6.108   6.892 -11.722  0.00  0.00    -0.004 A 
ATOM      6  C   UNL     1       7.405   6.476 -12.005  0.00  0.00    -0.022 A 
ATOM      7  C   UNL     1       8.157   6.106 -10.898  0.00  0.00    -0.004 A 
ATOM      8  C   UNL     1       4.218   6.988 -10.226  0.00  0.00    +0.003 A 
ATOM      9  C   UNL     1       7.529   5.736  -9.716  0.00  0.00    -0.000 A 
ATOM     10  C   UNL     1       3.649   6.615  -9.020  0.00  0.00    +0.037 A 
ENDROOT
BRANCH   1  12
ATOM     11  C   UNL     1       2.579   3.787  -8.475  0.00  0.00    +0.252 C 
ATOM     12  O   UNL     1       3.288   4.697  -7.641  0.00  0.00    -0.471 OA
ENDBRANCH   1  12
BRANCH   6  13
ATOM     13  C   UNL     1       7.763   6.051 -13.392  0.00  0.00    +0.034 C 
BRANCH  13  14
ATOM     14  C   UNL     1       6.563   5.927 -14.286  0.00  0.00    +0.069 C 
BRANCH  14  15
ATOM     15  C   UNL     1       6.638   6.927 -15.374  0.00  0.00    +0.151 C 
ATOM     16  O   UNL     1       6.254   8.066 -15.167  0.00  0.00    -0.296 OA
ATOM     17  C   UNL     1       7.120   6.621 -16.751  0.00  0.00    +0.072 C 
ENDBRANCH  14  15
ENDBRANCH  13  14
ENDBRANCH   6  13
TORSDOF 4
ENDMDL
MODEL 2
REMARK VINA RESULT:      -6.9      1.430      1.599
REMARK  Name = 
REMARK  4 active torsions:
REMARK  status: ('A' for Active; 'I' for Inactive)
REMARK    1  A    between atoms: O_2  and  C_3
REMARK    2  A    between atoms: C_8  and  C_9
REMARK    3  A    between atoms: C_9  and  C_10
REMARK    4  A    between atoms: C_10  and  C_11
REMARK                            x       y       z     vdW  Elec       q    Type
REMARK                         _______ _______ _______ _____ _____    ______ ____
ROOT
ATOM      1  C   UNL     1       3.392   5.151  -8.081  0.00  0.00    +0.139 A 
ATOM      2  C   UNL     1       4.719   4.806  -8.311  0.00  0.00    +0.037 A 
ATOM      3  C   UNL     1       5.534   5.576  -9.090  0.00  0.00    +0.003 A 
ATOM      4  C   UNL     1       4.989   6.546  -9.924  0.00  0.00    -0.000 A 
ATOM      5  C   UNL     1       5.766   7.154 -10.903  0.00  0.00    -0.004 A 
ATOM      6  C   UNL     1       7.099   6.799 -11.083  0.00  0.00    -0.022 A 
ATOM      7  C   UNL     1       7.696   6.189  -9.987  0.00  0.00    -0.004 A 
ATOM      8  C   UNL     1       3.682   6.936  -9.707  0.00  0.00    +0.003 A 
ATOM      9  C   UNL     1       6.917   5.574  -9.017  0.00  0.00    -0.000 A 
ATOM     10  C   UNL     1       2.958   6.312  -8.705  0.00  0.00    +0.037 A 
ENDROOT
BRANCH   1  12
ATOM     11  C   UNL     1       2.084   3.834  -6.503  0.00  0.00    +0.252 C 
ATOM     12  O   UNL     1       2.451   4.141  -7.844  0.00  0.00    -0.471 OA
ENDBRANCH   1  12
BRANCH   6  13
ATOM     13  C   UNL     1       7.658   6.686 -12.464  0.00  0.00    +0.034 C 
BRANCH  13  14
ATOM     14  C   UNL     1       7.310   5.383 -13.122  0.00  0.00    +0.069 C 
BRANCH  14  15
ATOM     15  C   UNL     1       5.986   5.483 -13.774  0.00  0.00    +0.151 C 
ATOM     16  O   UNL     1       5.128   4.653 -13.516  0.00  0.00    -0.296 OA
ATOM     17  C   UNL     1       5.631   6.523 -14.779  0.00  0.00    +0.072 C 
ENDBRANCH  14  15
ENDBRANCH  13  14
ENDBRANCH   6  13
TORSDOF 4
ENDMDL
MODEL 3
REMARK VINA RESULT:      -6.8      2.069      3.227
REMARK  Name = 
REMARK  4 active torsions:
REMARK  status: ('A' for Active; 'I' for Inactive)
REMARK    1  A    between atoms: O_2  and  C_3
REMARK    2  A    between atoms: C_8  and  C_9
REMARK    3  A    between atoms: C_9  and  C_10
REMARK    4  A    between atoms: C_10  and  C_11
REMARK                            x       y       z     vdW  Elec       q    Type
REMARK                         _______ _______ _______ _____ _____    ______ ____
ROOT
ATOM      1  C   UNL     1       1.791   5.781  -6.482  0.00  0.00    +0.139 A 
ATOM      2  C   UNL     1       2.917   5.074  -6.890  0.00  0.00    +0.037 A 
ATOM      3  C   UNL     1       3.744   5.547  -7.867  0.00  0.00    +0.003 A 
ATOM      4  C   UNL     1       3.324   6.580  -8.696  0.00  0.00    -0.000 A 
ATOM      5  C   UNL     1       4.036   6.898  -9.848  0.00  0.00    -0.004 A 
ATOM      6  C   UNL     1       5.174   6.182 -10.206  0.00  0.00    -0.022 A 
ATOM      7  C   UNL     1       5.785   5.493  -9.166  0.00  0.00    -0.004 A 
ATOM      8  C   UNL     1       2.227   7.325  -8.310  0.00  0.00    +0.003 A 
ATOM      9  C   UNL     1       5.067   5.170  -8.022  0.00  0.00    -0.000 A 
ATOM     10  C   UNL     1       1.565   6.980  -7.143  0.00  0.00    +0.037 A 
ENDROOT
BRANCH   1  12
ATOM     11  C   UNL     1      -0.595   5.301  -6.582  0.00  0.00    +0.252 C 
ATOM     12  O   UNL     1       0.682   5.082  -5.990  0.00  0.00    -0.471 OA
ENDBRANCH   1  12
BRANCH   6  13
ATOM     13  C   UNL     1       5.418   5.843 -11.641  0.00  0.00    +0.034 C 
BRANCH  13  14
ATOM     14  C   UNL     1       6.565   6.613 -12.229  0.00  0.00    +0.069 C 
BRANCH  14  15
ATOM     15  C   UNL     1       7.672   5.692 -12.567  0.00  0.00    +0.151 C 
ATOM     16  O   UNL     1       7.447   4.719 -13.269  0.00  0.00    -0.296 OA
ATOM     17  C   UNL     1       9.064   5.846 -12.060  0.00  0.00    +0.072 C 
ENDBRANCH  14  15
ENDBRANCH  13  14
ENDBRANCH   6  13
TORSDOF 4
ENDMDL
MODEL 4
REMARK VINA RESULT:      -6.8      4.657      7.532
REMARK  Name = 
REMARK  4 active torsions:
REMARK  status: ('A' for Active; 'I' for Inactive)
REMARK    1  A    between atoms: O_2  and  C_3
REMARK    2  A    between atoms: C_8  and  C_9
REMARK    3  A    between atoms: C_9  and  C_10
REMARK    4  A    between atoms: C_10  and  C_11
REMARK                            x       y       z     vdW  Elec       q    Type
REMARK                         _______ _______ _______ _____ _____    ______ ____
ROOT
ATOM      1  C   UNL     1      -1.861   5.626  -3.964  0.00  0.00    +0.139 A 
ATOM      2  C   UNL     1      -0.515   5.806  -4.259  0.00  0.00    +0.037 A 
ATOM      3  C   UNL     1      -0.074   5.933  -5.545  0.00  0.00    +0.003 A 
ATOM      4  C   UNL     1      -0.901   5.577  -6.604  0.00  0.00    -0.000 A 
ATOM      5  C   UNL     1      -0.390   5.454  -7.891  0.00  0.00    -0.004 A 
ATOM      6  C   UNL     1       0.960   5.669  -8.148  0.00  0.00    -0.022 A 
ATOM      7  C   UNL     1       1.626   6.429  -7.194  0.00  0.00    -0.004 A 
ATOM      8  C   UNL     1      -2.251   5.419  -6.356  0.00  0.00    +0.003 A 
ATOM      9  C   UNL     1       1.116   6.540  -5.907  0.00  0.00    -0.000 A 
ATOM     10  C   UNL     1      -2.713   5.573  -5.059  0.00  0.00    +0.037 A 
ENDROOT
BRANCH   1  12
ATOM     11  C   UNL     1      -2.231   5.581  -1.557  0.00  0.00    +0.252 C 
ATOM     12  O   UNL     1      -2.224   4.914  -2.815  0.00  0.00    -0.471 OA
ENDBRANCH   1  12
BRANCH   6  13
ATOM     13  C   UNL     1       1.683   4.785  -9.111  0.00  0.00    +0.034 C 
BRANCH  13  14
ATOM     14  C   UNL     1       2.915   4.167  -8.515  0.00  0.00    +0.069 C 
BRANCH  14  15
ATOM     15  C   UNL     1       4.124   4.751  -9.136  0.00  0.00    +0.151 C 
ATOM     16  O   UNL     1       4.153   4.924 -10.344  0.00  0.00    -0.296 OA
ATOM     17  C   UNL     1       5.356   5.110  -8.378  0.00  0.00    +0.072 C 
ENDBRANCH  14  15
ENDBRANCH  13  14
ENDBRANCH   6  13
TORSDOF 4
ENDMDL
MODEL 5
REMARK VINA RESULT:      -6.8      5.721      7.600
REMARK  Name = 
REMARK  4 active torsions:
REMARK  status: ('A' for Active; 'I' for Inactive)
REMARK    1  A    between atoms: O_2  and  C_3
REMARK    2  A    between atoms: C_8  and  C_9
REMARK    3  A    between atoms: C_9  and  C_10
REMARK    4  A    between atoms: C_10  and  C_11
REMARK                            x       y       z     vdW  Elec       q    Type
REMARK                         _______ _______ _______ _____ _____    ______ ____
ROOT
ATOM      1  C   UNL     1      -1.598   5.685  -3.836  0.00  0.00    +0.139 A 
ATOM      2  C   UNL     1      -0.309   5.873  -4.322  0.00  0.00    +0.037 A 
ATOM      3  C   UNL     1      -0.059   6.008  -5.657  0.00  0.00    +0.003 A 
ATOM      4  C   UNL     1      -1.029   5.650  -6.587  0.00  0.00    -0.000 A 
ATOM      5  C   UNL     1      -0.708   5.535  -7.935  0.00  0.00    -0.004 A 
ATOM      6  C   UNL     1       0.590   5.759  -8.384  0.00  0.00    -0.022 A 
ATOM      7  C   UNL     1       1.382   6.519  -7.533  0.00  0.00    -0.004 A 
ATOM      8  C   UNL     1      -2.328   5.483  -6.148  0.00  0.00    +0.003 A 
ATOM      9  C   UNL     1       1.063   6.623  -6.185  0.00  0.00    -0.000 A 
ATOM     10  C   UNL     1      -2.598   5.630  -4.797  0.00  0.00    +0.037 A 
ENDROOT
BRANCH   1  12
ATOM     11  C   UNL     1      -2.009   5.676  -1.435  0.00  0.00    +0.252 C 
ATOM     12  O   UNL     1      -1.787   4.966  -2.650  0.00  0.00    -0.471 OA
ENDBRANCH   1  12
BRANCH   6  13
ATOM     13  C   UNL     1       1.171   4.882  -9.445  0.00  0.00    +0.034 C 
BRANCH  13  14
ATOM     14  C   UNL     1       0.384   4.923 -10.723  0.00  0.00    +0.069 C 
BRANCH  14  15
ATOM     15  C   UNL     1       0.580   6.225 -11.396  0.00  0.00    +0.151 C 
ATOM     16  O   UNL     1       1.676   6.500 -11.858  0.00  0.00    -0.296 OA
ATOM     17  C   UNL     1      -0.477   7.268 -11.513  0.00  0.00    +0.072 C 
ENDBRANCH  14  15
ENDBRANCH  13  14
ENDBRANCH   6  13
TORSDOF 4
ENDMDL
MODEL 6
REMARK VINA RESULT:      -6.7      5.835     10.770
REMARK  Name = 
REMARK  4 active torsions:
REMARK  status: ('A' for Active; 'I' for Inactive)
REMARK    1  A    between atoms: O_2  and  C_3
REMARK    2  A    between atoms: C_8  and  C_9
REMARK    3  A    between atoms: C_9  and  C_10
REMARK    4  A    between atoms: C_10  and  C_11
REMARK                            x       y       z     vdW  Elec       q    Type
REMARK                         _______ _______ _______ _____ _____    ______ ____
ROOT
ATOM      1  C   UNL     1       2.046   5.862  -7.531  0.00  0.00    +0.139 A 
ATOM      2  C   UNL     1       0.808   5.241  -7.654  0.00  0.00    +0.037 A 
ATOM      3  C   UNL     1      -0.255   5.604  -6.879  0.00  0.00    +0.003 A 
ATOM      4  C   UNL     1      -0.057   6.377  -5.741  0.00  0.00    -0.000 A 
ATOM      5  C   UNL     1      -1.076   6.538  -4.809  0.00  0.00    -0.004 A 
ATOM      6  C   UNL     1      -2.310   5.921  -4.984  0.00  0.00    -0.022 A 
ATOM      7  C   UNL     1      -2.602   5.551  -6.290  0.00  0.00    -0.004 A 
ATOM      8  C   UNL     1       1.149   7.034  -5.598  0.00  0.00    +0.003 A 
ATOM      9  C   UNL     1      -1.580   5.382  -7.215  0.00  0.00    -0.000 A 
ATOM     10  C   UNL     1       2.124   6.856  -6.566  0.00  0.00    +0.037 A 
ENDROOT
BRANCH   1  12
ATOM     11  C   UNL     1       3.133   4.037  -8.723  0.00  0.00    +0.252 C 
ATOM     12  O   UNL     1       3.209   5.141  -7.827  0.00  0.00    -0.471 OA
ENDBRANCH   1  12
BRANCH   6  13
ATOM     13  C   UNL     1      -3.016   5.325  -3.809  0.00  0.00    +0.034 C 
BRANCH  13  14
ATOM     14  C   UNL     1      -3.364   6.347  -2.766  0.00  0.00    +0.069 C 
BRANCH  14  15
ATOM     15  C   UNL     1      -2.509   6.163  -1.572  0.00  0.00    +0.151 C 
ATOM     16  O   UNL     1      -2.078   5.052  -1.311  0.00  0.00    -0.296 OA
ATOM     17  C   UNL     1      -2.167   7.256  -0.620  0.00  0.00    +0.072 C 
ENDBRANCH  14  15
ENDBRANCH  13  14
ENDBRANCH   6  13
TORSDOF 4
ENDMDL
MODEL 7
REMARK VINA RESULT:      -6.5      3.959      6.450
REMARK  Name = 
REMARK  4 active torsions:
REMARK  status: ('A' for Active; 'I' for Inactive)
REMARK    1  A    between atoms: O_2  and  C_3
REMARK    2  A    between atoms: C_8  and  C_9
REMARK    3  A    between atoms: C_9  and  C_10
REMARK    4  A    between atoms: C_10  and  C_11
REMARK                            x       y       z     vdW  Elec       q    Type
REMARK                         _______ _______ _______ _____ _____    ______ ____
ROOT
ATOM      1  C   UNL     1      -1.112   5.970  -4.850  0.00  0.00    +0.139 A 
ATOM      2  C   UNL     1       0.162   6.452  -5.133  0.00  0.00    +0.037 A 
ATOM      3  C   UNL     1       0.648   6.484  -6.407  0.00  0.00    +0.003 A 
ATOM      4  C   UNL     1       0.021   5.756  -7.411  0.00  0.00    -0.000 A 
ATOM      5  C   UNL     1       0.641   5.569  -8.642  0.00  0.00    -0.004 A 
ATOM      6  C   UNL     1       1.906   6.091  -8.893  0.00  0.00    -0.022 A 
ATOM      7  C   UNL     1       2.281   7.142  -8.067  0.00  0.00    -0.004 A 
ATOM      8  C   UNL     1      -1.257   5.287  -7.180  0.00  0.00    +0.003 A 
ATOM      9  C   UNL     1       1.666   7.319  -6.835  0.00  0.00    -0.000 A 
ATOM     10  C   UNL     1      -1.837   5.518  -5.943  0.00  0.00    +0.037 A 
ENDROOT
BRANCH   1  12
ATOM     11  C   UNL     1      -2.710   5.232  -3.166  0.00  0.00    +0.252 C 
ATOM     12  O   UNL     1      -1.364   5.381  -3.605  0.00  0.00    -0.471 OA
ENDBRANCH   1  12
BRANCH   6  13
ATOM     13  C   UNL     1       2.901   5.288  -9.666  0.00  0.00    +0.034 C 
BRANCH  13  14
ATOM     14  C   UNL     1       4.162   5.031  -8.893  0.00  0.00    +0.069 C 
BRANCH  14  15
ATOM     15  C   UNL     1       5.297   5.737  -9.528  0.00  0.00    +0.151 C 
ATOM     16  O   UNL     1       6.432   5.513  -9.141  0.00  0.00    -0.296 OA
ATOM     17  C   UNL     1       5.143   6.758 -10.602  0.00  0.00    +0.072 C 
ENDBRANCH  14  15
ENDBRANCH  13  14
ENDBRANCH   6  13
TORSDOF 4
ENDMDL
MODEL 8
REMARK VINA RESULT:      -6.4      2.643      4.450
REMARK  Name = 
REMARK  4 active torsions:
REMARK  status: ('A' for Active; 'I' for Inactive)
REMARK    1  A    between atoms: O_2  and  C_3
REMARK    2  A    between atoms: C_8  and  C_9
REMARK    3  A    between atoms: C_9  and  C_10
REMARK    4  A    between atoms: C_10  and  C_11
REMARK                            x       y       z     vdW  Elec       q    Type
REMARK                         _______ _______ _______ _____ _____    ______ ____
ROOT
ATOM      1  C   UNL     1       1.963   5.013  -5.009  0.00  0.00    +0.139 A 
ATOM      2  C   UNL     1       1.780   4.785  -6.369  0.00  0.00    +0.037 A 
ATOM      3  C   UNL     1       2.830   4.777  -7.241  0.00  0.00    +0.003 A 
ATOM      4  C   UNL     1       4.058   5.302  -6.858  0.00  0.00    -0.000 A 
ATOM      5  C   UNL     1       5.052   5.539  -7.801  0.00  0.00    -0.004 A 
ATOM      6  C   UNL     1       4.837   5.271  -9.149  0.00  0.00    -0.022 A 
ATOM      7  C   UNL     1       3.815   4.368  -9.413  0.00  0.00    -0.004 A 
ATOM      8  C   UNL     1       4.290   5.514  -5.513  0.00  0.00    +0.003 A 
ATOM      9  C   UNL     1       2.820   4.142  -8.471  0.00  0.00    -0.000 A 
ATOM     10  C   UNL     1       3.273   5.243  -4.611  0.00  0.00    +0.037 A 
ENDROOT
BRANCH   1  12
ATOM     11  C   UNL     1       0.178   6.663  -4.855  0.00  0.00    +0.252 C 
ATOM     12  O   UNL     1       0.937   5.611  -4.268  0.00  0.00    -0.471 OA
ENDBRANCH   1  12
BRANCH   6  13
ATOM     13  C   UNL     1       5.358   6.212 -10.186  0.00  0.00    +0.034 C 
BRANCH  13  14
ATOM     14  C   UNL     1       5.585   5.544 -11.511  0.00  0.00    +0.069 C 
BRANCH  14  15
ATOM     15  C   UNL     1       7.035   5.464 -11.795  0.00  0.00    +0.151 C 
ATOM     16  O   UNL     1       7.446   4.625 -12.580  0.00  0.00    -0.296 OA
ATOM     17  C   UNL     1       8.058   6.327 -11.140  0.00  0.00    +0.072 C 
ENDBRANCH  14  15
ENDBRANCH  13  14
ENDBRANCH   6  13
TORSDOF 4
ENDMDL
MODEL 9
REMARK VINA RESULT:      -6.4      3.752      8.287
REMARK  Name = 
REMARK  4 active torsions:
REMARK  status: ('A' for Active; 'I' for Inactive)
REMARK    1  A    between atoms: O_2  and  C_3
REMARK    2  A    between atoms: C_8  and  C_9
REMARK    3  A    between atoms: C_9  and  C_10
REMARK    4  A    between atoms: C_10  and  C_11
REMARK                            x       y       z     vdW  Elec       q    Type
REMARK                         _______ _______ _______ _____ _____    ______ ____
ROOT
ATOM      1  C   UNL     1       4.723   5.046  -8.651  0.00  0.00    +0.139 A 
ATOM      2  C   UNL     1       4.657   5.590  -7.373  0.00  0.00    +0.037 A 
ATOM      3  C   UNL     1       3.672   5.239  -6.495  0.00  0.00    +0.003 A 
ATOM      4  C   UNL     1       2.537   4.577  -6.949  0.00  0.00    -0.000 A 
ATOM      5  C   UNL     1       1.421   4.444  -6.130  0.00  0.00    -0.004 A 
ATOM      6  C   UNL     1       1.407   4.980  -4.847  0.00  0.00    -0.022 A 
ATOM      7  C   UNL     1       2.660   5.221  -4.298  0.00  0.00    -0.004 A 
ATOM      8  C   UNL     1       2.574   3.998  -8.202  0.00  0.00    +0.003 A 
ATOM      9  C   UNL     1       3.770   5.363  -5.120  0.00  0.00    -0.000 A 
ATOM     10  C   UNL     1       3.718   4.143  -8.970  0.00  0.00    +0.037 A 
ENDROOT
BRANCH   1  12
ATOM     11  C   UNL     1       4.460   6.706 -10.414  0.00  0.00    +0.252 C 
ATOM     12  O   UNL     1       5.284   5.798  -9.690  0.00  0.00    -0.471 OA
ENDBRANCH   1  12
BRANCH   6  13
ATOM     13  C   UNL     1       0.169   5.636  -4.329  0.00  0.00    +0.034 C 
BRANCH  13  14
ATOM     14  C   UNL     1      -0.302   6.758  -5.209  0.00  0.00    +0.069 C 
BRANCH  14  15
ATOM     15  C   UNL     1      -1.744   6.602  -5.501  0.00  0.00    +0.151 C 
ATOM     16  O   UNL     1      -2.546   7.354  -4.972  0.00  0.00    -0.296 OA
ATOM     17  C   UNL     1      -2.302   5.537  -6.380  0.00  0.00    +0.072 C 
ENDBRANCH  14  15
ENDBRANCH  13  14
ENDBRANCH   6  13
TORSDOF 4
ENDMDL
