MODEL 1
REMARK VINA RESULT:      -8.1      0.000      0.000
REMARK  Name = 
REMARK  15 active torsions:
REMARK  status: ('A' for Active; 'I' for Inactive)
REMARK    1  A    between atoms: C_14  and  C_15
REMARK    2  A    between atoms: C_15  and  C_16
REMARK    3  A    between atoms: C_16  and  C_17
REMARK    4  A    between atoms: C_17  and  C_18
REMARK    5  A    between atoms: C_18  and  C_19
REMARK    6  A    between atoms: C_19  and  C_20
REMARK    7  A    between atoms: C_20  and  C_21
REMARK    8  A    between atoms: C_21  and  C_22
REMARK    9  A    between atoms: C_22  and  C_23
REMARK   10  A    between atoms: C_23  and  S_24
REMARK   11  A    between atoms: S_24  and  C_26
REMARK   12  A    between atoms: C_26  and  C_27
REMARK   13  A    between atoms: C_27  and  C_28
REMARK   14  A    between atoms: C_28  and  C_29
REMARK   15  A    between atoms: C_29  and  C_32
REMARK                            x       y       z     vdW  Elec       q    Type
REMARK                         _______ _______ _______ _____ _____    ______ ____
ROOT
ATOM      1  C   UNL     1      -0.015   6.371  -5.367  0.00  0.00    +0.000 C 
ENDROOT
BRANCH   1  20
ATOM      2  C   UNL     1       4.209   4.862  -6.840  0.00  0.00    +0.003 C 
ATOM      3  C   UNL     1       3.269   5.814  -7.072  0.00  0.00    +0.028 C 
ATOM      4  C   UNL     1       2.592   5.619  -8.560  0.00  0.00    +0.152 C 
ATOM      5  O   UNL     1       3.948   5.633  -9.256  0.00  0.00    -0.223 OA
ATOM      6  C   UNL     1       2.635   3.980  -8.351  0.00  0.00    +0.033 C 
ATOM      7  C   UNL     1       2.133   3.862  -6.914  0.00  0.00    +0.003 C 
ATOM      8  C   UNL     1       1.785   5.403  -6.548  0.00  0.00    +0.003 C 
ATOM      9  C   UNL     1       2.152   5.251  -4.916  0.00  0.00    +0.004 C 
ATOM     10  C   UNL     1       2.276   6.883  -4.561  0.00  0.00    +0.022 C 
ATOM     11  C   UNL     1       2.842   6.570  -3.094  0.00  0.00    -0.026 A 
ATOM     12  C   UNL     1       1.807   5.861  -2.483  0.00  0.00    -0.023 A 
ATOM     13  C   UNL     1       0.521   5.912  -3.112  0.00  0.00    +0.026 C 
ATOM     14  C   UNL     1       2.015   5.094  -1.347  0.00  0.00    +0.037 A 
ATOM     15  C   UNL     1       3.313   4.669  -1.090  0.00  0.00    +0.195 A 
ATOM     16  O   UNL     1       3.538   3.412  -0.521  0.00  0.00    -0.287 OA
ATOM     17  C   UNL     1       4.330   5.398  -1.696  0.00  0.00    +0.042 A 
ATOM     18  C   UNL     1       4.066   6.025  -2.911  0.00  0.00    -0.001 A 
ATOM     19  C   UNL     1       3.753   7.045  -5.234  0.00  0.00    +0.004 C 
ATOM     20  C   UNL     1       0.518   5.086  -4.513  0.00  0.00    +0.005 C 
ATOM     21  C   UNL     1       3.389   7.202  -6.714  0.00  0.00    +0.003 C 
ENDBRANCH   1  20
BRANCH   1  22
ATOM     22  C   UNL     1      -1.331   6.818  -4.899  0.00  0.00    +0.000 C 
BRANCH  22  23
ATOM     23  C   UNL     1      -2.428   5.774  -5.057  0.00  0.00    +0.000 C 
BRANCH  23  24
ATOM     24  C   UNL     1      -3.057   5.432  -3.752  0.00  0.00    +0.000 C 
BRANCH  24  25
ATOM     25  C   UNL     1      -3.305   6.499  -2.794  0.00  0.00    +0.000 C 
BRANCH  25  26
ATOM     26  C   UNL     1      -2.664   6.492  -1.475  0.00  0.00    +0.000 C 
BRANCH  26  27
ATOM     27  C   UNL     1      -1.753   7.629  -1.157  0.00  0.00    +0.001 C 
BRANCH  27  28
ATOM     28  C   UNL     1      -1.828   7.839   0.351  0.00  0.00    +0.014 C 
BRANCH  28  29
ATOM     29  C   UNL     1      -0.647   7.084   0.912  0.00  0.00    +0.092 C 
BRANCH  29  30
ATOM     30  S   UNL     1      -0.172   7.783   2.544  0.00  0.00    +0.042 S 
ATOM     31  O   UNL     1       1.331   7.384   2.595  0.00  0.00    -0.256 OA
BRANCH  30  32
ATOM     32  C   UNL     1      -0.038   9.575   2.155  0.00  0.00    +0.092 C 
BRANCH  32  33
ATOM     33  C   UNL     1       1.413   9.971   2.075  0.00  0.00    +0.020 C 
BRANCH  33  34
ATOM     34  C   UNL     1       1.873  10.341   0.703  0.00  0.00    +0.077 C 
BRANCH  34  35
ATOM     35  C   UNL     1       3.351  10.172   0.483  0.00  0.00    +0.349 C 
ATOM     36  F   UNL     1       4.028   9.930   1.667  0.00  0.00    -0.195 F 
ATOM     37  F   UNL     1       3.878  11.303  -0.073  0.00  0.00    -0.195 F 
BRANCH  35  38
ATOM     38  C   UNL     1       3.583   8.940  -0.363  0.00  0.00    +0.454 C 
ATOM     39  F   UNL     1       4.627   8.172   0.068  0.00  0.00    -0.165 F 
ATOM     40  F   UNL     1       2.403   8.209  -0.288  0.00  0.00    -0.165 F 
ATOM     41  F   UNL     1       3.699   9.332  -1.689  0.00  0.00    -0.165 F 
ENDBRANCH  35  38
ENDBRANCH  34  35
ENDBRANCH  33  34
ENDBRANCH  32  33
ENDBRANCH  30  32
ENDBRANCH  29  30
ENDBRANCH  28  29
ENDBRANCH  27  28
ENDBRANCH  26  27
ENDBRANCH  25  26
ENDBRANCH  24  25
ENDBRANCH  23  24
ENDBRANCH  22  23
ENDBRANCH   1  22
TORSDOF 15
ENDMDL
MODEL 2
REMARK VINA RESULT:      -8.0      5.544      9.647
REMARK  Name = 
REMARK  15 active torsions:
REMARK  status: ('A' for Active; 'I' for Inactive)
REMARK    1  A    between atoms: C_14  and  C_15
REMARK    2  A    between atoms: C_15  and  C_16
REMARK    3  A    between atoms: C_16  and  C_17
REMARK    4  A    between atoms: C_17  and  C_18
REMARK    5  A    between atoms: C_18  and  C_19
REMARK    6  A    between atoms: C_19  and  C_20
REMARK    7  A    between atoms: C_20  and  C_21
REMARK    8  A    between atoms: C_21  and  C_22
REMARK    9  A    between atoms: C_22  and  C_23
REMARK   10  A    between atoms: C_23  and  S_24
REMARK   11  A    between atoms: S_24  and  C_26
REMARK   12  A    between atoms: C_26  and  C_27
REMARK   13  A    between atoms: C_27  and  C_28
REMARK   14  A    between atoms: C_28  and  C_29
REMARK   15  A    between atoms: C_29  and  C_32
REMARK                            x       y       z     vdW  Elec       q    Type
REMARK                         _______ _______ _______ _____ _____    ______ ____
ROOT
ATOM      1  C   UNL     1       1.950   4.820  -7.675  0.00  0.00    +0.000 C 
ENDROOT
BRANCH   1  20
ATOM      2  C   UNL     1       3.158   6.205  -3.326  0.00  0.00    +0.003 C 
ATOM      3  C   UNL     1       3.490   6.362  -4.634  0.00  0.00    +0.028 C 
ATOM      4  C   UNL     1       4.985   5.743  -4.937  0.00  0.00    +0.152 C 
ATOM      5  O   UNL     1       5.630   6.572  -3.832  0.00  0.00    -0.223 OA
ATOM      6  C   UNL     1       4.661   4.490  -3.908  0.00  0.00    +0.033 C 
ATOM      7  C   UNL     1       3.239   4.132  -4.332  0.00  0.00    +0.003 C 
ATOM      8  C   UNL     1       2.994   5.137  -5.581  0.00  0.00    +0.003 C 
ATOM      9  C   UNL     1       1.343   5.297  -5.318  0.00  0.00    +0.004 C 
ATOM     10  C   UNL     1       1.098   6.666  -6.251  0.00  0.00    +0.022 C 
ATOM     11  C   UNL     1      -0.407   6.817  -5.720  0.00  0.00    -0.026 A 
ATOM     12  C   UNL     1      -1.028   5.639  -6.139  0.00  0.00    -0.023 A 
ATOM     13  C   UNL     1      -0.349   4.863  -7.134  0.00  0.00    +0.026 C 
ATOM     14  C   UNL     1      -2.221   5.203  -5.584  0.00  0.00    +0.037 A 
ATOM     15  C   UNL     1      -2.554   5.681  -4.323  0.00  0.00    +0.195 A 
ATOM     16  O   UNL     1      -3.218   4.852  -3.414  0.00  0.00    -0.287 OA
ATOM     17  C   UNL     1      -1.937   6.863  -3.931  0.00  0.00    +0.042 A 
ATOM     18  C   UNL     1      -0.673   7.153  -4.437  0.00  0.00    -0.001 A 
ATOM     19  C   UNL     1       1.725   7.686  -5.144  0.00  0.00    +0.004 C 
ATOM     20  C   UNL     1       0.990   4.169  -6.526  0.00  0.00    +0.005 C 
ATOM     21  C   UNL     1       3.225   7.537  -5.420  0.00  0.00    +0.003 C 
ENDBRANCH   1  20
BRANCH   1  22
ATOM     22  C   UNL     1       2.487   3.791  -8.572  0.00  0.00    +0.000 C 
BRANCH  22  23
ATOM     23  C   UNL     1       3.905   4.072  -9.051  0.00  0.00    +0.000 C 
BRANCH  23  24
ATOM     24  C   UNL     1       4.326   5.466  -8.744  0.00  0.00    +0.000 C 
BRANCH  24  25
ATOM     25  C   UNL     1       5.742   5.741  -8.547  0.00  0.00    +0.000 C 
BRANCH  25  26
ATOM     26  C   UNL     1       6.705   5.553  -9.637  0.00  0.00    +0.000 C 
BRANCH  26  27
ATOM     27  C   UNL     1       7.236   6.783 -10.294  0.00  0.00    +0.001 C 
BRANCH  27  28
ATOM     28  C   UNL     1       6.144   7.280 -11.234  0.00  0.00    +0.014 C 
BRANCH  28  29
ATOM     29  C   UNL     1       6.768   7.250 -12.610  0.00  0.00    +0.092 C 
BRANCH  29  30
ATOM     30  S   UNL     1       5.949   5.970 -13.644  0.00  0.00    +0.042 S 
ATOM     31  O   UNL     1       7.018   4.841 -13.593  0.00  0.00    -0.256 OA
BRANCH  30  32
ATOM     32  C   UNL     1       4.690   5.303 -12.481  0.00  0.00    +0.092 C 
BRANCH  32  33
ATOM     33  C   UNL     1       3.321   5.787 -12.883  0.00  0.00    +0.020 C 
BRANCH  33  34
ATOM     34  C   UNL     1       2.454   6.196 -11.738  0.00  0.00    +0.077 C 
BRANCH  34  35
ATOM     35  C   UNL     1       0.988   6.256 -12.067  0.00  0.00    +0.349 C 
ATOM     36  F   UNL     1       0.539   5.083 -12.652  0.00  0.00    -0.195 F 
ATOM     37  F   UNL     1       0.742   7.277 -12.941  0.00  0.00    -0.195 F 
BRANCH  35  38
ATOM     38  C   UNL     1       0.202   6.382 -10.781  0.00  0.00    +0.454 C 
ATOM     39  F   UNL     1       0.869   7.059  -9.799  0.00  0.00    -0.165 F 
ATOM     40  F   UNL     1      -0.957   7.072 -11.120  0.00  0.00    -0.165 F 
ATOM     41  F   UNL     1      -0.214   5.117 -10.393  0.00  0.00    -0.165 F 
ENDBRANCH  35  38
ENDBRANCH  34  35
ENDBRANCH  33  34
ENDBRANCH  32  33
ENDBRANCH  30  32
ENDBRANCH  29  30
ENDBRANCH  28  29
ENDBRANCH  27  28
ENDBRANCH  26  27
ENDBRANCH  25  26
ENDBRANCH  24  25
ENDBRANCH  23  24
ENDBRANCH  22  23
ENDBRANCH   1  22
TORSDOF 15
ENDMDL
MODEL 3
REMARK VINA RESULT:      -7.8      5.117      9.110
REMARK  Name = 
REMARK  15 active torsions:
REMARK  status: ('A' for Active; 'I' for Inactive)
REMARK    1  A    between atoms: C_14  and  C_15
REMARK    2  A    between atoms: C_15  and  C_16
REMARK    3  A    between atoms: C_16  and  C_17
REMARK    4  A    between atoms: C_17  and  C_18
REMARK    5  A    between atoms: C_18  and  C_19
REMARK    6  A    between atoms: C_19  and  C_20
REMARK    7  A    between atoms: C_20  and  C_21
REMARK    8  A    between atoms: C_21  and  C_22
REMARK    9  A    between atoms: C_22  and  C_23
REMARK   10  A    between atoms: C_23  and  S_24
REMARK   11  A    between atoms: S_24  and  C_26
REMARK   12  A    between atoms: C_26  and  C_27
REMARK   13  A    between atoms: C_27  and  C_28
REMARK   14  A    between atoms: C_28  and  C_29
REMARK   15  A    between atoms: C_29  and  C_32
REMARK                            x       y       z     vdW  Elec       q    Type
REMARK                         _______ _______ _______ _____ _____    ______ ____
ROOT
ATOM      1  C   UNL     1       1.448   5.106  -5.009  0.00  0.00    +0.000 C 
ENDROOT
BRANCH   1  20
ATOM      2  C   UNL     1      -1.920   7.261  -2.497  0.00  0.00    +0.003 C 
ATOM      3  C   UNL     1      -1.605   6.071  -3.073  0.00  0.00    +0.028 C 
ATOM      4  C   UNL     1      -2.636   5.726  -4.308  0.00  0.00    +0.152 C 
ATOM      5  O   UNL     1      -3.866   5.898  -3.423  0.00  0.00    -0.223 OA
ATOM      6  C   UNL     1      -2.634   7.322  -4.739  0.00  0.00    +0.033 C 
ATOM      7  C   UNL     1      -1.145   7.644  -4.635  0.00  0.00    +0.003 C 
ATOM      8  C   UNL     1      -0.510   6.197  -4.269  0.00  0.00    +0.003 C 
ATOM      9  C   UNL     1       0.755   6.821  -3.357  0.00  0.00    +0.004 C 
ATOM     10  C   UNL     1       1.176   5.409  -2.560  0.00  0.00    +0.022 C 
ATOM     11  C   UNL     1       2.189   6.196  -1.599  0.00  0.00    -0.026 A 
ATOM     12  C   UNL     1       3.128   6.738  -2.477  0.00  0.00    -0.023 A 
ATOM     13  C   UNL     1       3.158   6.209  -3.808  0.00  0.00    +0.026 C 
ATOM     14  C   UNL     1       3.964   7.779  -2.105  0.00  0.00    +0.037 A 
ATOM     15  C   UNL     1       3.562   8.573  -1.038  0.00  0.00    +0.195 A 
ATOM     16  O   UNL     1       3.840   9.944  -1.042  0.00  0.00    -0.287 OA
ATOM     17  C   UNL     1       2.637   8.010  -0.166  0.00  0.00    +0.042 A 
ATOM     18  C   UNL     1       1.743   7.067  -0.664  0.00  0.00    -0.001 A 
ATOM     19  C   UNL     1      -0.073   5.480  -1.513  0.00  0.00    +0.004 C 
ATOM     20  C   UNL     1       1.835   6.649  -4.646  0.00  0.00    +0.005 C 
ATOM     21  C   UNL     1      -1.204   4.887  -2.361  0.00  0.00    +0.003 C 
ENDBRANCH   1  20
BRANCH   1  22
ATOM     22  C   UNL     1       2.548   4.424  -5.698  0.00  0.00    +0.000 C 
BRANCH  22  23
ATOM     23  C   UNL     1       2.337   4.273  -7.198  0.00  0.00    +0.000 C 
BRANCH  23  24
ATOM     24  C   UNL     1       2.793   5.478  -7.945  0.00  0.00    +0.000 C 
BRANCH  24  25
ATOM     25  C   UNL     1       1.821   6.221  -8.733  0.00  0.00    +0.000 C 
BRANCH  25  26
ATOM     26  C   UNL     1       0.621   5.565  -9.264  0.00  0.00    +0.000 C 
BRANCH  26  27
ATOM     27  C   UNL     1      -0.072   6.236 -10.402  0.00  0.00    +0.001 C 
BRANCH  27  28
ATOM     28  C   UNL     1       0.212   5.395 -11.641  0.00  0.00    +0.014 C 
BRANCH  28  29
ATOM     29  C   UNL     1       1.149   6.233 -12.478  0.00  0.00    +0.092 C 
BRANCH  29  30
ATOM     30  S   UNL     1       1.894   5.206 -13.808  0.00  0.00    +0.042 S 
ATOM     31  O   UNL     1       1.748   6.167 -15.022  0.00  0.00    -0.256 OA
BRANCH  30  32
ATOM     32  C   UNL     1       3.689   5.377 -13.448  0.00  0.00    +0.092 C 
BRANCH  32  33
ATOM     33  C   UNL     1       3.881   5.828 -12.024  0.00  0.00    +0.020 C 
BRANCH  33  34
ATOM     34  C   UNL     1       5.259   5.608 -11.492  0.00  0.00    +0.077 C 
BRANCH  34  35
ATOM     35  C   UNL     1       5.736   6.686 -10.557  0.00  0.00    +0.349 C 
ATOM     36  F   UNL     1       6.165   6.171  -9.345  0.00  0.00    -0.195 F 
ATOM     37  F   UNL     1       4.726   7.568 -10.299  0.00  0.00    -0.195 F 
BRANCH  35  38
ATOM     38  C   UNL     1       6.956   7.351 -11.157  0.00  0.00    +0.454 C 
ATOM     39  F   UNL     1       7.349   6.798 -12.343  0.00  0.00    -0.165 F 
ATOM     40  F   UNL     1       6.595   8.679 -11.357  0.00  0.00    -0.165 F 
ATOM     41  F   UNL     1       7.960   7.374 -10.201  0.00  0.00    -0.165 F 
ENDBRANCH  35  38
ENDBRANCH  34  35
ENDBRANCH  33  34
ENDBRANCH  32  33
ENDBRANCH  30  32
ENDBRANCH  29  30
ENDBRANCH  28  29
ENDBRANCH  27  28
ENDBRANCH  26  27
ENDBRANCH  25  26
ENDBRANCH  24  25
ENDBRANCH  23  24
ENDBRANCH  22  23
ENDBRANCH   1  22
TORSDOF 15
ENDMDL
MODEL 4
REMARK VINA RESULT:      -7.8      5.103      9.429
REMARK  Name = 
REMARK  15 active torsions:
REMARK  status: ('A' for Active; 'I' for Inactive)
REMARK    1  A    between atoms: C_14  and  C_15
REMARK    2  A    between atoms: C_15  and  C_16
REMARK    3  A    between atoms: C_16  and  C_17
REMARK    4  A    between atoms: C_17  and  C_18
REMARK    5  A    between atoms: C_18  and  C_19
REMARK    6  A    between atoms: C_19  and  C_20
REMARK    7  A    between atoms: C_20  and  C_21
REMARK    8  A    between atoms: C_21  and  C_22
REMARK    9  A    between atoms: C_22  and  C_23
REMARK   10  A    between atoms: C_23  and  S_24
REMARK   11  A    between atoms: S_24  and  C_26
REMARK   12  A    between atoms: C_26  and  C_27
REMARK   13  A    between atoms: C_27  and  C_28
REMARK   14  A    between atoms: C_28  and  C_29
REMARK   15  A    between atoms: C_29  and  C_32
REMARK                            x       y       z     vdW  Elec       q    Type
REMARK                         _______ _______ _______ _____ _____    ______ ____
ROOT
ATOM      1  C   UNL     1       1.755   5.145  -4.795  0.00  0.00    +0.000 C 
ENDROOT
BRANCH   1  20
ATOM      2  C   UNL     1      -1.798   7.272  -2.527  0.00  0.00    +0.003 C 
ATOM      3  C   UNL     1      -1.421   6.076  -3.050  0.00  0.00    +0.028 C 
ATOM      4  C   UNL     1      -2.376   5.669  -4.328  0.00  0.00    +0.152 C 
ATOM      5  O   UNL     1      -3.655   5.831  -3.514  0.00  0.00    -0.223 OA
ATOM      6  C   UNL     1      -2.393   7.253  -4.804  0.00  0.00    +0.033 C 
ATOM      7  C   UNL     1      -0.921   7.619  -4.631  0.00  0.00    +0.003 C 
ATOM      8  C   UNL     1      -0.268   6.201  -4.190  0.00  0.00    +0.003 C 
ATOM      9  C   UNL     1       0.930   6.884  -3.231  0.00  0.00    +0.004 C 
ATOM     10  C   UNL     1       1.344   5.506  -2.374  0.00  0.00    +0.022 C 
ATOM     11  C   UNL     1       2.284   6.347  -1.383  0.00  0.00    -0.026 A 
ATOM     12  C   UNL     1       3.254   6.891  -2.226  0.00  0.00    -0.023 A 
ATOM     13  C   UNL     1       3.368   6.327  -3.538  0.00  0.00    +0.026 C 
ATOM     14  C   UNL     1       4.040   7.965  -1.840  0.00  0.00    +0.037 A 
ATOM     15  C   UNL     1       3.561   8.776  -0.819  0.00  0.00    +0.195 A 
ATOM     16  O   UNL     1       3.803  10.153  -0.847  0.00  0.00    -0.287 OA
ATOM     17  C   UNL     1       2.606   8.211   0.019  0.00  0.00    +0.042 A 
ATOM     18  C   UNL     1       1.765   7.230  -0.498  0.00  0.00    -0.001 A 
ATOM     19  C   UNL     1       0.040   5.570  -1.396  0.00  0.00    +0.004 C 
ATOM     20  C   UNL     1       2.081   6.707  -4.456  0.00  0.00    +0.005 C 
ATOM     21  C   UNL     1      -1.028   4.924  -2.285  0.00  0.00    +0.003 C 
ENDBRANCH   1  20
BRANCH   1  22
ATOM     22  C   UNL     1       2.753   4.572  -5.704  0.00  0.00    +0.000 C 
BRANCH  22  23
ATOM     23  C   UNL     1       2.964   5.382  -6.977  0.00  0.00    +0.000 C 
BRANCH  23  24
ATOM     24  C   UNL     1       4.400   5.703  -7.196  0.00  0.00    +0.000 C 
BRANCH  24  25
ATOM     25  C   UNL     1       5.112   5.024  -8.269  0.00  0.00    +0.000 C 
BRANCH  25  26
ATOM     26  C   UNL     1       5.772   5.785  -9.335  0.00  0.00    +0.000 C 
BRANCH  26  27
ATOM     27  C   UNL     1       7.261   5.711  -9.400  0.00  0.00    +0.001 C 
BRANCH  27  28
ATOM     28  C   UNL     1       7.640   5.855 -10.870  0.00  0.00    +0.014 C 
BRANCH  28  29
ATOM     29  C   UNL     1       6.508   6.638 -11.492  0.00  0.00    +0.092 C 
BRANCH  29  30
ATOM     30  S   UNL     1       6.162   6.006 -13.183  0.00  0.00    +0.042 S 
ATOM     31  O   UNL     1       7.003   4.698 -13.172  0.00  0.00    -0.256 OA
BRANCH  30  32
ATOM     32  C   UNL     1       4.466   5.327 -12.986  0.00  0.00    +0.092 C 
BRANCH  32  33
ATOM     33  C   UNL     1       3.741   6.077 -11.900  0.00  0.00    +0.020 C 
BRANCH  33  34
ATOM     34  C   UNL     1       2.260   6.150 -12.087  0.00  0.00    +0.077 C 
BRANCH  34  35
ATOM     35  C   UNL     1       1.469   5.485 -10.995  0.00  0.00    +0.349 C 
ATOM     36  F   UNL     1       2.280   4.782 -10.119  0.00  0.00    -0.195 F 
ATOM     37  F   UNL     1       0.574   4.603 -11.530  0.00  0.00    -0.195 F 
BRANCH  35  38
ATOM     38  C   UNL     1       0.807   6.551 -10.150  0.00  0.00    +0.454 C 
ATOM     39  F   UNL     1       1.686   7.258  -9.379  0.00  0.00    -0.165 F 
ATOM     40  F   UNL     1       0.183   7.406 -11.052  0.00  0.00    -0.165 F 
ATOM     41  F   UNL     1      -0.216   5.963  -9.421  0.00  0.00    -0.165 F 
ENDBRANCH  35  38
ENDBRANCH  34  35
ENDBRANCH  33  34
ENDBRANCH  32  33
ENDBRANCH  30  32
ENDBRANCH  29  30
ENDBRANCH  28  29
ENDBRANCH  27  28
ENDBRANCH  26  27
ENDBRANCH  25  26
ENDBRANCH  24  25
ENDBRANCH  23  24
ENDBRANCH  22  23
ENDBRANCH   1  22
TORSDOF 15
ENDMDL
MODEL 5
REMARK VINA RESULT:      -7.5      4.114      7.635
REMARK  Name = 
REMARK  15 active torsions:
REMARK  status: ('A' for Active; 'I' for Inactive)
REMARK    1  A    between atoms: C_14  and  C_15
REMARK    2  A    between atoms: C_15  and  C_16
REMARK    3  A    between atoms: C_16  and  C_17
REMARK    4  A    between atoms: C_17  and  C_18
REMARK    5  A    between atoms: C_18  and  C_19
REMARK    6  A    between atoms: C_19  and  C_20
REMARK    7  A    between atoms: C_20  and  C_21
REMARK    8  A    between atoms: C_21  and  C_22
REMARK    9  A    between atoms: C_22  and  C_23
REMARK   10  A    between atoms: C_23  and  S_24
REMARK   11  A    between atoms: S_24  and  C_26
REMARK   12  A    between atoms: C_26  and  C_27
REMARK   13  A    between atoms: C_27  and  C_28
REMARK   14  A    between atoms: C_28  and  C_29
REMARK   15  A    between atoms: C_29  and  C_32
REMARK                            x       y       z     vdW  Elec       q    Type
REMARK                         _______ _______ _______ _____ _____    ______ ____
ROOT
ATOM      1  C   UNL     1       3.841   5.050  -9.771  0.00  0.00    +0.000 C 
ENDROOT
BRANCH   1  20
ATOM      2  C   UNL     1       6.550   7.208 -12.981  0.00  0.00    +0.003 C 
ATOM      3  C   UNL     1       6.476   6.086 -12.218  0.00  0.00    +0.028 C 
ATOM      4  C   UNL     1       7.685   6.055 -11.102  0.00  0.00    +0.152 C 
ATOM      5  O   UNL     1       8.764   6.244 -12.163  0.00  0.00    -0.223 OA
ATOM      6  C   UNL     1       7.510   7.685 -10.886  0.00  0.00    +0.033 C 
ATOM      7  C   UNL     1       5.990   7.804 -10.825  0.00  0.00    +0.003 C 
ATOM      8  C   UNL     1       5.525   6.252 -10.909  0.00  0.00    +0.003 C 
ATOM      9  C   UNL     1       4.085   6.576 -11.712  0.00  0.00    +0.004 C 
ATOM     10  C   UNL     1       3.775   5.021 -12.253  0.00  0.00    +0.022 C 
ATOM     11  C   UNL     1       2.554   5.528 -13.160  0.00  0.00    -0.026 A 
ATOM     12  C   UNL     1       1.659   6.075 -12.238  0.00  0.00    -0.023 A 
ATOM     13  C   UNL     1       1.863   5.747 -10.858  0.00  0.00    +0.026 C 
ATOM     14  C   UNL     1       0.647   6.940 -12.624  0.00  0.00    +0.037 A 
ATOM     15  C   UNL     1       0.804   7.611 -13.830  0.00  0.00    +0.195 A 
ATOM     16  O   UNL     1       0.339   8.923 -13.966  0.00  0.00    -0.287 OA
ATOM     17  C   UNL     1       1.688   7.043 -14.741  0.00  0.00    +0.042 A 
ATOM     18  C   UNL     1       2.759   6.300 -14.252  0.00  0.00    -0.001 A 
ATOM     19  C   UNL     1       4.867   5.089 -13.462  0.00  0.00    +0.004 C 
ATOM     20  C   UNL     1       3.201   6.464 -10.275  0.00  0.00    +0.005 C 
ATOM     21  C   UNL     1       6.163   4.770 -12.708  0.00  0.00    +0.003 C 
ENDBRANCH   1  20
BRANCH   1  22
ATOM     22  C   UNL     1       3.636   4.849  -8.333  0.00  0.00    +0.000 C 
BRANCH  22  23
ATOM     23  C   UNL     1       2.479   3.917  -8.000  0.00  0.00    +0.000 C 
BRANCH  23  24
ATOM     24  C   UNL     1       1.590   4.492  -6.954  0.00  0.00    +0.000 C 
BRANCH  24  25
ATOM     25  C   UNL     1       0.301   5.036  -7.354  0.00  0.00    +0.000 C 
BRANCH  25  26
ATOM     26  C   UNL     1      -0.481   5.873  -6.437  0.00  0.00    +0.000 C 
BRANCH  26  27
ATOM     27  C   UNL     1      -1.966   5.774  -6.526  0.00  0.00    +0.001 C 
BRANCH  27  28
ATOM     28  C   UNL     1      -2.481   5.650  -5.097  0.00  0.00    +0.014 C 
BRANCH  28  29
ATOM     29  C   UNL     1      -1.731   6.704  -4.317  0.00  0.00    +0.092 C 
BRANCH  29  30
ATOM     30  S   UNL     1      -1.766   6.302  -2.524  0.00  0.00    +0.042 S 
ATOM     31  O   UNL     1      -1.892   4.753  -2.585  0.00  0.00    -0.256 OA
BRANCH  30  32
ATOM     32  C   UNL     1       0.006   6.484  -2.067  0.00  0.00    +0.092 C 
BRANCH  32  33
ATOM     33  C   UNL     1       0.866   5.769  -3.076  0.00  0.00    +0.020 C 
BRANCH  33  34
ATOM     34  C   UNL     1       1.799   6.660  -3.830  0.00  0.00    +0.077 C 
BRANCH  34  35
ATOM     35  C   UNL     1       3.205   6.136  -3.928  0.00  0.00    +0.349 C 
ATOM     36  F   UNL     1       3.237   4.790  -4.254  0.00  0.00    -0.195 F 
ATOM     37  F   UNL     1       3.851   6.289  -2.735  0.00  0.00    -0.195 F 
BRANCH  35  38
ATOM     38  C   UNL     1       3.909   6.835  -5.070  0.00  0.00    +0.454 C 
ATOM     39  F   UNL     1       3.057   7.315  -6.024  0.00  0.00    -0.165 F 
ATOM     40  F   UNL     1       4.603   7.891  -4.489  0.00  0.00    -0.165 F 
ATOM     41  F   UNL     1       4.879   5.982  -5.577  0.00  0.00    -0.165 F 
ENDBRANCH  35  38
ENDBRANCH  34  35
ENDBRANCH  33  34
ENDBRANCH  32  33
ENDBRANCH  30  32
ENDBRANCH  29  30
ENDBRANCH  28  29
ENDBRANCH  27  28
ENDBRANCH  26  27
ENDBRANCH  25  26
ENDBRANCH  24  25
ENDBRANCH  23  24
ENDBRANCH  22  23
ENDBRANCH   1  22
TORSDOF 15
ENDMDL
MODEL 6
REMARK VINA RESULT:      -7.4      4.527      8.182
REMARK  Name = 
REMARK  15 active torsions:
REMARK  status: ('A' for Active; 'I' for Inactive)
REMARK    1  A    between atoms: C_14  and  C_15
REMARK    2  A    between atoms: C_15  and  C_16
REMARK    3  A    between atoms: C_16  and  C_17
REMARK    4  A    between atoms: C_17  and  C_18
REMARK    5  A    between atoms: C_18  and  C_19
REMARK    6  A    between atoms: C_19  and  C_20
REMARK    7  A    between atoms: C_20  and  C_21
REMARK    8  A    between atoms: C_21  and  C_22
REMARK    9  A    between atoms: C_22  and  C_23
REMARK   10  A    between atoms: C_23  and  S_24
REMARK   11  A    between atoms: S_24  and  C_26
REMARK   12  A    between atoms: C_26  and  C_27
REMARK   13  A    between atoms: C_27  and  C_28
REMARK   14  A    between atoms: C_28  and  C_29
REMARK   15  A    between atoms: C_29  and  C_32
REMARK                            x       y       z     vdW  Elec       q    Type
REMARK                         _______ _______ _______ _____ _____    ______ ____
ROOT
ATOM      1  C   UNL     1       3.938   4.956  -9.794  0.00  0.00    +0.000 C 
ENDROOT
BRANCH   1  20
ATOM      2  C   UNL     1       6.557   7.253 -12.981  0.00  0.00    +0.003 C 
ATOM      3  C   UNL     1       6.516   6.110 -12.248  0.00  0.00    +0.028 C 
ATOM      4  C   UNL     1       7.742   6.074 -11.151  0.00  0.00    +0.152 C 
ATOM      5  O   UNL     1       8.801   6.313 -12.221  0.00  0.00    -0.223 OA
ATOM      6  C   UNL     1       7.538   7.693 -10.888  0.00  0.00    +0.033 C 
ATOM      7  C   UNL     1       6.017   7.780 -10.803  0.00  0.00    +0.003 C 
ATOM      8  C   UNL     1       5.581   6.222 -10.923  0.00  0.00    +0.003 C 
ATOM      9  C   UNL     1       4.123   6.538 -11.695  0.00  0.00    +0.004 C 
ATOM     10  C   UNL     1       3.836   4.993 -12.274  0.00  0.00    +0.022 C 
ATOM     11  C   UNL     1       2.592   5.499 -13.150  0.00  0.00    -0.026 A 
ATOM     12  C   UNL     1       1.701   6.003 -12.201  0.00  0.00    -0.023 A 
ATOM     13  C   UNL     1       1.931   5.643 -10.834  0.00  0.00    +0.026 C 
ATOM     14  C   UNL     1       0.667   6.858 -12.549  0.00  0.00    +0.037 A 
ATOM     15  C   UNL     1       0.792   7.564 -13.739  0.00  0.00    +0.195 A 
ATOM     16  O   UNL     1       0.300   8.870 -13.832  0.00  0.00    -0.287 OA
ATOM     17  C   UNL     1       1.674   7.039 -14.677  0.00  0.00    +0.042 A 
ATOM     18  C   UNL     1       2.766   6.304 -14.223  0.00  0.00    -0.001 A 
ATOM     19  C   UNL     1       4.909   5.115 -13.496  0.00  0.00    +0.004 C 
ATOM     20  C   UNL     1       3.263   6.370 -10.250  0.00  0.00    +0.005 C 
ATOM     21  C   UNL     1       6.222   4.802 -12.770  0.00  0.00    +0.003 C 
ENDBRANCH   1  20
BRANCH   1  22
ATOM     22  C   UNL     1       4.278   4.958  -8.367  0.00  0.00    +0.000 C 
BRANCH  22  23
ATOM     23  C   UNL     1       3.089   4.702  -7.451  0.00  0.00    +0.000 C 
BRANCH  23  24
ATOM     24  C   UNL     1       2.803   5.871  -6.576  0.00  0.00    +0.000 C 
BRANCH  24  25
ATOM     25  C   UNL     1       3.864   6.838  -6.332  0.00  0.00    +0.000 C 
BRANCH  25  26
ATOM     26  C   UNL     1       4.348   7.098  -4.972  0.00  0.00    +0.000 C 
BRANCH  26  27
ATOM     27  C   UNL     1       4.552   5.916  -4.086  0.00  0.00    +0.001 C 
BRANCH  27  28
ATOM     28  C   UNL     1       4.333   6.399  -2.657  0.00  0.00    +0.014 C 
BRANCH  28  29
ATOM     29  C   UNL     1       2.838   6.570  -2.525  0.00  0.00    +0.092 C 
BRANCH  29  30
ATOM     30  S   UNL     1       2.149   5.253  -1.444  0.00  0.00    +0.042 S 
ATOM     31  O   UNL     1       1.877   6.067  -0.147  0.00  0.00    -0.256 OA
BRANCH  30  32
ATOM     32  C   UNL     1       0.442   5.084  -2.106  0.00  0.00    +0.092 C 
BRANCH  32  33
ATOM     33  C   UNL     1       0.259   6.008  -3.282  0.00  0.00    +0.020 C 
BRANCH  33  34
ATOM     34  C   UNL     1      -0.949   5.716  -4.110  0.00  0.00    +0.077 C 
BRANCH  34  35
ATOM     35  C   UNL     1      -0.972   6.426  -5.435  0.00  0.00    +0.349 C 
ATOM     36  F   UNL     1       0.098   7.293  -5.579  0.00  0.00    -0.195 F 
ATOM     37  F   UNL     1      -2.119   7.158  -5.558  0.00  0.00    -0.195 F 
BRANCH  35  38
ATOM     38  C   UNL     1      -0.806   5.407  -6.541  0.00  0.00    +0.454 C 
ATOM     39  F   UNL     1      -0.054   4.326  -6.177  0.00  0.00    -0.165 F 
ATOM     40  F   UNL     1      -2.094   4.994  -6.862  0.00  0.00    -0.165 F 
ATOM     41  F   UNL     1      -0.327   6.056  -7.669  0.00  0.00    -0.165 F 
ENDBRANCH  35  38
ENDBRANCH  34  35
ENDBRANCH  33  34
ENDBRANCH  32  33
ENDBRANCH  30  32
ENDBRANCH  29  30
ENDBRANCH  28  29
ENDBRANCH  27  28
ENDBRANCH  26  27
ENDBRANCH  25  26
ENDBRANCH  24  25
ENDBRANCH  23  24
ENDBRANCH  22  23
ENDBRANCH   1  22
TORSDOF 15
ENDMDL
MODEL 7
REMARK VINA RESULT:      -6.7      5.991      9.424
REMARK  Name = 
REMARK  15 active torsions:
REMARK  status: ('A' for Active; 'I' for Inactive)
REMARK    1  A    between atoms: C_14  and  C_15
REMARK    2  A    between atoms: C_15  and  C_16
REMARK    3  A    between atoms: C_16  and  C_17
REMARK    4  A    between atoms: C_17  and  C_18
REMARK    5  A    between atoms: C_18  and  C_19
REMARK    6  A    between atoms: C_19  and  C_20
REMARK    7  A    between atoms: C_20  and  C_21
REMARK    8  A    between atoms: C_21  and  C_22
REMARK    9  A    between atoms: C_22  and  C_23
REMARK   10  A    between atoms: C_23  and  S_24
REMARK   11  A    between atoms: S_24  and  C_26
REMARK   12  A    between atoms: C_26  and  C_27
REMARK   13  A    between atoms: C_27  and  C_28
REMARK   14  A    between atoms: C_28  and  C_29
REMARK   15  A    between atoms: C_29  and  C_32
REMARK                            x       y       z     vdW  Elec       q    Type
REMARK                         _______ _______ _______ _____ _____    ______ ____
ROOT
ATOM      1  C   UNL     1       1.054   5.046  -7.986  0.00  0.00    +0.000 C 
ENDROOT
BRANCH   1  20
ATOM      2  C   UNL     1       3.146   6.084  -3.882  0.00  0.00    +0.003 C 
ATOM      3  C   UNL     1       3.208   6.342  -5.215  0.00  0.00    +0.028 C 
ATOM      4  C   UNL     1       4.599   5.747  -5.863  0.00  0.00    +0.152 C 
ATOM      5  O   UNL     1       5.469   6.485  -4.853  0.00  0.00    -0.223 OA
ATOM      6  C   UNL     1       4.469   4.418  -4.889  0.00  0.00    +0.033 C 
ATOM      7  C   UNL     1       2.984   4.096  -5.040  0.00  0.00    +0.003 C 
ATOM      8  C   UNL     1       2.508   5.197  -6.132  0.00  0.00    +0.003 C 
ATOM      9  C   UNL     1       0.948   5.338  -5.525  0.00  0.00    +0.004 C 
ATOM     10  C   UNL     1       0.543   6.777  -6.282  0.00  0.00    +0.022 C 
ATOM     11  C   UNL     1      -0.820   6.888  -5.445  0.00  0.00    -0.026 A 
ATOM     12  C   UNL     1      -1.533   5.748  -5.817  0.00  0.00    -0.023 A 
ATOM     13  C   UNL     1      -1.085   5.051  -6.985  0.00  0.00    +0.026 C 
ATOM     14  C   UNL     1      -2.596   5.271  -5.066  0.00  0.00    +0.037 A 
ATOM     15  C   UNL     1      -2.658   5.649  -3.730  0.00  0.00    +0.195 A 
ATOM     16  O   UNL     1      -3.137   4.752  -2.770  0.00  0.00    -0.287 OA
ATOM     17  C   UNL     1      -1.953   6.796  -3.383  0.00  0.00    +0.042 A 
ATOM     18  C   UNL     1      -0.814   7.123  -4.112  0.00  0.00    -0.001 A 
ATOM     19  C   UNL     1       1.400   7.705  -5.251  0.00  0.00    +0.004 C 
ATOM     20  C   UNL     1       0.337   4.309  -6.720  0.00  0.00    +0.005 C 
ATOM     21  C   UNL     1       2.809   7.576  -5.838  0.00  0.00    +0.003 C 
ENDBRANCH   1  20
BRANCH   1  22
ATOM     22  C   UNL     1       0.180   5.063  -9.163  0.00  0.00    +0.000 C 
BRANCH  22  23
ATOM     23  C   UNL     1       0.294   6.332  -9.997  0.00  0.00    +0.000 C 
BRANCH  23  24
ATOM     24  C   UNL     1      -0.177   6.120 -11.393  0.00  0.00    +0.000 C 
BRANCH  24  25
ATOM     25  C   UNL     1       0.651   6.598 -12.490  0.00  0.00    +0.000 C 
BRANCH  25  26
ATOM     26  C   UNL     1       1.262   5.660 -13.438  0.00  0.00    +0.000 C 
BRANCH  26  27
ATOM     27  C   UNL     1       2.751   5.653 -13.523  0.00  0.00    +0.001 C 
BRANCH  27  28
ATOM     28  C   UNL     1       3.264   6.263 -12.223  0.00  0.00    +0.014 C 
BRANCH  28  29
ATOM     29  C   UNL     1       3.990   5.139 -11.522  0.00  0.00    +0.092 C 
BRANCH  29  30
ATOM     30  S   UNL     1       4.276   5.578  -9.760  0.00  0.00    +0.042 S 
ATOM     31  O   UNL     1       4.184   4.173  -9.101  0.00  0.00    -0.256 OA
BRANCH  30  32
ATOM     32  C   UNL     1       6.095   5.850  -9.736  0.00  0.00    +0.092 C 
BRANCH  32  33
ATOM     33  C   UNL     1       6.449   6.995 -10.648  0.00  0.00    +0.020 C 
BRANCH  33  34
ATOM     34  C   UNL     1       7.805   6.888 -11.269  0.00  0.00    +0.077 C 
BRANCH  34  35
ATOM     35  C   UNL     1       7.877   5.933 -12.428  0.00  0.00    +0.349 C 
ATOM     36  F   UNL     1       7.361   4.688 -12.109  0.00  0.00    -0.195 F 
ATOM     37  F   UNL     1       9.174   5.759 -12.816  0.00  0.00    -0.195 F 
BRANCH  35  38
ATOM     38  C   UNL     1       6.996   6.450 -13.544  0.00  0.00    +0.454 C 
ATOM     39  F   UNL     1       6.383   7.635 -13.250  0.00  0.00    -0.165 F 
ATOM     40  F   UNL     1       7.840   6.619 -14.636  0.00  0.00    -0.165 F 
ATOM     41  F   UNL     1       6.109   5.447 -13.906  0.00  0.00    -0.165 F 
ENDBRANCH  35  38
ENDBRANCH  34  35
ENDBRANCH  33  34
ENDBRANCH  32  33
ENDBRANCH  30  32
ENDBRANCH  29  30
ENDBRANCH  28  29
ENDBRANCH  27  28
ENDBRANCH  26  27
ENDBRANCH  25  26
ENDBRANCH  24  25
ENDBRANCH  23  24
ENDBRANCH  22  23
ENDBRANCH   1  22
TORSDOF 15
ENDMDL
MODEL 8
REMARK VINA RESULT:      -6.7      2.673      5.655
REMARK  Name = 
REMARK  15 active torsions:
REMARK  status: ('A' for Active; 'I' for Inactive)
REMARK    1  A    between atoms: C_14  and  C_15
REMARK    2  A    between atoms: C_15  and  C_16
REMARK    3  A    between atoms: C_16  and  C_17
REMARK    4  A    between atoms: C_17  and  C_18
REMARK    5  A    between atoms: C_18  and  C_19
REMARK    6  A    between atoms: C_19  and  C_20
REMARK    7  A    between atoms: C_20  and  C_21
REMARK    8  A    between atoms: C_21  and  C_22
REMARK    9  A    between atoms: C_22  and  C_23
REMARK   10  A    between atoms: C_23  and  S_24
REMARK   11  A    between atoms: S_24  and  C_26
REMARK   12  A    between atoms: C_26  and  C_27
REMARK   13  A    between atoms: C_27  and  C_28
REMARK   14  A    between atoms: C_28  and  C_29
REMARK   15  A    between atoms: C_29  and  C_32
REMARK                            x       y       z     vdW  Elec       q    Type
REMARK                         _______ _______ _______ _____ _____    ______ ____
ROOT
ATOM      1  C   UNL     1      -0.270   5.036  -7.712  0.00  0.00    +0.000 C 
ENDROOT
BRANCH   1  20
ATOM      2  C   UNL     1       4.207   6.433  -8.264  0.00  0.00    +0.003 C 
ATOM      3  C   UNL     1       3.449   5.451  -7.709  0.00  0.00    +0.028 C 
ATOM      4  C   UNL     1       3.558   5.485  -6.067  0.00  0.00    +0.152 C 
ATOM      5  O   UNL     1       5.081   5.415  -6.096  0.00  0.00    -0.223 OA
ATOM      6  C   UNL     1       3.561   7.138  -6.114  0.00  0.00    +0.033 C 
ATOM      7  C   UNL     1       2.448   7.397  -7.126  0.00  0.00    +0.003 C 
ATOM      8  C   UNL     1       1.910   5.898  -7.431  0.00  0.00    +0.003 C 
ATOM      9  C   UNL     1       1.473   6.220  -9.020  0.00  0.00    +0.004 C 
ATOM     10  C   UNL     1       1.354   4.634  -9.546  0.00  0.00    +0.022 C 
ATOM     11  C   UNL     1       1.176   5.102 -11.069  0.00  0.00    -0.026 A 
ATOM     12  C   UNL     1       0.004   5.859 -11.050  0.00  0.00    -0.023 A 
ATOM     13  C   UNL     1      -0.837   5.729  -9.898  0.00  0.00    +0.026 C 
ATOM     14  C   UNL     1      -0.316   6.740 -12.071  0.00  0.00    +0.037 A 
ATOM     15  C   UNL     1       0.724   7.203 -12.867  0.00  0.00    +0.195 A 
ATOM     16  O   UNL     1       0.703   8.515 -13.352  0.00  0.00    -0.287 OA
ATOM     17  C   UNL     1       1.878   6.428 -12.884  0.00  0.00    +0.042 A 
ATOM     18  C   UNL     1       2.191   5.677 -11.755  0.00  0.00    -0.001 A 
ATOM     19  C   UNL     1       2.966   4.421  -9.667  0.00  0.00    +0.004 C 
ATOM     20  C   UNL     1      -0.151   6.407  -8.588  0.00  0.00    +0.005 C 
ATOM     21  C   UNL     1       3.334   4.109  -8.213  0.00  0.00    +0.003 C 
ENDBRANCH   1  20
BRANCH   1  22
ATOM     22  C   UNL     1      -1.478   5.032  -6.882  0.00  0.00    +0.000 C 
BRANCH  22  23
ATOM     23  C   UNL     1      -1.722   6.341  -6.142  0.00  0.00    +0.000 C 
BRANCH  23  24
ATOM     24  C   UNL     1      -0.690   6.586  -5.098  0.00  0.00    +0.000 C 
BRANCH  24  25
ATOM     25  C   UNL     1      -0.356   5.508  -4.179  0.00  0.00    +0.000 C 
BRANCH  25  26
ATOM     26  C   UNL     1      -1.153   5.274  -2.970  0.00  0.00    +0.000 C 
BRANCH  26  27
ATOM     27  C   UNL     1      -2.617   5.548  -3.059  0.00  0.00    +0.001 C 
BRANCH  27  28
ATOM     28  C   UNL     1      -2.896   6.726  -2.133  0.00  0.00    +0.014 C 
BRANCH  28  29
ATOM     29  C   UNL     1      -2.104   6.438  -0.880  0.00  0.00    +0.092 C 
BRANCH  29  30
ATOM     30  S   UNL     1      -1.007   7.859  -0.488  0.00  0.00    +0.042 S 
ATOM     31  O   UNL     1      -1.890   8.620   0.542  0.00  0.00    -0.256 OA
BRANCH  30  32
ATOM     32  C   UNL     1       0.228   7.079   0.628  0.00  0.00    +0.092 C 
BRANCH  32  33
ATOM     33  C   UNL     1       1.595   7.149  -0.000  0.00  0.00    +0.020 C 
BRANCH  33  34
ATOM     34  C   UNL     1       1.946   5.964  -0.840  0.00  0.00    +0.077 C 
BRANCH  34  35
ATOM     35  C   UNL     1       3.423   5.706  -0.953  0.00  0.00    +0.349 C 
ATOM     36  F   UNL     1       3.727   4.360  -0.835  0.00  0.00    -0.195 F 
ATOM     37  F   UNL     1       4.095   6.371   0.033  0.00  0.00    -0.195 F 
BRANCH  35  38
ATOM     38  C   UNL     1       3.884   6.095  -2.341  0.00  0.00    +0.454 C 
ATOM     39  F   UNL     1       4.796   7.112  -2.347  0.00  0.00    -0.165 F 
ATOM     40  F   UNL     1       4.459   4.948  -2.877  0.00  0.00    -0.165 F 
ATOM     41  F   UNL     1       2.765   6.353  -3.119  0.00  0.00    -0.165 F 
ENDBRANCH  35  38
ENDBRANCH  34  35
ENDBRANCH  33  34
ENDBRANCH  32  33
ENDBRANCH  30  32
ENDBRANCH  29  30
ENDBRANCH  28  29
ENDBRANCH  27  28
ENDBRANCH  26  27
ENDBRANCH  25  26
ENDBRANCH  24  25
ENDBRANCH  23  24
ENDBRANCH  22  23
ENDBRANCH   1  22
TORSDOF 15
ENDMDL
MODEL 9
REMARK VINA RESULT:      -6.4      3.620      6.808
REMARK  Name = 
REMARK  15 active torsions:
REMARK  status: ('A' for Active; 'I' for Inactive)
REMARK    1  A    between atoms: C_14  and  C_15
REMARK    2  A    between atoms: C_15  and  C_16
REMARK    3  A    between atoms: C_16  and  C_17
REMARK    4  A    between atoms: C_17  and  C_18
REMARK    5  A    between atoms: C_18  and  C_19
REMARK    6  A    between atoms: C_19  and  C_20
REMARK    7  A    between atoms: C_20  and  C_21
REMARK    8  A    between atoms: C_21  and  C_22
REMARK    9  A    between atoms: C_22  and  C_23
REMARK   10  A    between atoms: C_23  and  S_24
REMARK   11  A    between atoms: S_24  and  C_26
REMARK   12  A    between atoms: C_26  and  C_27
REMARK   13  A    between atoms: C_27  and  C_28
REMARK   14  A    between atoms: C_28  and  C_29
REMARK   15  A    between atoms: C_29  and  C_32
REMARK                            x       y       z     vdW  Elec       q    Type
REMARK                         _______ _______ _______ _____ _____    ______ ____
ROOT
ATOM      1  C   UNL     1       3.905   5.022  -7.285  0.00  0.00    +0.000 C 
ENDROOT
BRANCH   1  20
ATOM      2  C   UNL     1       1.433   5.905 -11.209  0.00  0.00    +0.003 C 
ATOM      3  C   UNL     1       1.483   6.197  -9.883  0.00  0.00    +0.028 C 
ATOM      4  C   UNL     1       0.171   5.588  -9.099  0.00  0.00    +0.152 C 
ATOM      5  O   UNL     1      -0.804   6.280 -10.045  0.00  0.00    -0.223 OA
ATOM      6  C   UNL     1       0.246   4.237 -10.049  0.00  0.00    +0.033 C 
ATOM      7  C   UNL     1       1.745   3.952 -10.023  0.00  0.00    +0.003 C 
ATOM      8  C   UNL     1       2.289   5.091  -9.005  0.00  0.00    +0.003 C 
ATOM      9  C   UNL     1       3.786   5.251  -9.751  0.00  0.00    +0.004 C 
ATOM     10  C   UNL     1       4.222   6.718  -9.069  0.00  0.00    +0.022 C 
ATOM     11  C   UNL     1       5.502   6.837 -10.027  0.00  0.00    -0.026 A 
ATOM     12  C   UNL     1       6.273   5.723  -9.693  0.00  0.00    -0.023 A 
ATOM     13  C   UNL     1       5.947   5.047  -8.472  0.00  0.00    +0.026 C 
ATOM     14  C   UNL     1       7.276   5.251 -10.524  0.00  0.00    +0.037 A 
ATOM     15  C   UNL     1       7.210   5.595 -11.869  0.00  0.00    +0.195 A 
ATOM     16  O   UNL     1       7.624   4.684 -12.845  0.00  0.00    -0.287 OA
ATOM     17  C   UNL     1       6.449   6.717 -12.179  0.00  0.00    +0.042 A 
ATOM     18  C   UNL     1       5.371   7.037 -11.359  0.00  0.00    -0.001 A 
ATOM     19  C   UNL     1       3.254   7.600 -10.042  0.00  0.00    +0.004 C 
ATOM     20  C   UNL     1       4.525   4.268  -8.592  0.00  0.00    +0.005 C 
ATOM     21  C   UNL     1       1.906   7.455  -9.328  0.00  0.00    +0.003 C 
ENDBRANCH   1  20
BRANCH   1  22
ATOM     22  C   UNL     1       4.949   5.347  -6.307  0.00  0.00    +0.000 C 
BRANCH  22  23
ATOM     23  C   UNL     1       4.442   5.446  -4.875  0.00  0.00    +0.000 C 
BRANCH  23  24
ATOM     24  C   UNL     1       3.152   6.184  -4.795  0.00  0.00    +0.000 C 
BRANCH  24  25
ATOM     25  C   UNL     1       2.627   6.533  -3.483  0.00  0.00    +0.000 C 
BRANCH  25  26
ATOM     26  C   UNL     1       1.208   6.340  -3.163  0.00  0.00    +0.000 C 
BRANCH  26  27
ATOM     27  C   UNL     1       0.887   5.747  -1.833  0.00  0.00    +0.001 C 
BRANCH  27  28
ATOM     28  C   UNL     1       1.584   6.614  -0.790  0.00  0.00    +0.014 C 
BRANCH  28  29
ATOM     29  C   UNL     1       0.470   7.179   0.059  0.00  0.00    +0.092 C 
BRANCH  29  30
ATOM     30  S   UNL     1      -1.101   6.292  -0.295  0.00  0.00    +0.042 S 
ATOM     31  O   UNL     1      -1.818   6.430   1.079  0.00  0.00    -0.256 OA
BRANCH  30  32
ATOM     32  C   UNL     1      -2.017   7.540  -1.287  0.00  0.00    +0.092 C 
BRANCH  32  33
ATOM     33  C   UNL     1      -2.991   6.846  -2.202  0.00  0.00    +0.020 C 
BRANCH  33  34
ATOM     34  C   UNL     1      -2.644   6.938  -3.652  0.00  0.00    +0.077 C 
BRANCH  34  35
ATOM     35  C   UNL     1      -2.295   5.619  -4.285  0.00  0.00    +0.349 C 
ATOM     36  F   UNL     1      -3.422   4.921  -4.687  0.00  0.00    -0.195 F 
ATOM     37  F   UNL     1      -1.614   4.835  -3.398  0.00  0.00    -0.195 F 
BRANCH  35  38
ATOM     38  C   UNL     1      -1.517   5.877  -5.557  0.00  0.00    +0.454 C 
ATOM     39  F   UNL     1      -0.520   4.970  -5.779  0.00  0.00    -0.165 F 
ATOM     40  F   UNL     1      -2.450   5.807  -6.585  0.00  0.00    -0.165 F 
ATOM     41  F   UNL     1      -1.073   7.191  -5.542  0.00  0.00    -0.165 F 
ENDBRANCH  35  38
ENDBRANCH  34  35
ENDBRANCH  33  34
ENDBRANCH  32  33
ENDBRANCH  30  32
ENDBRANCH  29  30
ENDBRANCH  28  29
ENDBRANCH  27  28
ENDBRANCH  26  27
ENDBRANCH  25  26
ENDBRANCH  24  25
ENDBRANCH  23  24
ENDBRANCH  22  23
ENDBRANCH   1  22
TORSDOF 15
ENDMDL
