MODEL 1
REMARK VINA RESULT:      -9.3      0.000      0.000
REMARK  Name = 
REMARK  7 active torsions:
REMARK  status: ('A' for Active; 'I' for Inactive)
REMARK    1  A    between atoms: C_2  and  N_3
REMARK    2  A    between atoms: C_2  and  C_17
REMARK    3  A    between atoms: N_3  and  C_4
REMARK    4  A    between atoms: C_4  and  C_5
REMARK    5  A    between atoms: C_5  and  C_6
REMARK    6  A    between atoms: C_6  and  C_7
REMARK    7  A    between atoms: C_11  and  C_12
REMARK                            x       y       z     vdW  Elec       q    Type
REMARK                         _______ _______ _______ _____ _____    ______ ____
ROOT
ATOM      1  N   UNL     1       3.633   6.935  -9.031  0.00  0.00    -0.215 NA
ENDROOT
BRANCH   1   3
ATOM      2  C   UNL     1       4.087   4.634  -9.136  0.00  0.00    +0.024 C 
ATOM      3  C   UNL     1       3.784   5.872 -10.227  0.00  0.00    +0.095 C 
BRANCH   3   4
ATOM      4  C   UNL     1       5.392   6.194 -10.366  0.00  0.00    -0.006 A 
ATOM      5  C   UNL     1       5.888   5.876 -11.606  0.00  0.00    -0.003 A 
ATOM      6  C   UNL     1       7.266   5.773 -11.730  0.00  0.00    -0.000 A 
ATOM      7  C   UNL     1       7.808   5.860 -12.992  0.00  0.00    -0.000 A 
ATOM      8  C   UNL     1       6.965   5.798 -14.090  0.00  0.00    -0.000 A 
ATOM      9  C   UNL     1       5.639   5.450 -13.943  0.00  0.00    -0.000 A 
ATOM     10  C   UNL     1       8.032   5.608 -10.584  0.00  0.00    -0.000 A 
ATOM     11  C   UNL     1       7.452   5.450  -9.336  0.00  0.00    -0.000 A 
ATOM     12  C   UNL     1       5.125   5.478 -12.676  0.00  0.00    -0.000 A 
ATOM     13  C   UNL     1       6.085   5.690  -9.267  0.00  0.00    -0.003 A 
ENDBRANCH   3   4
ENDBRANCH   1   3
BRANCH   1  14
ATOM     14  C   UNL     1       2.207   6.998  -8.801  0.00  0.00    +0.089 C 
BRANCH  14  15
ATOM     15  C   UNL     1       1.851   7.602  -7.465  0.00  0.00    +0.023 C 
BRANCH  15  16
ATOM     16  C   UNL     1       1.761   6.472  -6.446  0.00  0.00    +0.028 C 
BRANCH  16  17
ATOM     17  C   UNL     1       0.304   6.255  -6.225  0.00  0.00    -0.022 A 
ATOM     18  C   UNL     1      -0.206   6.771  -5.040  0.00  0.00    -0.000 A 
ATOM     19  C   UNL     1      -1.557   6.790  -4.831  0.00  0.00    +0.071 A 
ATOM     20  C   UNL     1      -2.359   6.182  -5.764  0.00  0.00    +0.004 A 
ATOM     21  C   UNL     1      -1.801   5.369  -6.743  0.00  0.00    -0.000 A 
ATOM     22  C   UNL     1      -0.419   5.257  -6.819  0.00  0.00    -0.004 A 
BRANCH  19  23
ATOM     23  C   UNL     1      -2.076   7.492  -3.631  0.00  0.00    +0.419 C 
ATOM     24  F   UNL     1      -2.034   8.855  -3.825  0.00  0.00    -0.166 F 
ATOM     25  F   UNL     1      -3.351   7.036  -3.369  0.00  0.00    -0.166 F 
ATOM     26  F   UNL     1      -1.232   7.207  -2.565  0.00  0.00    -0.166 F 
ENDBRANCH  19  23
ENDBRANCH  16  17
ENDBRANCH  15  16
ENDBRANCH  14  15
ENDBRANCH   1  14
TORSDOF 7
ENDMDL
MODEL 2
REMARK VINA RESULT:      -9.2      5.086      8.010
REMARK  Name = 
REMARK  7 active torsions:
REMARK  status: ('A' for Active; 'I' for Inactive)
REMARK    1  A    between atoms: C_2  and  N_3
REMARK    2  A    between atoms: C_2  and  C_17
REMARK    3  A    between atoms: N_3  and  C_4
REMARK    4  A    between atoms: C_4  and  C_5
REMARK    5  A    between atoms: C_5  and  C_6
REMARK    6  A    between atoms: C_6  and  C_7
REMARK    7  A    between atoms: C_11  and  C_12
REMARK                            x       y       z     vdW  Elec       q    Type
REMARK                         _______ _______ _______ _____ _____    ______ ____
ROOT
ATOM      1  N   UNL     1      -1.279   5.452  -2.316  0.00  0.00    -0.215 NA
ENDROOT
BRANCH   1   3
ATOM      2  C   UNL     1      -2.224   7.316  -3.384  0.00  0.00    +0.024 C 
ATOM      3  C   UNL     1      -0.699   6.632  -3.240  0.00  0.00    +0.095 C 
BRANCH   3   4
ATOM      4  C   UNL     1      -0.932   5.736  -4.602  0.00  0.00    -0.006 A 
ATOM      5  C   UNL     1      -0.071   6.083  -5.613  0.00  0.00    -0.003 A 
ATOM      6  C   UNL     1      -0.394   5.655  -6.894  0.00  0.00    -0.000 A 
ATOM      7  C   UNL     1       0.609   5.626  -7.835  0.00  0.00    -0.000 A 
ATOM      8  C   UNL     1       1.816   6.244  -7.550  0.00  0.00    -0.000 A 
ATOM      9  C   UNL     1       1.950   7.050  -6.439  0.00  0.00    -0.000 A 
ATOM     10  C   UNL     1      -1.698   5.261  -7.160  0.00  0.00    -0.000 A 
ATOM     11  C   UNL     1      -2.701   5.371  -6.211  0.00  0.00    -0.000 A 
ATOM     12  C   UNL     1       0.974   6.964  -5.486  0.00  0.00    -0.000 A 
ATOM     13  C   UNL     1      -2.286   5.683  -4.922  0.00  0.00    -0.003 A 
ENDBRANCH   3   4
ENDBRANCH   1   3
BRANCH   1  14
ATOM     14  C   UNL     1      -0.410   5.457  -1.161  0.00  0.00    +0.089 C 
BRANCH  14  15
ATOM     15  C   UNL     1       1.019   5.106  -1.497  0.00  0.00    +0.023 C 
BRANCH  15  16
ATOM     16  C   UNL     1       1.930   6.070  -0.745  0.00  0.00    +0.028 C 
BRANCH  16  17
ATOM     17  C   UNL     1       2.896   6.573  -1.760  0.00  0.00    -0.022 A 
ATOM     18  C   UNL     1       3.371   5.624  -2.658  0.00  0.00    -0.000 A 
ATOM     19  C   UNL     1       4.112   6.019  -3.737  0.00  0.00    +0.071 A 
ATOM     20  C   UNL     1       4.459   7.343  -3.828  0.00  0.00    +0.004 A 
ATOM     21  C   UNL     1       4.278   8.189  -2.742  0.00  0.00    -0.000 A 
ATOM     22  C   UNL     1       3.657   7.699  -1.600  0.00  0.00    -0.004 A 
BRANCH  19  23
ATOM     23  C   UNL     1       4.466   5.003  -4.760  0.00  0.00    +0.419 C 
ATOM     24  F   UNL     1       4.828   5.621  -5.935  0.00  0.00    -0.166 F 
ATOM     25  F   UNL     1       5.468   4.200  -4.256  0.00  0.00    -0.166 F 
ATOM     26  F   UNL     1       3.331   4.248  -5.031  0.00  0.00    -0.166 F 
ENDBRANCH  19  23
ENDBRANCH  16  17
ENDBRANCH  15  16
ENDBRANCH  14  15
ENDBRANCH   1  14
TORSDOF 7
ENDMDL
MODEL 3
REMARK VINA RESULT:      -9.2      3.616      8.686
REMARK  Name = 
REMARK  7 active torsions:
REMARK  status: ('A' for Active; 'I' for Inactive)
REMARK    1  A    between atoms: C_2  and  N_3
REMARK    2  A    between atoms: C_2  and  C_17
REMARK    3  A    between atoms: N_3  and  C_4
REMARK    4  A    between atoms: C_4  and  C_5
REMARK    5  A    between atoms: C_5  and  C_6
REMARK    6  A    between atoms: C_6  and  C_7
REMARK    7  A    between atoms: C_11  and  C_12
REMARK                            x       y       z     vdW  Elec       q    Type
REMARK                         _______ _______ _______ _____ _____    ______ ____
ROOT
ATOM      1  N   UNL     1       2.238   6.210  -5.053  0.00  0.00    -0.215 NA
ENDROOT
BRANCH   1   3
ATOM      2  C   UNL     1       1.495   4.183  -5.975  0.00  0.00    +0.024 C 
ATOM      3  C   UNL     1       1.312   5.007  -4.525  0.00  0.00    +0.095 C 
BRANCH   3   4
ATOM      4  C   UNL     1      -0.047   5.754  -5.079  0.00  0.00    -0.006 A 
ATOM      5  C   UNL     1      -1.053   5.777  -4.145  0.00  0.00    -0.003 A 
ATOM      6  C   UNL     1      -2.334   6.058  -4.602  0.00  0.00    -0.000 A 
ATOM      7  C   UNL     1      -3.266   6.482  -3.683  0.00  0.00    -0.000 A 
ATOM      8  C   UNL     1      -2.973   6.379  -2.332  0.00  0.00    -0.000 A 
ATOM      9  C   UNL     1      -1.867   5.679  -1.902  0.00  0.00    -0.000 A 
ATOM     10  C   UNL     1      -2.610   5.917  -5.954  0.00  0.00    -0.000 A 
ATOM     11  C   UNL     1      -1.670   5.418  -6.842  0.00  0.00    -0.000 A 
ATOM     12  C   UNL     1      -0.921   5.370  -2.841  0.00  0.00    -0.000 A 
ATOM     13  C   UNL     1      -0.380   5.280  -6.346  0.00  0.00    -0.003 A 
ENDBRANCH   3   4
ENDBRANCH   1   3
BRANCH   1  14
ATOM     14  C   UNL     1       3.320   5.540  -5.736  0.00  0.00    +0.089 C 
BRANCH  14  15
ATOM     15  C   UNL     1       3.945   6.383  -6.820  0.00  0.00    +0.023 C 
BRANCH  15  16
ATOM     16  C   UNL     1       2.846   7.228  -7.454  0.00  0.00    +0.028 C 
BRANCH  16  17
ATOM     17  C   UNL     1       2.792   6.803  -8.879  0.00  0.00    -0.022 A 
ATOM     18  C   UNL     1       1.614   6.183  -9.277  0.00  0.00    -0.000 A 
ATOM     19  C   UNL     1       1.393   5.925 -10.601  0.00  0.00    +0.071 A 
ATOM     20  C   UNL     1       2.410   6.187 -11.485  0.00  0.00    +0.004 A 
ATOM     21  C   UNL     1       3.688   6.464 -11.017  0.00  0.00    -0.000 A 
ATOM     22  C   UNL     1       3.899   6.563  -9.648  0.00  0.00    -0.004 A 
BRANCH  19  23
ATOM     23  C   UNL     1       0.061   5.411 -11.008  0.00  0.00    +0.419 C 
ATOM     24  F   UNL     1      -0.412   4.526 -10.065  0.00  0.00    -0.166 F 
ATOM     25  F   UNL     1      -0.787   6.482 -11.197  0.00  0.00    -0.166 F 
ATOM     26  F   UNL     1       0.215   4.700 -12.192  0.00  0.00    -0.166 F 
ENDBRANCH  19  23
ENDBRANCH  16  17
ENDBRANCH  15  16
ENDBRANCH  14  15
ENDBRANCH   1  14
TORSDOF 7
ENDMDL
MODEL 4
REMARK VINA RESULT:      -9.1      3.735      5.768
REMARK  Name = 
REMARK  7 active torsions:
REMARK  status: ('A' for Active; 'I' for Inactive)
REMARK    1  A    between atoms: C_2  and  N_3
REMARK    2  A    between atoms: C_2  and  C_17
REMARK    3  A    between atoms: N_3  and  C_4
REMARK    4  A    between atoms: C_4  and  C_5
REMARK    5  A    between atoms: C_5  and  C_6
REMARK    6  A    between atoms: C_6  and  C_7
REMARK    7  A    between atoms: C_11  and  C_12
REMARK                            x       y       z     vdW  Elec       q    Type
REMARK                         _______ _______ _______ _____ _____    ______ ____
ROOT
ATOM      1  N   UNL     1       5.432   5.054 -13.419  0.00  0.00    -0.215 NA
ENDROOT
BRANCH   1   3
ATOM      2  C   UNL     1       7.409   6.278 -13.092  0.00  0.00    +0.024 C 
ATOM      3  C   UNL     1       5.795   6.421 -12.655  0.00  0.00    +0.095 C 
BRANCH   3   4
ATOM      4  C   UNL     1       6.065   5.612 -11.247  0.00  0.00    -0.006 A 
ATOM      5  C   UNL     1       5.197   5.983 -10.252  0.00  0.00    -0.003 A 
ATOM      6  C   UNL     1       5.540   5.638  -8.951  0.00  0.00    -0.000 A 
ATOM      7  C   UNL     1       4.542   5.625  -8.004  0.00  0.00    -0.000 A 
ATOM      8  C   UNL     1       3.312   6.181  -8.316  0.00  0.00    -0.000 A 
ATOM      9  C   UNL     1       3.144   6.919  -9.469  0.00  0.00    -0.000 A 
ATOM     10  C   UNL     1       6.858   5.308  -8.671  0.00  0.00    -0.000 A 
ATOM     11  C   UNL     1       7.853   5.402  -9.630  0.00  0.00    -0.000 A 
ATOM     12  C   UNL     1       4.119   6.816 -10.422  0.00  0.00    -0.000 A 
ATOM     13  C   UNL     1       7.422   5.626 -10.932  0.00  0.00    -0.003 A 
ENDBRANCH   3   4
ENDBRANCH   1   3
BRANCH   1  14
ATOM     14  C   UNL     1       4.388   5.439 -14.341  0.00  0.00    +0.089 C 
BRANCH  14  15
ATOM     15  C   UNL     1       3.002   5.236 -13.780  0.00  0.00    +0.023 C 
BRANCH  15  16
ATOM     16  C   UNL     1       2.132   6.401 -14.241  0.00  0.00    +0.028 C 
BRANCH  16  17
ATOM     17  C   UNL     1       1.165   6.634 -13.133  0.00  0.00    -0.022 A 
ATOM     18  C   UNL     1       0.991   5.571 -12.255  0.00  0.00    -0.000 A 
ATOM     19  C   UNL     1       0.272   5.748 -11.105  0.00  0.00    +0.071 A 
ATOM     20  C   UNL     1      -0.355   6.954 -10.919  0.00  0.00    +0.004 A 
ATOM     21  C   UNL     1      -0.459   7.857 -11.969  0.00  0.00    -0.000 A 
ATOM     22  C   UNL     1       0.160   7.562 -13.177  0.00  0.00    -0.004 A 
BRANCH  19  23
ATOM     23  C   UNL     1       0.241   4.642 -10.116  0.00  0.00    +0.419 C 
ATOM     24  F   UNL     1       1.485   4.060 -10.017  0.00  0.00    -0.166 F 
ATOM     25  F   UNL     1      -0.206   5.140  -8.910  0.00  0.00    -0.166 F 
ATOM     26  F   UNL     1      -0.628   3.665 -10.587  0.00  0.00    -0.166 F 
ENDBRANCH  19  23
ENDBRANCH  16  17
ENDBRANCH  15  16
ENDBRANCH  14  15
ENDBRANCH   1  14
TORSDOF 7
ENDMDL
MODEL 5
REMARK VINA RESULT:      -9.0      4.459      9.629
REMARK  Name = 
REMARK  7 active torsions:
REMARK  status: ('A' for Active; 'I' for Inactive)
REMARK    1  A    between atoms: C_2  and  N_3
REMARK    2  A    between atoms: C_2  and  C_17
REMARK    3  A    between atoms: N_3  and  C_4
REMARK    4  A    between atoms: C_4  and  C_5
REMARK    5  A    between atoms: C_5  and  C_6
REMARK    6  A    between atoms: C_6  and  C_7
REMARK    7  A    between atoms: C_11  and  C_12
REMARK                            x       y       z     vdW  Elec       q    Type
REMARK                         _______ _______ _______ _____ _____    ______ ____
ROOT
ATOM      1  N   UNL     1       2.333   6.201  -5.871  0.00  0.00    -0.215 NA
ENDROOT
BRANCH   1   3
ATOM      2  C   UNL     1       1.393   4.053  -5.987  0.00  0.00    +0.024 C 
ATOM      3  C   UNL     1       1.547   5.260  -4.832  0.00  0.00    +0.095 C 
BRANCH   3   4
ATOM      4  C   UNL     1       0.101   5.915  -5.270  0.00  0.00    -0.006 A 
ATOM      5  C   UNL     1      -0.831   5.854  -4.264  0.00  0.00    -0.003 A 
ATOM      6  C   UNL     1      -2.159   6.047  -4.618  0.00  0.00    -0.000 A 
ATOM      7  C   UNL     1      -3.047   6.391  -3.625  0.00  0.00    -0.000 A 
ATOM      8  C   UNL     1      -2.647   6.293  -2.302  0.00  0.00    -0.000 A 
ATOM      9  C   UNL     1      -1.464   5.669  -1.968  0.00  0.00    -0.000 A 
ATOM     10  C   UNL     1      -2.526   5.903  -5.949  0.00  0.00    -0.000 A 
ATOM     11  C   UNL     1      -1.623   5.484  -6.913  0.00  0.00    -0.000 A 
ATOM     12  C   UNL     1      -0.573   5.441  -2.980  0.00  0.00    -0.000 A 
ATOM     13  C   UNL     1      -0.292   5.434  -6.517  0.00  0.00    -0.003 A 
ENDBRANCH   3   4
ENDBRANCH   1   3
BRANCH   1  14
ATOM     14  C   UNL     1       3.701   5.744  -5.786  0.00  0.00    +0.089 C 
BRANCH  14  15
ATOM     15  C   UNL     1       4.395   5.704  -7.126  0.00  0.00    +0.023 C 
BRANCH  15  16
ATOM     16  C   UNL     1       3.344   5.924  -8.208  0.00  0.00    +0.028 C 
BRANCH  16  17
ATOM     17  C   UNL     1       4.084   5.853  -9.497  0.00  0.00    -0.022 A 
ATOM     18  C   UNL     1       5.457   6.051  -9.413  0.00  0.00    -0.000 A 
ATOM     19  C   UNL     1       6.246   5.821 -10.505  0.00  0.00    +0.071 A 
ATOM     20  C   UNL     1       5.628   5.512 -11.691  0.00  0.00    +0.004 A 
ATOM     21  C   UNL     1       4.256   5.675 -11.827  0.00  0.00    -0.000 A 
ATOM     22  C   UNL     1       3.509   6.064 -10.722  0.00  0.00    -0.004 A 
BRANCH  19  23
ATOM     23  C   UNL     1       7.720   5.885 -10.337  0.00  0.00    +0.419 C 
ATOM     24  F   UNL     1       8.105   7.171 -10.029  0.00  0.00    -0.166 F 
ATOM     25  F   UNL     1       8.094   4.977  -9.370  0.00  0.00    -0.166 F 
ATOM     26  F   UNL     1       8.308   5.567 -11.555  0.00  0.00    -0.166 F 
ENDBRANCH  19  23
ENDBRANCH  16  17
ENDBRANCH  15  16
ENDBRANCH  14  15
ENDBRANCH   1  14
TORSDOF 7
ENDMDL
MODEL 6
REMARK VINA RESULT:      -9.0      1.568      3.390
REMARK  Name = 
REMARK  7 active torsions:
REMARK  status: ('A' for Active; 'I' for Inactive)
REMARK    1  A    between atoms: C_2  and  N_3
REMARK    2  A    between atoms: C_2  and  C_17
REMARK    3  A    between atoms: N_3  and  C_4
REMARK    4  A    between atoms: C_4  and  C_5
REMARK    5  A    between atoms: C_5  and  C_6
REMARK    6  A    between atoms: C_6  and  C_7
REMARK    7  A    between atoms: C_11  and  C_12
REMARK                            x       y       z     vdW  Elec       q    Type
REMARK                         _______ _______ _______ _____ _____    ______ ____
ROOT
ATOM      1  N   UNL     1       3.830   6.071  -7.614  0.00  0.00    -0.215 NA
ENDROOT
BRANCH   1   3
ATOM      2  C   UNL     1       5.672   5.026  -8.627  0.00  0.00    +0.024 C 
ATOM      3  C   UNL     1       4.019   4.759  -8.522  0.00  0.00    +0.095 C 
BRANCH   3   4
ATOM      4  C   UNL     1       3.755   5.623  -9.899  0.00  0.00    -0.006 A 
ATOM      5  C   UNL     1       2.494   5.432 -10.406  0.00  0.00    -0.003 A 
ATOM      6  C   UNL     1       2.275   5.819 -11.721  0.00  0.00    -0.000 A 
ATOM      7  C   UNL     1       0.976   6.022 -12.125  0.00  0.00    -0.000 A 
ATOM      8  C   UNL     1      -0.057   5.604 -11.301  0.00  0.00    -0.000 A 
ATOM      9  C   UNL     1       0.196   4.816 -10.198  0.00  0.00    -0.000 A 
ATOM     10  C   UNL     1       3.368   6.001 -12.557  0.00  0.00    -0.000 A 
ATOM     11  C   UNL     1       4.659   5.717 -12.141  0.00  0.00    -0.000 A 
ATOM     12  C   UNL     1       1.494   4.730  -9.779  0.00  0.00    -0.000 A 
ATOM     13  C   UNL     1       4.817   5.460 -10.785  0.00  0.00    -0.003 A 
ENDBRANCH   3   4
ENDBRANCH   1   3
BRANCH   1  14
ATOM     14  C   UNL     1       3.476   5.546  -6.315  0.00  0.00    +0.089 C 
BRANCH  14  15
ATOM     15  C   UNL     1       2.433   6.374  -5.607  0.00  0.00    +0.023 C 
BRANCH  15  16
ATOM     16  C   UNL     1       1.521   6.988  -6.664  0.00  0.00    +0.028 C 
BRANCH  16  17
ATOM     17  C   UNL     1       0.141   6.582  -6.279  0.00  0.00    -0.022 A 
ATOM     18  C   UNL     1      -0.295   7.038  -5.041  0.00  0.00    -0.000 A 
ATOM     19  C   UNL     1      -1.604   6.879  -4.679  0.00  0.00    +0.071 A 
ATOM     20  C   UNL     1      -2.419   6.161  -5.518  0.00  0.00    +0.004 A 
ATOM     21  C   UNL     1      -1.873   5.419  -6.558  0.00  0.00    -0.000 A 
ATOM     22  C   UNL     1      -0.506   5.490  -6.793  0.00  0.00    -0.004 A 
BRANCH  19  23
ATOM     23  C   UNL     1      -2.072   7.518  -3.424  0.00  0.00    +0.419 C 
ATOM     24  F   UNL     1      -1.239   7.177  -2.381  0.00  0.00    -0.166 F 
ATOM     25  F   UNL     1      -2.139   8.881  -3.620  0.00  0.00    -0.166 F 
ATOM     26  F   UNL     1      -3.329   7.009  -3.122  0.00  0.00    -0.166 F 
ENDBRANCH  19  23
ENDBRANCH  16  17
ENDBRANCH  15  16
ENDBRANCH  14  15
ENDBRANCH   1  14
TORSDOF 7
ENDMDL
MODEL 7
REMARK VINA RESULT:      -8.7      4.573      8.214
REMARK  Name = 
REMARK  7 active torsions:
REMARK  status: ('A' for Active; 'I' for Inactive)
REMARK    1  A    between atoms: C_2  and  N_3
REMARK    2  A    between atoms: C_2  and  C_17
REMARK    3  A    between atoms: N_3  and  C_4
REMARK    4  A    between atoms: C_4  and  C_5
REMARK    5  A    between atoms: C_5  and  C_6
REMARK    6  A    between atoms: C_6  and  C_7
REMARK    7  A    between atoms: C_11  and  C_12
REMARK                            x       y       z     vdW  Elec       q    Type
REMARK                         _______ _______ _______ _____ _____    ______ ____
ROOT
ATOM      1  N   UNL     1       1.894   6.837  -6.735  0.00  0.00    -0.215 NA
ENDROOT
BRANCH   1   3
ATOM      2  C   UNL     1       0.713   5.458  -8.223  0.00  0.00    +0.024 C 
ATOM      3  C   UNL     1       1.289   5.350  -6.651  0.00  0.00    +0.095 C 
BRANCH   3   4
ATOM      4  C   UNL     1      -0.135   5.919  -6.051  0.00  0.00    -0.006 A 
ATOM      5  C   UNL     1      -0.268   5.688  -4.705  0.00  0.00    -0.003 A 
ATOM      6  C   UNL     1      -1.543   5.801  -4.166  0.00  0.00    -0.000 A 
ATOM      7  C   UNL     1      -1.653   5.978  -2.806  0.00  0.00    -0.000 A 
ATOM      8  C   UNL     1      -0.534   5.792  -2.011  0.00  0.00    -0.000 A 
ATOM      9  C   UNL     1       0.618   5.241  -2.532  0.00  0.00    -0.000 A 
ATOM     10  C   UNL     1      -2.637   5.751  -5.017  0.00  0.00    -0.000 A 
ATOM     11  C   UNL     1      -2.496   5.499  -6.372  0.00  0.00    -0.000 A 
ATOM     12  C   UNL     1       0.718   5.182  -3.894  0.00  0.00    -0.000 A 
ATOM     13  C   UNL     1      -1.196   5.524  -6.862  0.00  0.00    -0.003 A 
ENDBRANCH   3   4
ENDBRANCH   1   3
BRANCH   1  14
ATOM     14  C   UNL     1       3.270   6.629  -7.126  0.00  0.00    +0.089 C 
BRANCH  14  15
ATOM     15  C   UNL     1       4.158   6.231  -5.973  0.00  0.00    +0.023 C 
BRANCH  15  16
ATOM     16  C   UNL     1       4.051   7.311  -4.901  0.00  0.00    +0.028 C 
BRANCH  16  17
ATOM     17  C   UNL     1       4.110   6.585  -3.602  0.00  0.00    -0.022 A 
ATOM     18  C   UNL     1       4.284   7.381  -2.477  0.00  0.00    -0.000 A 
ATOM     19  C   UNL     1       4.164   6.833  -1.230  0.00  0.00    +0.071 A 
ATOM     20  C   UNL     1       3.989   5.475  -1.139  0.00  0.00    +0.004 A 
ATOM     21  C   UNL     1       4.179   4.670  -2.255  0.00  0.00    -0.000 A 
ATOM     22  C   UNL     1       4.455   5.266  -3.479  0.00  0.00    -0.004 A 
BRANCH  19  23
ATOM     23  C   UNL     1       4.196   7.740  -0.055  0.00  0.00    +0.419 C 
ATOM     24  F   UNL     1       4.168   9.052  -0.470  0.00  0.00    -0.166 F 
ATOM     25  F   UNL     1       3.140   7.426   0.774  0.00  0.00    -0.166 F 
ATOM     26  F   UNL     1       5.404   7.549   0.605  0.00  0.00    -0.166 F 
ENDBRANCH  19  23
ENDBRANCH  16  17
ENDBRANCH  15  16
ENDBRANCH  14  15
ENDBRANCH   1  14
TORSDOF 7
ENDMDL
MODEL 8
REMARK VINA RESULT:      -8.7      5.293      8.951
REMARK  Name = 
REMARK  7 active torsions:
REMARK  status: ('A' for Active; 'I' for Inactive)
REMARK    1  A    between atoms: C_2  and  N_3
REMARK    2  A    between atoms: C_2  and  C_17
REMARK    3  A    between atoms: N_3  and  C_4
REMARK    4  A    between atoms: C_4  and  C_5
REMARK    5  A    between atoms: C_5  and  C_6
REMARK    6  A    between atoms: C_6  and  C_7
REMARK    7  A    between atoms: C_11  and  C_12
REMARK                            x       y       z     vdW  Elec       q    Type
REMARK                         _______ _______ _______ _____ _____    ______ ____
ROOT
ATOM      1  N   UNL     1       0.728   4.570  -1.609  0.00  0.00    -0.215 NA
ENDROOT
BRANCH   1   3
ATOM      2  C   UNL     1      -0.192   6.570  -0.794  0.00  0.00    +0.024 C 
ATOM      3  C   UNL     1       0.484   6.032  -2.232  0.00  0.00    +0.095 C 
BRANCH   3   4
ATOM      4  C   UNL     1      -0.994   5.587  -2.804  0.00  0.00    -0.006 A 
ATOM      5  C   UNL     1      -1.096   5.725  -4.165  0.00  0.00    -0.003 A 
ATOM      6  C   UNL     1      -2.373   5.719  -4.709  0.00  0.00    -0.000 A 
ATOM      7  C   UNL     1      -2.499   5.450  -6.053  0.00  0.00    -0.000 A 
ATOM      8  C   UNL     1      -1.363   5.442  -6.846  0.00  0.00    -0.000 A 
ATOM      9  C   UNL     1      -0.157   5.894  -6.355  0.00  0.00    -0.000 A 
ATOM     10  C   UNL     1      -3.457   5.962  -3.878  0.00  0.00    -0.000 A 
ATOM     11  C   UNL     1      -3.292   6.302  -2.545  0.00  0.00    -0.000 A 
ATOM     12  C   UNL     1      -0.054   6.048  -5.000  0.00  0.00    -0.000 A 
ATOM     13  C   UNL     1      -2.005   6.165  -2.039  0.00  0.00    -0.003 A 
ENDBRANCH   3   4
ENDBRANCH   1   3
BRANCH   1  14
ATOM     14  C   UNL     1       1.868   4.750  -0.739  0.00  0.00    +0.089 C 
BRANCH  14  15
ATOM     15  C   UNL     1       3.039   3.876  -1.112  0.00  0.00    +0.023 C 
BRANCH  15  16
ATOM     16  C   UNL     1       4.303   4.726  -1.042  0.00  0.00    +0.028 C 
BRANCH  16  17
ATOM     17  C   UNL     1       4.150   5.750  -2.112  0.00  0.00    -0.022 A 
ATOM     18  C   UNL     1       4.122   5.259  -3.412  0.00  0.00    -0.000 A 
ATOM     19  C   UNL     1       3.799   6.092  -4.447  0.00  0.00    +0.071 A 
ATOM     20  C   UNL     1       3.627   7.425  -4.169  0.00  0.00    +0.004 A 
ATOM     21  C   UNL     1       4.013   7.938  -2.937  0.00  0.00    -0.000 A 
ATOM     22  C   UNL     1       4.485   7.068  -1.962  0.00  0.00    -0.004 A 
BRANCH  19  23
ATOM     23  C   UNL     1       3.621   5.503  -5.798  0.00  0.00    +0.419 C 
ATOM     24  F   UNL     1       2.814   4.389  -5.725  0.00  0.00    -0.166 F 
ATOM     25  F   UNL     1       3.112   6.470  -6.638  0.00  0.00    -0.166 F 
ATOM     26  F   UNL     1       4.863   5.074  -6.249  0.00  0.00    -0.166 F 
ENDBRANCH  19  23
ENDBRANCH  16  17
ENDBRANCH  15  16
ENDBRANCH  14  15
ENDBRANCH   1  14
TORSDOF 7
ENDMDL
MODEL 9
REMARK VINA RESULT:      -8.7      4.605      8.862
REMARK  Name = 
REMARK  7 active torsions:
REMARK  status: ('A' for Active; 'I' for Inactive)
REMARK    1  A    between atoms: C_2  and  N_3
REMARK    2  A    between atoms: C_2  and  C_17
REMARK    3  A    between atoms: N_3  and  C_4
REMARK    4  A    between atoms: C_4  and  C_5
REMARK    5  A    between atoms: C_5  and  C_6
REMARK    6  A    between atoms: C_6  and  C_7
REMARK    7  A    between atoms: C_11  and  C_12
REMARK                            x       y       z     vdW  Elec       q    Type
REMARK                         _______ _______ _______ _____ _____    ______ ____
ROOT
ATOM      1  N   UNL     1       3.052   5.062  -4.105  0.00  0.00    -0.215 NA
ENDROOT
BRANCH   1   3
ATOM      2  C   UNL     1       2.346   6.508  -2.395  0.00  0.00    +0.024 C 
ATOM      3  C   UNL     1       2.310   6.488  -4.072  0.00  0.00    +0.095 C 
BRANCH   3   4
ATOM      4  C   UNL     1       0.831   5.766  -4.069  0.00  0.00    -0.006 A 
ATOM      5  C   UNL     1       0.212   5.828  -5.293  0.00  0.00    -0.003 A 
ATOM      6  C   UNL     1      -1.152   5.574  -5.327  0.00  0.00    -0.000 A 
ATOM      7  C   UNL     1      -1.714   5.232  -6.535  0.00  0.00    -0.000 A 
ATOM      8  C   UNL     1      -0.968   5.393  -7.692  0.00  0.00    -0.000 A 
ATOM      9  C   UNL     1       0.232   6.071  -7.669  0.00  0.00    -0.000 A 
ATOM     10  C   UNL     1      -1.879   5.656  -4.147  0.00  0.00    -0.000 A 
ATOM     11  C   UNL     1      -1.298   6.074  -2.961  0.00  0.00    -0.000 A 
ATOM     12  C   UNL     1       0.797   6.296  -6.444  0.00  0.00    -0.000 A 
ATOM     13  C   UNL     1       0.087   6.187  -2.970  0.00  0.00    -0.003 A 
ENDBRANCH   3   4
ENDBRANCH   1   3
BRANCH   1  14
ATOM     14  C   UNL     1       4.382   5.374  -4.576  0.00  0.00    +0.089 C 
BRANCH  14  15
ATOM     15  C   UNL     1       4.388   6.030  -5.935  0.00  0.00    +0.023 C 
BRANCH  15  16
ATOM     16  C   UNL     1       4.046   4.966  -6.973  0.00  0.00    +0.028 C 
BRANCH  16  17
ATOM     17  C   UNL     1       4.399   5.570  -8.288  0.00  0.00    -0.022 A 
ATOM     18  C   UNL     1       5.746   5.528  -8.625  0.00  0.00    -0.000 A 
ATOM     19  C   UNL     1       6.145   5.884  -9.883  0.00  0.00    +0.071 A 
ATOM     20  C   UNL     1       5.198   6.387 -10.739  0.00  0.00    +0.004 A 
ATOM     21  C   UNL     1       3.946   6.750 -10.260  0.00  0.00    -0.000 A 
ATOM     22  C   UNL     1       3.637   6.511  -8.927  0.00  0.00    -0.004 A 
BRANCH  19  23
ATOM     23  C   UNL     1       7.566   5.675 -10.259  0.00  0.00    +0.419 C 
ATOM     24  F   UNL     1       8.184   6.888 -10.465  0.00  0.00    -0.166 F 
ATOM     25  F   UNL     1       8.179   4.932  -9.272  0.00  0.00    -0.166 F 
ATOM     26  F   UNL     1       7.598   4.992 -11.469  0.00  0.00    -0.166 F 
ENDBRANCH  19  23
ENDBRANCH  16  17
ENDBRANCH  15  16
ENDBRANCH  14  15
ENDBRANCH   1  14
TORSDOF 7
ENDMDL
