MODEL 1
REMARK VINA RESULT:      -3.5      0.000      0.000
REMARK  Name = 
REMARK  2 active torsions:
REMARK  status: ('A' for Active; 'I' for Inactive)
REMARK    1  A    between atoms: CA_2  and  CB_3
REMARK    2  A    between atoms: CA_2  and  C_5
REMARK                            x       y       z     vdW  Elec       q    Type
REMARK                         _______ _______ _______ _____ _____    ______ ____
ROOT
ATOM      1  N   CYS A   1       7.891   6.985 -10.273  0.00  0.00    -0.120 NA
ATOM      2  CA  CYS A   1       7.488   5.498 -10.612  0.00  0.00    +0.206 C 
ENDROOT
BRANCH   2   3
ATOM      3  C   CYS A   1       8.246   5.542 -12.030  0.00  0.00    +0.383 C 
ATOM      4  OXT CYS A   1       7.718   4.619 -12.917  0.00  0.00    -0.244 OA
ATOM      5  O   CYS A   1       9.408   5.881 -12.117  0.00  0.00    -0.244 OA
ENDBRANCH   2   3
BRANCH   2   6
ATOM      6  CB  CYS A   1       6.026   5.969 -11.206  0.00  0.00    +0.099 C 
ATOM      7  SG  CYS A   1       6.161   7.759 -11.363  0.00  0.00    -0.080 S 
ENDBRANCH   2   6
TORSDOF 2
ENDMDL
MODEL 2
REMARK VINA RESULT:      -3.4      1.620      1.749
REMARK  Name = 
REMARK  2 active torsions:
REMARK  status: ('A' for Active; 'I' for Inactive)
REMARK    1  A    between atoms: CA_2  and  CB_3
REMARK    2  A    between atoms: CA_2  and  C_5
REMARK                            x       y       z     vdW  Elec       q    Type
REMARK                         _______ _______ _______ _____ _____    ______ ____
ROOT
ATOM      1  N   CYS A   1       6.063   5.731 -12.008  0.00  0.00    -0.120 NA
ATOM      2  CA  CYS A   1       7.240   6.744 -11.728  0.00  0.00    +0.206 C 
ENDROOT
BRANCH   2   3
ATOM      3  C   CYS A   1       8.325   5.787 -12.431  0.00  0.00    +0.383 C 
ATOM      4  OXT CYS A   1       7.785   4.551 -12.746  0.00  0.00    -0.244 OA
ATOM      5  O   CYS A   1       9.511   5.896 -12.197  0.00  0.00    -0.244 OA
ENDBRANCH   2   3
BRANCH   2   6
ATOM      6  CB  CYS A   1       7.469   6.146 -10.210  0.00  0.00    +0.099 C 
ATOM      7  SG  CYS A   1       5.813   5.720  -9.641  0.00  0.00    -0.080 S 
ENDBRANCH   2   6
TORSDOF 2
ENDMDL
MODEL 3
REMARK VINA RESULT:      -3.3     12.502     13.023
REMARK  Name = 
REMARK  2 active torsions:
REMARK  status: ('A' for Active; 'I' for Inactive)
REMARK    1  A    between atoms: CA_2  and  CB_3
REMARK    2  A    between atoms: CA_2  and  C_5
REMARK                            x       y       z     vdW  Elec       q    Type
REMARK                         _______ _______ _______ _____ _____    ______ ____
ROOT
ATOM      1  N   CYS A   1      -0.603   4.906  -1.734  0.00  0.00    -0.120 NA
ATOM      2  CA  CYS A   1      -1.101   6.296  -2.291  0.00  0.00    +0.206 C 
ENDROOT
BRANCH   2   3
ATOM      3  C   CYS A   1      -2.646   5.859  -2.199  0.00  0.00    +0.383 C 
ATOM      4  OXT CYS A   1      -2.852   4.601  -2.741  0.00  0.00    -0.244 OA
ATOM      5  O   CYS A   1      -3.538   6.682  -2.204  0.00  0.00    -0.244 OA
ENDBRANCH   2   3
BRANCH   2   6
ATOM      6  CB  CYS A   1      -0.897   5.808  -3.851  0.00  0.00    +0.099 C 
ATOM      7  SG  CYS A   1      -1.041   7.323  -4.817  0.00  0.00    -0.080 S 
ENDBRANCH   2   6
TORSDOF 2
ENDMDL
MODEL 4
REMARK VINA RESULT:      -3.2     12.227     12.803
REMARK  Name = 
REMARK  2 active torsions:
REMARK  status: ('A' for Active; 'I' for Inactive)
REMARK    1  A    between atoms: CA_2  and  CB_3
REMARK    2  A    between atoms: CA_2  and  C_5
REMARK                            x       y       z     vdW  Elec       q    Type
REMARK                         _______ _______ _______ _____ _____    ______ ____
ROOT
ATOM      1  N   CYS A   1      -2.183   7.498  -3.886  0.00  0.00    -0.120 NA
ATOM      2  CA  CYS A   1      -2.222   6.014  -4.417  0.00  0.00    +0.206 C 
ENDROOT
BRANCH   2   3
ATOM      3  C   CYS A   1      -3.069   5.508  -3.146  0.00  0.00    +0.383 C 
ATOM      4  OXT CYS A   1      -3.920   6.494  -2.677  0.00  0.00    -0.244 OA
ATOM      5  O   CYS A   1      -2.633   4.664  -2.391  0.00  0.00    -0.244 OA
ENDBRANCH   2   3
BRANCH   2   6
ATOM      6  CB  CYS A   1      -0.749   5.679  -3.760  0.00  0.00    +0.099 C 
ATOM      7  SG  CYS A   1       0.297   5.297  -5.178  0.00  0.00    -0.080 S 
ENDBRANCH   2   6
TORSDOF 2
ENDMDL
MODEL 5
REMARK VINA RESULT:      -3.2      2.204      2.448
REMARK  Name = 
REMARK  2 active torsions:
REMARK  status: ('A' for Active; 'I' for Inactive)
REMARK    1  A    between atoms: CA_2  and  CB_3
REMARK    2  A    between atoms: CA_2  and  C_5
REMARK                            x       y       z     vdW  Elec       q    Type
REMARK                         _______ _______ _______ _____ _____    ______ ____
ROOT
ATOM      1  N   CYS A   1       7.339   4.913 -13.449  0.00  0.00    -0.120 NA
ATOM      2  CA  CYS A   1       7.306   6.354 -12.809  0.00  0.00    +0.206 C 
ENDROOT
BRANCH   2   3
ATOM      3  C   CYS A   1       8.390   5.956 -11.688  0.00  0.00    +0.383 C 
ATOM      4  OXT CYS A   1       9.669   5.898 -12.216  0.00  0.00    -0.244 OA
ATOM      5  O   CYS A   1       8.089   5.272 -10.732  0.00  0.00    -0.244 OA
ENDBRANCH   2   3
BRANCH   2   6
ATOM      6  CB  CYS A   1       5.992   5.978 -11.889  0.00  0.00    +0.099 C 
ATOM      7  SG  CYS A   1       4.824   5.251 -13.053  0.00  0.00    -0.080 S 
ENDBRANCH   2   6
TORSDOF 2
ENDMDL
MODEL 6
REMARK VINA RESULT:      -3.1     11.873     12.136
REMARK  Name = 
REMARK  2 active torsions:
REMARK  status: ('A' for Active; 'I' for Inactive)
REMARK    1  A    between atoms: CA_2  and  CB_3
REMARK    2  A    between atoms: CA_2  and  C_5
REMARK                            x       y       z     vdW  Elec       q    Type
REMARK                         _______ _______ _______ _____ _____    ______ ____
ROOT
ATOM      1  N   CYS A   1      -0.117   6.110  -4.288  0.00  0.00    -0.120 NA
ATOM      2  CA  CYS A   1      -1.539   6.533  -3.752  0.00  0.00    +0.206 C 
ENDROOT
BRANCH   2   3
ATOM      3  C   CYS A   1      -1.644   5.237  -2.806  0.00  0.00    +0.383 C 
ATOM      4  OXT CYS A   1      -2.929   4.720  -2.793  0.00  0.00    -0.244 OA
ATOM      5  O   CYS A   1      -0.916   5.092  -1.846  0.00  0.00    -0.244 OA
ENDBRANCH   2   3
BRANCH   2   6
ATOM      6  CB  CYS A   1      -2.295   5.843  -5.042  0.00  0.00    +0.099 C 
ATOM      7  SG  CYS A   1      -0.980   5.583  -6.246  0.00  0.00    -0.080 S 
ENDBRANCH   2   6
TORSDOF 2
ENDMDL
MODEL 7
REMARK VINA RESULT:      -2.9      6.689      7.041
REMARK  Name = 
REMARK  2 active torsions:
REMARK  status: ('A' for Active; 'I' for Inactive)
REMARK    1  A    between atoms: CA_2  and  CB_3
REMARK    2  A    between atoms: CA_2  and  C_5
REMARK                            x       y       z     vdW  Elec       q    Type
REMARK                         _______ _______ _______ _____ _____    ______ ____
ROOT
ATOM      1  N   CYS A   1       3.145   7.307  -6.282  0.00  0.00    -0.120 NA
ATOM      2  CA  CYS A   1       3.353   6.360  -7.526  0.00  0.00    +0.206 C 
ENDROOT
BRANCH   2   3
ATOM      3  C   CYS A   1       2.401   7.261  -8.459  0.00  0.00    +0.383 C 
ATOM      4  OXT CYS A   1       2.102   8.473  -7.860  0.00  0.00    -0.244 OA
ATOM      5  O   CYS A   1       1.625   6.758  -9.245  0.00  0.00    -0.244 OA
ENDBRANCH   2   3
BRANCH   2   6
ATOM      6  CB  CYS A   1       2.157   5.344  -7.025  0.00  0.00    +0.099 C 
ATOM      7  SG  CYS A   1       2.648   4.862  -5.359  0.00  0.00    -0.080 S 
ENDBRANCH   2   6
TORSDOF 2
ENDMDL
MODEL 8
REMARK VINA RESULT:      -2.8      6.740      7.163
REMARK  Name = 
REMARK  2 active torsions:
REMARK  status: ('A' for Active; 'I' for Inactive)
REMARK    1  A    between atoms: CA_2  and  CB_3
REMARK    2  A    between atoms: CA_2  and  C_5
REMARK                            x       y       z     vdW  Elec       q    Type
REMARK                         _______ _______ _______ _____ _____    ______ ____
ROOT
ATOM      1  N   CYS A   1       2.137   8.067  -7.860  0.00  0.00    -0.120 NA
ATOM      2  CA  CYS A   1       2.142   6.868  -8.885  0.00  0.00    +0.206 C 
ENDROOT
BRANCH   2   3
ATOM      3  C   CYS A   1       1.050   6.047  -8.037  0.00  0.00    +0.383 C 
ATOM      4  OXT CYS A   1      -0.011   5.644  -8.830  0.00  0.00    -0.244 OA
ATOM      5  O   CYS A   1       0.887   6.247  -6.851  0.00  0.00    -0.244 OA
ENDBRANCH   2   3
BRANCH   2   6
ATOM      6  CB  CYS A   1       3.449   6.177  -8.159  0.00  0.00    +0.099 C 
ATOM      7  SG  CYS A   1       3.527   4.519  -8.861  0.00  0.00    -0.080 S 
ENDBRANCH   2   6
TORSDOF 2
ENDMDL
MODEL 9
REMARK VINA RESULT:      -2.8      6.252      6.686
REMARK  Name = 
REMARK  2 active torsions:
REMARK  status: ('A' for Active; 'I' for Inactive)
REMARK    1  A    between atoms: CA_2  and  CB_3
REMARK    2  A    between atoms: CA_2  and  C_5
REMARK                            x       y       z     vdW  Elec       q    Type
REMARK                         _______ _______ _______ _____ _____    ______ ____
ROOT
ATOM      1  N   CYS A   1       2.128   8.141  -7.803  0.00  0.00    -0.120 NA
ATOM      2  CA  CYS A   1       2.508   7.001  -6.781  0.00  0.00    +0.206 C 
ENDROOT
BRANCH   2   3
ATOM      3  C   CYS A   1       3.473   6.275  -7.843  0.00  0.00    +0.383 C 
ATOM      4  OXT CYS A   1       4.556   5.678  -7.220  0.00  0.00    -0.244 OA
ATOM      5  O   CYS A   1       3.564   6.667  -8.987  0.00  0.00    -0.244 OA
ENDBRANCH   2   3
BRANCH   2   6
ATOM      6  CB  CYS A   1       1.168   6.126  -7.171  0.00  0.00    +0.099 C 
ATOM      7  SG  CYS A   1       1.230   4.697  -6.074  0.00  0.00    -0.080 S 
ENDBRANCH   2   6
TORSDOF 2
ENDMDL
