MODEL 1
REMARK VINA RESULT:      -8.0      0.000      0.000
REMARK  Name = 
REMARK  13 active torsions:
REMARK  status: ('A' for Active; 'I' for Inactive)
REMARK    1  A    between atoms: C_2  and  O_4
REMARK    2  A    between atoms: O_4  and  C_5
REMARK    3  A    between atoms: C_5  and  C_7
REMARK    4  A    between atoms: C_7  and  C_8
REMARK    5  A    between atoms: C_8  and  C_9
REMARK    6  A    between atoms: C_9  and  C_10
REMARK    7  A    between atoms: C_11  and  C_12
REMARK    8  A    between atoms: C_12  and  C_13
REMARK    9  A    between atoms: C_14  and  C_15
REMARK   10  A    between atoms: C_16  and  C_17
REMARK   11  A    between atoms: C_17  and  C_20
REMARK   12  A    between atoms: C_20  and  O_21
REMARK   13  A    between atoms: O_21  and  C_22
REMARK                            x       y       z     vdW  Elec       q    Type
REMARK                         _______ _______ _______ _____ _____    ______ ____
ROOT
ATOM      1  C   UNL     1       2.753   5.815  -8.107  0.00  0.00    +0.041 C 
ATOM      2  C   UNL     1       2.068   7.047  -9.038  0.00  0.00    +0.155 C 
ATOM      3  O   UNL     1       2.433   6.544 -10.429  0.00  0.00    -0.223 OA
ATOM      4  C   UNL     1       0.546   6.599  -9.112  0.00  0.00    +0.066 C 
ATOM      5  C   UNL     1       0.458   5.006  -9.092  0.00  0.00    +0.159 C 
ATOM      6  O   UNL     1       1.439   4.647 -10.188  0.00  0.00    -0.223 OA
ATOM      7  C   UNL     1       1.472   4.825  -7.756  0.00  0.00    +0.055 C 
ENDROOT
BRANCH   7   8
ATOM      8  C   UNL     1       0.708   5.950  -6.906  0.00  0.00    -0.023 C 
ATOM      9  C   UNL     1       0.090   5.507  -5.832  0.00  0.00    +0.038 C 
BRANCH   9  10
ATOM     10  C   UNL     1      -0.531   6.396  -4.790  0.00  0.00    +0.322 C 
ATOM     11  F   UNL     1      -1.846   6.002  -4.542  0.00  0.00    -0.196 F 
ATOM     12  F   UNL     1      -0.554   7.630  -5.364  0.00  0.00    -0.196 F 
BRANCH  10  13
ATOM     13  C   UNL     1       0.237   6.141  -3.610  0.00  0.00    +0.276 C 
BRANCH  13  14
ATOM     14  O   UNL     1       1.373   5.493  -3.467  0.00  0.00    -0.469 OA
BRANCH  14  15
ATOM     15  C   UNL     1       2.701   5.772  -3.645  0.00  0.00    +0.139 A 
ATOM     16  C   UNL     1       3.486   4.880  -4.331  0.00  0.00    +0.037 A 
ATOM     17  C   UNL     1       4.588   5.378  -5.016  0.00  0.00    +0.003 A 
ATOM     18  C   UNL     1       4.805   6.746  -5.073  0.00  0.00    +0.000 A 
ATOM     19  C   UNL     1       4.263   7.502  -4.041  0.00  0.00    +0.003 A 
ATOM     20  C   UNL     1       3.027   7.125  -3.578  0.00  0.00    +0.037 A 
ENDBRANCH  14  15
ENDBRANCH  13  14
ENDBRANCH  10  13
ENDBRANCH   9  10
ENDBRANCH   7   8
BRANCH   1  21
ATOM     21  C   UNL     1       3.475   4.911  -9.250  0.00  0.00    +0.029 C 
BRANCH  21  23
ATOM     22  C   UNL     1       5.719   5.537  -8.730  0.00  0.00    -0.031 C 
ATOM     23  C   UNL     1       4.766   4.614  -8.573  0.00  0.00    -0.031 C 
BRANCH  22  24
ATOM     24  C   UNL     1       5.902   6.277  -9.994  0.00  0.00    +0.026 C 
BRANCH  24  25
ATOM     25  C   UNL     1       7.326   6.654 -10.283  0.00  0.00    +0.016 C 
BRANCH  25  26
ATOM     26  C   UNL     1       8.053   5.393 -10.700  0.00  0.00    +0.110 C 
BRANCH  26  27
ATOM     27  C   UNL     1       8.477   5.428 -12.112  0.00  0.00    +0.317 C 
ATOM     28  O   UNL     1       9.550   6.004 -12.447  0.00  0.00    -0.250 OA
BRANCH  27  29
ATOM     29  O   UNL     1       7.688   4.920 -13.115  0.00  0.00    -0.452 OA
BRANCH  29  31
ATOM     30  C   UNL     1       6.768   5.662 -14.344  0.00  0.00    +0.047 C 
ATOM     31  C   UNL     1       6.705   5.701 -13.792  0.00  0.00    +0.169 C 
ATOM     32  C   UNL     1       5.289   5.248 -13.443  0.00  0.00    +0.047 C 
ENDBRANCH  29  31
ENDBRANCH  27  29
ENDBRANCH  26  27
ENDBRANCH  25  26
ENDBRANCH  24  25
ENDBRANCH  22  24
ENDBRANCH  21  23
ENDBRANCH   1  21
TORSDOF 13
ENDMDL
MODEL 2
REMARK VINA RESULT:      -8.0      3.347      9.133
REMARK  Name = 
REMARK  13 active torsions:
REMARK  status: ('A' for Active; 'I' for Inactive)
REMARK    1  A    between atoms: C_2  and  O_4
REMARK    2  A    between atoms: O_4  and  C_5
REMARK    3  A    between atoms: C_5  and  C_7
REMARK    4  A    between atoms: C_7  and  C_8
REMARK    5  A    between atoms: C_8  and  C_9
REMARK    6  A    between atoms: C_9  and  C_10
REMARK    7  A    between atoms: C_11  and  C_12
REMARK    8  A    between atoms: C_12  and  C_13
REMARK    9  A    between atoms: C_14  and  C_15
REMARK   10  A    between atoms: C_16  and  C_17
REMARK   11  A    between atoms: C_17  and  C_20
REMARK   12  A    between atoms: C_20  and  O_21
REMARK   13  A    between atoms: O_21  and  C_22
REMARK                            x       y       z     vdW  Elec       q    Type
REMARK                         _______ _______ _______ _____ _____    ______ ____
ROOT
ATOM      1  C   UNL     1       1.101   6.076  -7.767  0.00  0.00    +0.041 C 
ATOM      2  C   UNL     1       1.917   7.268  -6.889  0.00  0.00    +0.155 C 
ATOM      3  O   UNL     1       1.446   6.912  -5.485  0.00  0.00    -0.223 OA
ATOM      4  C   UNL     1       3.361   6.628  -6.728  0.00  0.00    +0.066 C 
ATOM      5  C   UNL     1       3.236   5.039  -6.644  0.00  0.00    +0.159 C 
ATOM      6  O   UNL     1       2.182   4.888  -5.567  0.00  0.00    -0.223 OA
ATOM      7  C   UNL     1       2.247   4.904  -8.005  0.00  0.00    +0.055 C 
ENDROOT
BRANCH   7   8
ATOM      8  C   UNL     1       3.181   5.858  -8.893  0.00  0.00    -0.023 C 
ATOM      9  C   UNL     1       3.742   5.274  -9.930  0.00  0.00    +0.038 C 
BRANCH   9  10
ATOM     10  C   UNL     1       4.502   6.006 -11.002  0.00  0.00    +0.322 C 
ATOM     11  F   UNL     1       5.841   5.614 -10.996  0.00  0.00    -0.196 F 
ATOM     12  F   UNL     1       4.436   7.314 -10.634  0.00  0.00    -0.196 F 
BRANCH  10  13
ATOM     13  C   UNL     1       3.912   5.548 -12.222  0.00  0.00    +0.276 C 
BRANCH  13  14
ATOM     14  O   UNL     1       2.836   5.970 -12.851  0.00  0.00    -0.469 OA
BRANCH  14  15
ATOM     15  C   UNL     1       1.496   6.036 -12.583  0.00  0.00    +0.139 A 
ATOM     16  C   UNL     1       0.898   5.002 -11.905  0.00  0.00    +0.037 A 
ATOM     17  C   UNL     1      -0.220   5.294 -11.132  0.00  0.00    +0.003 A 
ATOM     18  C   UNL     1      -0.634   6.608 -10.985  0.00  0.00    +0.000 A 
ATOM     19  C   UNL     1      -0.278   7.487 -12.002  0.00  0.00    +0.003 A 
ATOM     20  C   UNL     1       0.968   7.324 -12.554  0.00  0.00    +0.037 A 
ENDBRANCH  14  15
ENDBRANCH  13  14
ENDBRANCH  10  13
ENDBRANCH   9  10
ENDBRANCH   7   8
BRANCH   1  21
ATOM     21  C   UNL     1       0.230   5.355  -6.599  0.00  0.00    +0.029 C 
BRANCH  21  23
ATOM     22  C   UNL     1      -2.103   5.858  -6.585  0.00  0.00    -0.031 C 
ATOM     23  C   UNL     1      -1.100   5.294  -7.263  0.00  0.00    -0.031 C 
BRANCH  22  24
ATOM     24  C   UNL     1      -2.204   5.785  -5.115  0.00  0.00    +0.026 C 
BRANCH  24  25
ATOM     25  C   UNL     1      -2.105   7.116  -4.427  0.00  0.00    +0.016 C 
BRANCH  25  26
ATOM     26  C   UNL     1      -2.724   6.963  -3.053  0.00  0.00    +0.110 C 
BRANCH  26  27
ATOM     27  C   UNL     1      -2.069   5.911  -2.254  0.00  0.00    +0.317 C 
ATOM     28  O   UNL     1      -2.705   4.877  -1.908  0.00  0.00    -0.250 OA
BRANCH  27  29
ATOM     29  O   UNL     1      -0.785   6.053  -1.788  0.00  0.00    -0.452 OA
BRANCH  29  31
ATOM     30  C   UNL     1       0.475   5.216  -2.574  0.00  0.00    +0.047 C 
ATOM     31  C   UNL     1       0.248   5.113  -2.076  0.00  0.00    +0.169 C 
ATOM     32  C   UNL     1       1.359   5.161  -1.031  0.00  0.00    +0.047 C 
ENDBRANCH  29  31
ENDBRANCH  27  29
ENDBRANCH  26  27
ENDBRANCH  25  26
ENDBRANCH  24  25
ENDBRANCH  22  24
ENDBRANCH  21  23
ENDBRANCH   1  21
TORSDOF 13
ENDMDL
MODEL 3
REMARK VINA RESULT:      -7.9      3.897      8.052
REMARK  Name = 
REMARK  13 active torsions:
REMARK  status: ('A' for Active; 'I' for Inactive)
REMARK    1  A    between atoms: C_2  and  O_4
REMARK    2  A    between atoms: O_4  and  C_5
REMARK    3  A    between atoms: C_5  and  C_7
REMARK    4  A    between atoms: C_7  and  C_8
REMARK    5  A    between atoms: C_8  and  C_9
REMARK    6  A    between atoms: C_9  and  C_10
REMARK    7  A    between atoms: C_11  and  C_12
REMARK    8  A    between atoms: C_12  and  C_13
REMARK    9  A    between atoms: C_14  and  C_15
REMARK   10  A    between atoms: C_16  and  C_17
REMARK   11  A    between atoms: C_17  and  C_20
REMARK   12  A    between atoms: C_20  and  O_21
REMARK   13  A    between atoms: O_21  and  C_22
REMARK                            x       y       z     vdW  Elec       q    Type
REMARK                         _______ _______ _______ _____ _____    ______ ____
ROOT
ATOM      1  C   UNL     1       1.477   5.583  -6.775  0.00  0.00    +0.041 C 
ATOM      2  C   UNL     1       2.568   4.985  -7.918  0.00  0.00    +0.155 C 
ATOM      3  O   UNL     1       1.714   5.115  -9.172  0.00  0.00    -0.223 OA
ATOM      4  C   UNL     1       3.466   6.260  -8.217  0.00  0.00    +0.066 C 
ATOM      5  C   UNL     1       2.582   7.582  -8.069  0.00  0.00    +0.159 C 
ATOM      6  O   UNL     1       1.393   7.234  -8.940  0.00  0.00    -0.223 OA
ATOM      7  C   UNL     1       1.945   7.158  -6.566  0.00  0.00    +0.055 C 
ENDROOT
BRANCH   7   8
ATOM      8  C   UNL     1       3.377   6.757  -5.967  0.00  0.00    -0.023 C 
ATOM      9  C   UNL     1       3.635   7.246  -4.773  0.00  0.00    +0.038 C 
BRANCH   9  10
ATOM     10  C   UNL     1       4.826   6.856  -3.941  0.00  0.00    +0.322 C 
ATOM     11  F   UNL     1       5.928   7.640  -4.281  0.00  0.00    -0.196 F 
ATOM     12  F   UNL     1       5.086   5.570  -4.300  0.00  0.00    -0.196 F 
BRANCH  10  13
ATOM     13  C   UNL     1       4.441   7.189  -2.604  0.00  0.00    +0.276 C 
BRANCH  13  14
ATOM     14  O   UNL     1       4.069   8.344  -2.095  0.00  0.00    -0.469 OA
BRANCH  14  15
ATOM     15  C   UNL     1       3.632   8.794  -0.879  0.00  0.00    +0.139 A 
ATOM     16  C   UNL     1       3.587  10.145  -0.642  0.00  0.00    +0.037 A 
ATOM     17  C   UNL     1       2.641  10.615   0.262  0.00  0.00    +0.003 A 
ATOM     18  C   UNL     1       1.719   9.740   0.814  0.00  0.00    +0.000 A 
ATOM     19  C   UNL     1       2.094   8.403   0.874  0.00  0.00    +0.003 A 
ATOM     20  C   UNL     1       2.805   7.909  -0.191  0.00  0.00    +0.037 A 
ENDBRANCH  14  15
ENDBRANCH  13  14
ENDBRANCH  10  13
ENDBRANCH   9  10
ENDBRANCH   7   8
BRANCH   1  21
ATOM     21  C   UNL     1       0.153   5.823  -7.687  0.00  0.00    +0.029 C 
BRANCH  21  23
ATOM     22  C   UNL     1      -1.846   5.541  -6.415  0.00  0.00    -0.031 C 
ATOM     23  C   UNL     1      -0.811   4.927  -6.993  0.00  0.00    -0.031 C 
BRANCH  22  24
ATOM     24  C   UNL     1      -1.718   6.853  -5.751  0.00  0.00    +0.026 C 
BRANCH  24  25
ATOM     25  C   UNL     1      -2.609   7.024  -4.554  0.00  0.00    +0.016 C 
BRANCH  25  26
ATOM     26  C   UNL     1      -2.780   5.661  -3.918  0.00  0.00    +0.110 C 
BRANCH  26  27
ATOM     27  C   UNL     1      -2.017   5.526  -2.662  0.00  0.00    +0.317 C 
ATOM     28  O   UNL     1      -2.540   4.985  -1.648  0.00  0.00    -0.250 OA
BRANCH  27  29
ATOM     29  O   UNL     1      -0.758   6.055  -2.523  0.00  0.00    -0.452 OA
BRANCH  29  31
ATOM     30  C   UNL     1       0.804   5.580  -3.014  0.00  0.00    +0.047 C 
ATOM     31  C   UNL     1       0.427   5.288  -2.727  0.00  0.00    +0.169 C 
ATOM     32  C   UNL     1       1.060   4.868  -1.403  0.00  0.00    +0.047 C 
ENDBRANCH  29  31
ENDBRANCH  27  29
ENDBRANCH  26  27
ENDBRANCH  25  26
ENDBRANCH  24  25
ENDBRANCH  22  24
ENDBRANCH  21  23
ENDBRANCH   1  21
TORSDOF 13
ENDMDL
MODEL 4
REMARK VINA RESULT:      -7.7      2.802      8.681
REMARK  Name = 
REMARK  13 active torsions:
REMARK  status: ('A' for Active; 'I' for Inactive)
REMARK    1  A    between atoms: C_2  and  O_4
REMARK    2  A    between atoms: O_4  and  C_5
REMARK    3  A    between atoms: C_5  and  C_7
REMARK    4  A    between atoms: C_7  and  C_8
REMARK    5  A    between atoms: C_8  and  C_9
REMARK    6  A    between atoms: C_9  and  C_10
REMARK    7  A    between atoms: C_11  and  C_12
REMARK    8  A    between atoms: C_12  and  C_13
REMARK    9  A    between atoms: C_14  and  C_15
REMARK   10  A    between atoms: C_16  and  C_17
REMARK   11  A    between atoms: C_17  and  C_20
REMARK   12  A    between atoms: C_20  and  O_21
REMARK   13  A    between atoms: O_21  and  C_22
REMARK                            x       y       z     vdW  Elec       q    Type
REMARK                         _______ _______ _______ _____ _____    ______ ____
ROOT
ATOM      1  C   UNL     1       2.158   6.375  -3.279  0.00  0.00    +0.041 C 
ATOM      2  C   UNL     1       3.344   7.558  -3.061  0.00  0.00    +0.155 C 
ATOM      3  O   UNL     1       3.341   7.639  -1.540  0.00  0.00    -0.223 OA
ATOM      4  C   UNL     1       4.681   6.708  -3.162  0.00  0.00    +0.066 C 
ATOM      5  C   UNL     1       4.424   5.238  -2.597  0.00  0.00    +0.159 C 
ATOM      6  O   UNL     1       3.787   5.549  -1.258  0.00  0.00    -0.223 OA
ATOM      7  C   UNL     1       3.024   4.981  -3.504  0.00  0.00    +0.055 C 
ENDROOT
BRANCH   7   8
ATOM      8  C   UNL     1       3.698   5.502  -4.863  0.00  0.00    -0.023 C 
ATOM      9  C   UNL     1       2.981   5.302  -5.948  0.00  0.00    +0.038 C 
BRANCH   9  10
ATOM     10  C   UNL     1       3.321   5.866  -7.300  0.00  0.00    +0.322 C 
ATOM     11  F   UNL     1       3.328   7.260  -7.252  0.00  0.00    -0.196 F 
ATOM     12  F   UNL     1       2.296   5.469  -8.102  0.00  0.00    -0.196 F 
BRANCH  10  13
ATOM     13  C   UNL     1       4.661   5.424  -7.536  0.00  0.00    +0.276 C 
BRANCH  13  14
ATOM     14  O   UNL     1       5.244   5.057  -8.656  0.00  0.00    -0.469 OA
BRANCH  14  15
ATOM     15  C   UNL     1       5.800   5.688  -9.735  0.00  0.00    +0.139 A 
ATOM     16  C   UNL     1       5.002   6.460 -10.543  0.00  0.00    +0.037 A 
ATOM     17  C   UNL     1       5.593   7.525 -11.213  0.00  0.00    +0.003 A 
ATOM     18  C   UNL     1       6.922   7.837 -10.977  0.00  0.00    +0.000 A 
ATOM     19  C   UNL     1       7.731   6.800 -10.526  0.00  0.00    +0.003 A 
ATOM     20  C   UNL     1       7.170   5.917  -9.637  0.00  0.00    +0.037 A 
ENDBRANCH  14  15
ENDBRANCH  13  14
ENDBRANCH  10  13
ENDBRANCH   9  10
ENDBRANCH   7   8
BRANCH   1  21
ATOM     21  C   UNL     1       1.662   6.130  -1.750  0.00  0.00    +0.029 C 
BRANCH  21  23
ATOM     22  C   UNL     1      -0.626   5.508  -2.023  0.00  0.00    -0.031 C 
ATOM     23  C   UNL     1       0.636   5.075  -1.973  0.00  0.00    -0.031 C 
BRANCH  22  24
ATOM     24  C   UNL     1      -1.121   6.604  -1.167  0.00  0.00    +0.026 C 
BRANCH  24  25
ATOM     25  C   UNL     1      -2.020   7.576  -1.875  0.00  0.00    +0.016 C 
BRANCH  25  26
ATOM     26  C   UNL     1      -2.627   6.852  -3.059  0.00  0.00    +0.110 C 
BRANCH  26  27
ATOM     27  C   UNL     1      -2.316   7.512  -4.341  0.00  0.00    +0.317 C 
ATOM     28  O   UNL     1      -1.851   8.686  -4.364  0.00  0.00    -0.250 OA
BRANCH  27  29
ATOM     29  O   UNL     1      -2.599   6.917  -5.546  0.00  0.00    -0.452 OA
BRANCH  29  31
ATOM     30  C   UNL     1      -2.187   5.536  -6.458  0.00  0.00    +0.047 C 
ATOM     31  C   UNL     1      -2.041   5.663  -5.936  0.00  0.00    +0.169 C 
ATOM     32  C   UNL     1      -0.516   5.677  -5.860  0.00  0.00    +0.047 C 
ENDBRANCH  29  31
ENDBRANCH  27  29
ENDBRANCH  26  27
ENDBRANCH  25  26
ENDBRANCH  24  25
ENDBRANCH  22  24
ENDBRANCH  21  23
ENDBRANCH   1  21
TORSDOF 13
ENDMDL
MODEL 5
REMARK VINA RESULT:      -7.7      2.825      8.865
REMARK  Name = 
REMARK  13 active torsions:
REMARK  status: ('A' for Active; 'I' for Inactive)
REMARK    1  A    between atoms: C_2  and  O_4
REMARK    2  A    between atoms: O_4  and  C_5
REMARK    3  A    between atoms: C_5  and  C_7
REMARK    4  A    between atoms: C_7  and  C_8
REMARK    5  A    between atoms: C_8  and  C_9
REMARK    6  A    between atoms: C_9  and  C_10
REMARK    7  A    between atoms: C_11  and  C_12
REMARK    8  A    between atoms: C_12  and  C_13
REMARK    9  A    between atoms: C_14  and  C_15
REMARK   10  A    between atoms: C_16  and  C_17
REMARK   11  A    between atoms: C_17  and  C_20
REMARK   12  A    between atoms: C_20  and  O_21
REMARK   13  A    between atoms: O_21  and  C_22
REMARK                            x       y       z     vdW  Elec       q    Type
REMARK                         _______ _______ _______ _____ _____    ______ ____
ROOT
ATOM      1  C   UNL     1       0.982   5.783  -7.769  0.00  0.00    +0.041 C 
ATOM      2  C   UNL     1       2.010   7.108  -7.570  0.00  0.00    +0.155 C 
ATOM      3  O   UNL     1       2.117   7.118  -6.051  0.00  0.00    -0.223 OA
ATOM      4  C   UNL     1       3.438   6.459  -7.816  0.00  0.00    +0.066 C 
ATOM      5  C   UNL     1       3.428   4.943  -7.318  0.00  0.00    +0.159 C 
ATOM      6  O   UNL     1       2.864   5.101  -5.921  0.00  0.00    -0.223 OA
ATOM      7  C   UNL     1       2.009   4.535  -8.134  0.00  0.00    +0.055 C 
ENDROOT
BRANCH   7   8
ATOM      8  C   UNL     1       2.495   5.207  -9.507  0.00  0.00    -0.023 C 
ATOM      9  C   UNL     1       1.635   5.123 -10.499  0.00  0.00    +0.038 C 
BRANCH   9  10
ATOM     10  C   UNL     1       1.792   5.835 -11.814  0.00  0.00    +0.322 C 
ATOM     11  F   UNL     1       0.860   6.868 -11.917  0.00  0.00    -0.196 F 
ATOM     12  F   UNL     1       1.493   4.893 -12.749  0.00  0.00    -0.196 F 
BRANCH  10  13
ATOM     13  C   UNL     1       3.096   6.420 -11.741  0.00  0.00    +0.276 C 
BRANCH  13  14
ATOM     14  O   UNL     1       4.206   6.089 -12.364  0.00  0.00    -0.469 OA
BRANCH  14  15
ATOM     15  C   UNL     1       5.535   6.391 -12.246  0.00  0.00    +0.139 A 
ATOM     16  C   UNL     1       5.936   7.275 -11.275  0.00  0.00    +0.037 A 
ATOM     17  C   UNL     1       7.219   7.134 -10.759  0.00  0.00    +0.003 A 
ATOM     18  C   UNL     1       8.009   6.067 -11.155  0.00  0.00    +0.000 A 
ATOM     19  C   UNL     1       7.725   5.514 -12.398  0.00  0.00    +0.003 A 
ATOM     20  C   UNL     1       6.402   5.424 -12.749  0.00  0.00    +0.037 A 
ENDBRANCH  14  15
ENDBRANCH  13  14
ENDBRANCH  10  13
ENDBRANCH   9  10
ENDBRANCH   7   8
BRANCH   1  21
ATOM     21  C   UNL     1       0.647   5.400  -6.224  0.00  0.00    +0.029 C 
BRANCH  21  23
ATOM     22  C   UNL     1      -1.613   6.151  -6.071  0.00  0.00    -0.031 C 
ATOM     23  C   UNL     1      -0.809   5.117  -6.333  0.00  0.00    -0.031 C 
BRANCH  22  24
ATOM     24  C   UNL     1      -1.308   7.144  -5.023  0.00  0.00    +0.026 C 
BRANCH  24  25
ATOM     25  C   UNL     1      -2.432   7.379  -4.055  0.00  0.00    +0.016 C 
BRANCH  25  26
ATOM     26  C   UNL     1      -1.951   6.943  -2.687  0.00  0.00    +0.110 C 
BRANCH  26  27
ATOM     27  C   UNL     1      -1.831   5.477  -2.573  0.00  0.00    +0.317 C 
ATOM     28  O   UNL     1      -2.863   4.752  -2.508  0.00  0.00    -0.250 OA
BRANCH  27  29
ATOM     29  O   UNL     1      -0.611   4.860  -2.446  0.00  0.00    -0.452 OA
BRANCH  29  31
ATOM     30  C   UNL     1       0.678   5.076  -1.351  0.00  0.00    +0.047 C 
ATOM     31  C   UNL     1       0.472   5.438  -1.720  0.00  0.00    +0.169 C 
ATOM     32  C   UNL     1       1.607   5.865  -2.648  0.00  0.00    +0.047 C 
ENDBRANCH  29  31
ENDBRANCH  27  29
ENDBRANCH  26  27
ENDBRANCH  25  26
ENDBRANCH  24  25
ENDBRANCH  22  24
ENDBRANCH  21  23
ENDBRANCH   1  21
TORSDOF 13
ENDMDL
MODEL 6
REMARK VINA RESULT:      -7.7      2.871      9.090
REMARK  Name = 
REMARK  13 active torsions:
REMARK  status: ('A' for Active; 'I' for Inactive)
REMARK    1  A    between atoms: C_2  and  O_4
REMARK    2  A    between atoms: O_4  and  C_5
REMARK    3  A    between atoms: C_5  and  C_7
REMARK    4  A    between atoms: C_7  and  C_8
REMARK    5  A    between atoms: C_8  and  C_9
REMARK    6  A    between atoms: C_9  and  C_10
REMARK    7  A    between atoms: C_11  and  C_12
REMARK    8  A    between atoms: C_12  and  C_13
REMARK    9  A    between atoms: C_14  and  C_15
REMARK   10  A    between atoms: C_16  and  C_17
REMARK   11  A    between atoms: C_17  and  C_20
REMARK   12  A    between atoms: C_20  and  O_21
REMARK   13  A    between atoms: O_21  and  C_22
REMARK                            x       y       z     vdW  Elec       q    Type
REMARK                         _______ _______ _______ _____ _____    ______ ____
ROOT
ATOM      1  C   UNL     1       0.381   6.847  -6.258  0.00  0.00    +0.041 C 
ATOM      2  C   UNL     1       2.027   6.849  -5.879  0.00  0.00    +0.155 C 
ATOM      3  O   UNL     1       1.941   6.558  -4.386  0.00  0.00    -0.223 OA
ATOM      4  C   UNL     1       2.464   5.379  -6.292  0.00  0.00    +0.066 C 
ATOM      5  C   UNL     1       1.244   4.375  -6.061  0.00  0.00    +0.159 C 
ATOM      6  O   UNL     1       0.858   4.712  -4.635  0.00  0.00    -0.223 OA
ATOM      7  C   UNL     1       0.118   5.332  -6.874  0.00  0.00    +0.055 C 
ENDROOT
BRANCH   7   8
ATOM      8  C   UNL     1       1.086   5.568  -8.131  0.00  0.00    -0.023 C 
ATOM      9  C   UNL     1       0.481   5.588  -9.299  0.00  0.00    +0.038 C 
BRANCH   9  10
ATOM     10  C   UNL     1       1.151   5.975 -10.589  0.00  0.00    +0.322 C 
ATOM     11  F   UNL     1       0.429   6.987 -11.222  0.00  0.00    -0.196 F 
ATOM     12  F   UNL     1       1.083   4.854 -11.358  0.00  0.00    -0.196 F 
BRANCH  10  13
ATOM     13  C   UNL     1       2.410   6.518 -10.180  0.00  0.00    +0.276 C 
BRANCH  13  14
ATOM     14  O   UNL     1       3.621   6.275 -10.630  0.00  0.00    -0.469 OA
BRANCH  14  15
ATOM     15  C   UNL     1       4.898   6.598 -10.260  0.00  0.00    +0.139 A 
ATOM     16  C   UNL     1       5.580   5.763  -9.410  0.00  0.00    +0.037 A 
ATOM     17  C   UNL     1       6.966   5.730  -9.506  0.00  0.00    +0.003 A 
ATOM     18  C   UNL     1       7.606   6.449 -10.503  0.00  0.00    +0.000 A 
ATOM     19  C   UNL     1       6.929   7.556 -11.000  0.00  0.00    +0.003 A 
ATOM     20  C   UNL     1       5.569   7.437 -11.146  0.00  0.00    +0.037 A 
ENDBRANCH  14  15
ENDBRANCH  13  14
ENDBRANCH  10  13
ENDBRANCH   9  10
ENDBRANCH   7   8
BRANCH   1  21
ATOM     21  C   UNL     1      -0.288   6.650  -4.789  0.00  0.00    +0.029 C 
BRANCH  21  23
ATOM     22  C   UNL     1      -2.587   6.752  -4.158  0.00  0.00    -0.031 C 
ATOM     23  C   UNL     1      -1.677   7.102  -5.070  0.00  0.00    -0.031 C 
BRANCH  22  24
ATOM     24  C   UNL     1      -2.548   5.453  -3.459  0.00  0.00    +0.026 C 
BRANCH  24  25
ATOM     25  C   UNL     1      -2.521   5.563  -1.961  0.00  0.00    +0.016 C 
BRANCH  25  26
ATOM     26  C   UNL     1      -2.538   7.037  -1.615  0.00  0.00    +0.110 C 
BRANCH  26  27
ATOM     27  C   UNL     1      -1.528   7.389  -0.600  0.00  0.00    +0.317 C 
ATOM     28  O   UNL     1      -1.482   8.554  -0.115  0.00  0.00    -0.250 OA
BRANCH  27  29
ATOM     29  O   UNL     1      -0.554   6.501  -0.213  0.00  0.00    -0.452 OA
BRANCH  29  31
ATOM     30  C   UNL     1       1.104   6.569  -0.602  0.00  0.00    +0.047 C 
ATOM     31  C   UNL     1       0.685   6.366  -0.906  0.00  0.00    +0.169 C 
ATOM     32  C   UNL     1       0.996   4.905  -1.224  0.00  0.00    +0.047 C 
ENDBRANCH  29  31
ENDBRANCH  27  29
ENDBRANCH  26  27
ENDBRANCH  25  26
ENDBRANCH  24  25
ENDBRANCH  22  24
ENDBRANCH  21  23
ENDBRANCH   1  21
TORSDOF 13
ENDMDL
MODEL 7
REMARK VINA RESULT:      -7.6      2.611      8.677
REMARK  Name = 
REMARK  13 active torsions:
REMARK  status: ('A' for Active; 'I' for Inactive)
REMARK    1  A    between atoms: C_2  and  O_4
REMARK    2  A    between atoms: O_4  and  C_5
REMARK    3  A    between atoms: C_5  and  C_7
REMARK    4  A    between atoms: C_7  and  C_8
REMARK    5  A    between atoms: C_8  and  C_9
REMARK    6  A    between atoms: C_9  and  C_10
REMARK    7  A    between atoms: C_11  and  C_12
REMARK    8  A    between atoms: C_12  and  C_13
REMARK    9  A    between atoms: C_14  and  C_15
REMARK   10  A    between atoms: C_16  and  C_17
REMARK   11  A    between atoms: C_17  and  C_20
REMARK   12  A    between atoms: C_20  and  O_21
REMARK   13  A    between atoms: O_21  and  C_22
REMARK                            x       y       z     vdW  Elec       q    Type
REMARK                         _______ _______ _______ _____ _____    ______ ____
ROOT
ATOM      1  C   UNL     1       3.191   5.681  -3.427  0.00  0.00    +0.041 C 
ATOM      2  C   UNL     1       2.946   7.312  -3.795  0.00  0.00    +0.155 C 
ATOM      3  O   UNL     1       3.438   7.939  -2.497  0.00  0.00    -0.223 OA
ATOM      4  C   UNL     1       4.249   7.662  -4.633  0.00  0.00    +0.066 C 
ATOM      5  C   UNL     1       5.475   6.787  -4.103  0.00  0.00    +0.159 C 
ATOM      6  O   UNL     1       5.400   7.054  -2.614  0.00  0.00    -0.223 OA
ATOM      7  C   UNL     1       4.636   5.324  -4.154  0.00  0.00    +0.055 C 
ENDROOT
BRANCH   7   8
ATOM      8  C   UNL     1       4.072   5.591  -5.631  0.00  0.00    -0.023 C 
ATOM      9  C   UNL     1       3.148   4.745  -6.033  0.00  0.00    +0.038 C 
BRANCH   9  10
ATOM     10  C   UNL     1       2.348   4.906  -7.296  0.00  0.00    +0.322 C 
ATOM     11  F   UNL     1       2.108   6.258  -7.545  0.00  0.00    -0.196 F 
ATOM     12  F   UNL     1       1.159   4.303  -7.025  0.00  0.00    -0.196 F 
BRANCH  10  13
ATOM     13  C   UNL     1       3.213   4.413  -8.323  0.00  0.00    +0.276 C 
BRANCH  13  14
ATOM     14  O   UNL     1       3.805   5.053  -9.308  0.00  0.00    -0.469 OA
BRANCH  14  15
ATOM     15  C   UNL     1       4.903   5.858  -9.445  0.00  0.00    +0.139 A 
ATOM     16  C   UNL     1       6.100   5.456  -8.904  0.00  0.00    +0.037 A 
ATOM     17  C   UNL     1       7.268   5.900  -9.512  0.00  0.00    +0.003 A 
ATOM     18  C   UNL     1       7.200   6.638 -10.683  0.00  0.00    +0.000 A 
ATOM     19  C   UNL     1       6.024   7.345 -10.902  0.00  0.00    +0.003 A 
ATOM     20  C   UNL     1       4.854   6.734 -10.526  0.00  0.00    +0.037 A 
ENDBRANCH  14  15
ENDBRANCH  13  14
ENDBRANCH  10  13
ENDBRANCH   9  10
ENDBRANCH   7   8
BRANCH   1  21
ATOM     21  C   UNL     1       3.692   5.771  -1.883  0.00  0.00    +0.029 C 
BRANCH  21  23
ATOM     22  C   UNL     1       1.629   4.939  -1.019  0.00  0.00    -0.031 C 
ATOM     23  C   UNL     1       2.907   4.657  -1.287  0.00  0.00    -0.031 C 
BRANCH  22  24
ATOM     24  C   UNL     1       1.198   6.261  -0.524  0.00  0.00    +0.026 C 
BRANCH  24  25
ATOM     25  C   UNL     1      -0.179   6.663  -0.969  0.00  0.00    +0.016 C 
BRANCH  25  26
ATOM     26  C   UNL     1      -0.893   5.407  -1.424  0.00  0.00    +0.110 C 
BRANCH  26  27
ATOM     27  C   UNL     1      -1.950   5.687  -2.414  0.00  0.00    +0.317 C 
ATOM     28  O   UNL     1      -2.699   4.761  -2.832  0.00  0.00    -0.250 OA
BRANCH  27  29
ATOM     29  O   UNL     1      -2.101   6.930  -2.976  0.00  0.00    -0.452 OA
BRANCH  29  31
ATOM     30  C   UNL     1      -2.071   7.695  -4.500  0.00  0.00    +0.047 C 
ATOM     31  C   UNL     1      -1.950   7.167  -4.374  0.00  0.00    +0.169 C 
ATOM     32  C   UNL     1      -0.524   6.884  -4.842  0.00  0.00    +0.047 C 
ENDBRANCH  29  31
ENDBRANCH  27  29
ENDBRANCH  26  27
ENDBRANCH  25  26
ENDBRANCH  24  25
ENDBRANCH  22  24
ENDBRANCH  21  23
ENDBRANCH   1  21
TORSDOF 13
ENDMDL
MODEL 8
REMARK VINA RESULT:      -7.6      1.823      3.332
REMARK  Name = 
REMARK  13 active torsions:
REMARK  status: ('A' for Active; 'I' for Inactive)
REMARK    1  A    between atoms: C_2  and  O_4
REMARK    2  A    between atoms: O_4  and  C_5
REMARK    3  A    between atoms: C_5  and  C_7
REMARK    4  A    between atoms: C_7  and  C_8
REMARK    5  A    between atoms: C_8  and  C_9
REMARK    6  A    between atoms: C_9  and  C_10
REMARK    7  A    between atoms: C_11  and  C_12
REMARK    8  A    between atoms: C_12  and  C_13
REMARK    9  A    between atoms: C_14  and  C_15
REMARK   10  A    between atoms: C_16  and  C_17
REMARK   11  A    between atoms: C_17  and  C_20
REMARK   12  A    between atoms: C_20  and  O_21
REMARK   13  A    between atoms: O_21  and  C_22
REMARK                            x       y       z     vdW  Elec       q    Type
REMARK                         _______ _______ _______ _____ _____    ______ ____
ROOT
ATOM      1  C   UNL     1       3.847   5.905  -7.199  0.00  0.00    +0.041 C 
ATOM      2  C   UNL     1       2.883   7.248  -7.545  0.00  0.00    +0.155 C 
ATOM      3  O   UNL     1       2.684   7.035  -9.040  0.00  0.00    -0.223 OA
ATOM      4  C   UNL     1       1.439   6.735  -7.129  0.00  0.00    +0.066 C 
ATOM      5  C   UNL     1       1.335   5.164  -7.388  0.00  0.00    +0.159 C 
ATOM      6  O   UNL     1       1.822   5.073  -8.819  0.00  0.00    -0.223 OA
ATOM      7  C   UNL     1       2.777   4.795  -6.593  0.00  0.00    +0.055 C 
ENDROOT
BRANCH   7   8
ATOM      8  C   UNL     1       2.413   5.695  -5.317  0.00  0.00    -0.023 C 
ATOM      9  C   UNL     1       2.603   5.109  -4.154  0.00  0.00    +0.038 C 
BRANCH   9  10
ATOM     10  C   UNL     1       2.508   5.815  -2.829  0.00  0.00    +0.322 C 
ATOM     11  F   UNL     1       2.587   7.195  -3.011  0.00  0.00    -0.196 F 
ATOM     12  F   UNL     1       3.613   5.408  -2.147  0.00  0.00    -0.196 F 
BRANCH  10  13
ATOM     13  C   UNL     1       1.192   5.503  -2.361  0.00  0.00    +0.276 C 
BRANCH  13  14
ATOM     14  O   UNL     1       0.118   5.153  -3.034  0.00  0.00    -0.469 OA
BRANCH  14  15
ATOM     15  C   UNL     1      -1.007   5.778  -3.497  0.00  0.00    +0.139 A 
ATOM     16  C   UNL     1      -1.469   6.894  -2.844  0.00  0.00    +0.037 A 
ATOM     17  C   UNL     1      -2.172   7.836  -3.587  0.00  0.00    +0.003 A 
ATOM     18  C   UNL     1      -2.299   7.680  -4.957  0.00  0.00    +0.000 A 
ATOM     19  C   UNL     1      -2.207   6.381  -5.444  0.00  0.00    +0.003 A 
ATOM     20  C   UNL     1      -1.286   5.558  -4.844  0.00  0.00    +0.037 A 
ENDBRANCH  14  15
ENDBRANCH  13  14
ENDBRANCH  10  13
ENDBRANCH   9  10
ENDBRANCH   7   8
BRANCH   1  21
ATOM     21  C   UNL     1       4.066   5.273  -8.681  0.00  0.00    +0.029 C 
BRANCH  21  23
ATOM     22  C   UNL     1       6.357   5.742  -9.156  0.00  0.00    -0.031 C 
ATOM     23  C   UNL     1       5.499   4.887  -8.593  0.00  0.00    -0.031 C 
BRANCH  22  24
ATOM     24  C   UNL     1       6.045   6.471 -10.401  0.00  0.00    +0.026 C 
BRANCH  24  25
ATOM     25  C   UNL     1       7.167   7.333 -10.905  0.00  0.00    +0.016 C 
BRANCH  25  26
ATOM     26  C   UNL     1       8.249   6.409 -11.425  0.00  0.00    +0.110 C 
BRANCH  26  27
ATOM     27  C   UNL     1       7.848   5.712 -12.661  0.00  0.00    +0.317 C 
ATOM     28  O   UNL     1       7.696   4.458 -12.671  0.00  0.00    -0.250 OA
BRANCH  27  29
ATOM     29  O   UNL     1       7.711   6.378 -13.853  0.00  0.00    -0.452 OA
BRANCH  29  31
ATOM     30  C   UNL     1       6.132   6.644 -14.439  0.00  0.00    +0.047 C 
ATOM     31  C   UNL     1       6.526   6.308 -14.644  0.00  0.00    +0.169 C 
ATOM     32  C   UNL     1       6.790   6.714 -16.092  0.00  0.00    +0.047 C 
ENDBRANCH  29  31
ENDBRANCH  27  29
ENDBRANCH  26  27
ENDBRANCH  25  26
ENDBRANCH  24  25
ENDBRANCH  22  24
ENDBRANCH  21  23
ENDBRANCH   1  21
TORSDOF 13
ENDMDL
MODEL 9
REMARK VINA RESULT:      -7.5      2.612      7.800
REMARK  Name = 
REMARK  13 active torsions:
REMARK  status: ('A' for Active; 'I' for Inactive)
REMARK    1  A    between atoms: C_2  and  O_4
REMARK    2  A    between atoms: O_4  and  C_5
REMARK    3  A    between atoms: C_5  and  C_7
REMARK    4  A    between atoms: C_7  and  C_8
REMARK    5  A    between atoms: C_8  and  C_9
REMARK    6  A    between atoms: C_9  and  C_10
REMARK    7  A    between atoms: C_11  and  C_12
REMARK    8  A    between atoms: C_12  and  C_13
REMARK    9  A    between atoms: C_14  and  C_15
REMARK   10  A    between atoms: C_16  and  C_17
REMARK   11  A    between atoms: C_17  and  C_20
REMARK   12  A    between atoms: C_20  and  O_21
REMARK   13  A    between atoms: O_21  and  C_22
REMARK                            x       y       z     vdW  Elec       q    Type
REMARK                         _______ _______ _______ _____ _____    ______ ____
ROOT
ATOM      1  C   UNL     1       2.248   5.140  -6.321  0.00  0.00    +0.041 C 
ATOM      2  C   UNL     1       0.688   4.545  -6.060  0.00  0.00    +0.155 C 
ATOM      3  O   UNL     1       0.622   4.671  -4.544  0.00  0.00    -0.223 OA
ATOM      4  C   UNL     1      -0.207   5.824  -6.354  0.00  0.00    +0.066 C 
ATOM      5  C   UNL     1       0.593   7.142  -5.938  0.00  0.00    +0.159 C 
ATOM      6  O   UNL     1       1.024   6.788  -4.530  0.00  0.00    -0.223 OA
ATOM      7  C   UNL     1       2.003   6.717  -6.763  0.00  0.00    +0.055 C 
ENDROOT
BRANCH   7   8
ATOM      8  C   UNL     1       1.212   6.323  -8.101  0.00  0.00    -0.023 C 
ATOM      9  C   UNL     1       1.781   6.723  -9.218  0.00  0.00    +0.038 C 
BRANCH   9  10
ATOM     10  C   UNL     1       1.325   6.313 -10.591  0.00  0.00    +0.322 C 
ATOM     11  F   UNL     1       0.495   7.293 -11.136  0.00  0.00    -0.196 F 
ATOM     12  F   UNL     1       0.584   5.191 -10.383  0.00  0.00    -0.196 F 
BRANCH  10  13
ATOM     13  C   UNL     1       2.530   6.274 -11.362  0.00  0.00    +0.276 C 
BRANCH  13  14
ATOM     14  O   UNL     1       3.724   5.826 -11.040  0.00  0.00    -0.469 OA
BRANCH  14  15
ATOM     15  C   UNL     1       4.864   6.350 -10.496  0.00  0.00    +0.139 A 
ATOM     16  C   UNL     1       5.521   5.650  -9.515  0.00  0.00    +0.037 A 
ATOM     17  C   UNL     1       6.894   5.829  -9.398  0.00  0.00    +0.003 A 
ATOM     18  C   UNL     1       7.568   6.616 -10.318  0.00  0.00    +0.000 A 
ATOM     19  C   UNL     1       6.820   7.593 -10.964  0.00  0.00    +0.003 A 
ATOM     20  C   UNL     1       5.533   7.262 -11.308  0.00  0.00    +0.037 A 
ENDBRANCH  14  15
ENDBRANCH  13  14
ENDBRANCH  10  13
ENDBRANCH   9  10
ENDBRANCH   7   8
BRANCH   1  21
ATOM     21  C   UNL     1       2.763   5.374  -4.797  0.00  0.00    +0.029 C 
BRANCH  21  23
ATOM     22  C   UNL     1       5.084   5.593  -4.286  0.00  0.00    -0.031 C 
ATOM     23  C   UNL     1       4.155   4.863  -4.908  0.00  0.00    -0.031 C 
BRANCH  22  24
ATOM     24  C   UNL     1       5.027   7.067  -4.234  0.00  0.00    +0.026 C 
BRANCH  24  25
ATOM     25  C   UNL     1       5.094   7.635  -2.845  0.00  0.00    +0.016 C 
BRANCH  25  26
ATOM     26  C   UNL     1       3.678   7.966  -2.422  0.00  0.00    +0.110 C 
BRANCH  26  27
ATOM     27  C   UNL     1       3.332   7.387  -1.110  0.00  0.00    +0.317 C 
ATOM     28  O   UNL     1       2.712   8.071  -0.249  0.00  0.00    -0.250 OA
BRANCH  27  29
ATOM     29  O   UNL     1       3.743   6.128  -0.746  0.00  0.00    -0.452 OA
BRANCH  29  31
ATOM     30  C   UNL     1       3.404   4.489  -1.072  0.00  0.00    +0.047 C 
ATOM     31  C   UNL     1       3.179   4.943  -1.303  0.00  0.00    +0.169 C 
ATOM     32  C   UNL     1       1.668   4.884  -1.089  0.00  0.00    +0.047 C 
ENDBRANCH  29  31
ENDBRANCH  27  29
ENDBRANCH  26  27
ENDBRANCH  25  26
ENDBRANCH  24  25
ENDBRANCH  22  24
ENDBRANCH  21  23
ENDBRANCH   1  21
TORSDOF 13
ENDMDL
