MODEL 1
REMARK VINA RESULT:      -6.3      0.000      0.000
REMARK  Name = 
REMARK  7 active torsions:
REMARK  status: ('A' for Active; 'I' for Inactive)
REMARK    1  A    between atoms: C_2  and  C_3
REMARK    2  A    between atoms: C_3  and  N_4
REMARK    3  A    between atoms: N_4  and  C_5
REMARK    4  A    between atoms: N_4  and  C_8
REMARK    5  A    between atoms: C_5  and  C_6
REMARK    6  A    between atoms: C_8  and  C_9
REMARK    7  A    between atoms: C_9  and  C_10
REMARK                            x       y       z     vdW  Elec       q    Type
REMARK                         _______ _______ _______ _____ _____    ______ ____
ROOT
ATOM      1  C   UNL     1      -0.027   5.502  -4.995  0.00  0.00    -0.023 A 
ATOM      2  C   UNL     1      -1.145   5.538  -4.171  0.00  0.00    -0.002 A 
ATOM      3  C   UNL     1      -1.311   5.557  -2.684  0.00  0.00    +0.114 C 
ATOM      4  C   UNL     1      -2.236   6.723  -2.527  0.00  0.00    +0.250 C 
ATOM      5  N   UNL     1      -3.051   6.713  -3.704  0.00  0.00    -0.179 NA
ATOM      6  O   UNL     1      -1.931   7.710  -1.791  0.00  0.00    -0.273 OA
ATOM      7  C   UNL     1      -2.399   5.875  -4.667  0.00  0.00    +0.070 A 
ATOM      8  C   UNL     1      -2.574   5.645  -6.024  0.00  0.00    +0.016 A 
ATOM      9  C   UNL     1      -1.519   5.288  -6.852  0.00  0.00    +0.001 A 
ATOM     10  C   UNL     1      -0.228   5.442  -6.363  0.00  0.00    -0.004 A 
ENDROOT
BRANCH   1  11
ATOM     11  C   UNL     1       1.295   5.079  -4.439  0.00  0.00    +0.043 C 
BRANCH  11  12
ATOM     12  C   UNL     1       2.128   4.610  -5.602  0.00  0.00    +0.077 C 
BRANCH  12  13
ATOM     13  N   UNL     1       3.336   5.361  -5.789  0.00  0.00    -0.272 NA
BRANCH  13  14
ATOM     14  C   UNL     1       3.558   5.798  -7.137  0.00  0.00    +0.072 C 
BRANCH  14  16
ATOM     15  C   UNL     1       2.072   7.240  -8.556  0.00  0.00    +0.001 C 
ATOM     16  C   UNL     1       2.905   7.165  -7.296  0.00  0.00    +0.017 C 
ENDBRANCH  14  16
ENDBRANCH  13  14
BRANCH  13  17
ATOM     17  C   UNL     1       3.579   6.360  -4.790  0.00  0.00    +0.072 C 
BRANCH  17  18
ATOM     18  C   UNL     1       4.919   6.143  -4.098  0.00  0.00    +0.017 C 
ATOM     19  C   UNL     1       5.621   7.496  -4.114  0.00  0.00    +0.001 C 
ENDBRANCH  17  18
ENDBRANCH  13  17
ENDBRANCH  12  13
ENDBRANCH  11  12
ENDBRANCH   1  11
TORSDOF 7
ENDMDL
MODEL 2
REMARK VINA RESULT:      -6.2      0.558      2.381
REMARK  Name = 
REMARK  7 active torsions:
REMARK  status: ('A' for Active; 'I' for Inactive)
REMARK    1  A    between atoms: C_2  and  C_3
REMARK    2  A    between atoms: C_3  and  N_4
REMARK    3  A    between atoms: N_4  and  C_5
REMARK    4  A    between atoms: N_4  and  C_8
REMARK    5  A    between atoms: C_5  and  C_6
REMARK    6  A    between atoms: C_8  and  C_9
REMARK    7  A    between atoms: C_9  and  C_10
REMARK                            x       y       z     vdW  Elec       q    Type
REMARK                         _______ _______ _______ _____ _____    ______ ____
ROOT
ATOM      1  C   UNL     1      -0.016   5.600  -4.893  0.00  0.00    -0.023 A 
ATOM      2  C   UNL     1      -1.120   5.574  -4.049  0.00  0.00    -0.002 A 
ATOM      3  C   UNL     1      -1.259   5.580  -2.560  0.00  0.00    +0.114 C 
ATOM      4  C   UNL     1      -2.242   6.694  -2.381  0.00  0.00    +0.250 C 
ATOM      5  N   UNL     1      -3.077   6.644  -3.542  0.00  0.00    -0.179 NA
ATOM      6  O   UNL     1      -1.977   7.694  -1.646  0.00  0.00    -0.273 OA
ATOM      7  C   UNL     1      -2.399   5.845  -4.521  0.00  0.00    +0.070 A 
ATOM      8  C   UNL     1      -2.586   5.610  -5.875  0.00  0.00    +0.016 A 
ATOM      9  C   UNL     1      -1.529   5.313  -6.723  0.00  0.00    +0.001 A 
ATOM     10  C   UNL     1      -0.239   5.534  -6.258  0.00  0.00    -0.004 A 
ENDROOT
BRANCH   1  11
ATOM     11  C   UNL     1       1.337   5.247  -4.364  0.00  0.00    +0.043 C 
BRANCH  11  12
ATOM     12  C   UNL     1       2.209   4.957  -5.555  0.00  0.00    +0.077 C 
BRANCH  12  13
ATOM     13  N   UNL     1       3.271   5.904  -5.740  0.00  0.00    -0.272 NA
BRANCH  13  14
ATOM     14  C   UNL     1       4.469   5.598  -5.013  0.00  0.00    +0.072 C 
BRANCH  14  16
ATOM     15  C   UNL     1       4.160   7.656  -3.609  0.00  0.00    +0.001 C 
ATOM     16  C   UNL     1       5.081   6.915  -4.551  0.00  0.00    +0.017 C 
ENDBRANCH  14  16
ENDBRANCH  13  14
BRANCH  13  17
ATOM     17  C   UNL     1       3.484   6.305  -7.099  0.00  0.00    +0.072 C 
BRANCH  17  18
ATOM     18  C   UNL     1       2.546   7.437  -7.500  0.00  0.00    +0.017 C 
ATOM     19  C   UNL     1       1.929   7.016  -8.829  0.00  0.00    +0.001 C 
ENDBRANCH  17  18
ENDBRANCH  13  17
ENDBRANCH  12  13
ENDBRANCH  11  12
ENDBRANCH   1  11
TORSDOF 7
ENDMDL
MODEL 3
REMARK VINA RESULT:      -5.9      2.462      4.793
REMARK  Name = 
REMARK  7 active torsions:
REMARK  status: ('A' for Active; 'I' for Inactive)
REMARK    1  A    between atoms: C_2  and  C_3
REMARK    2  A    between atoms: C_3  and  N_4
REMARK    3  A    between atoms: N_4  and  C_5
REMARK    4  A    between atoms: N_4  and  C_8
REMARK    5  A    between atoms: C_5  and  C_6
REMARK    6  A    between atoms: C_8  and  C_9
REMARK    7  A    between atoms: C_9  and  C_10
REMARK                            x       y       z     vdW  Elec       q    Type
REMARK                         _______ _______ _______ _____ _____    ______ ____
ROOT
ATOM      1  C   UNL     1       2.722   4.748  -5.439  0.00  0.00    -0.023 A 
ATOM      2  C   UNL     1       1.934   5.518  -4.592  0.00  0.00    -0.002 A 
ATOM      3  C   UNL     1       0.514   5.399  -4.138  0.00  0.00    +0.114 C 
ATOM      4  C   UNL     1       0.689   5.514  -2.656  0.00  0.00    +0.250 C 
ATOM      5  N   UNL     1       1.808   6.389  -2.480  0.00  0.00    -0.179 NA
ATOM      6  O   UNL     1       0.267   4.610  -1.872  0.00  0.00    -0.273 OA
ATOM      7  C   UNL     1       2.497   6.457  -3.735  0.00  0.00    +0.070 A 
ATOM      8  C   UNL     1       3.731   6.950  -4.135  0.00  0.00    +0.016 A 
ATOM      9  C   UNL     1       4.430   6.406  -5.202  0.00  0.00    +0.001 A 
ATOM     10  C   UNL     1       4.015   5.173  -5.691  0.00  0.00    -0.004 A 
ENDROOT
BRANCH   1  11
ATOM     11  C   UNL     1       2.078   3.789  -6.388  0.00  0.00    +0.043 C 
BRANCH  11  12
ATOM     12  C   UNL     1       2.470   4.219  -7.776  0.00  0.00    +0.077 C 
BRANCH  12  13
ATOM     13  N   UNL     1       1.363   4.643  -8.585  0.00  0.00    -0.272 NA
BRANCH  13  14
ATOM     14  C   UNL     1       0.790   5.897  -8.192  0.00  0.00    +0.072 C 
BRANCH  14  16
ATOM     15  C   UNL     1       2.135   7.908  -7.522  0.00  0.00    +0.001 C 
ATOM     16  C   UNL     1       1.727   7.003  -8.663  0.00  0.00    +0.017 C 
ENDBRANCH  14  16
ENDBRANCH  13  14
BRANCH  13  17
ATOM     17  C   UNL     1       1.564   4.494  -9.996  0.00  0.00    +0.072 C 
BRANCH  17  18
ATOM     18  C   UNL     1       0.239   4.377 -10.740  0.00  0.00    +0.017 C 
ATOM     19  C   UNL     1       0.383   5.238 -11.989  0.00  0.00    +0.001 C 
ENDBRANCH  17  18
ENDBRANCH  13  17
ENDBRANCH  12  13
ENDBRANCH  11  12
ENDBRANCH   1  11
TORSDOF 7
ENDMDL
MODEL 4
REMARK VINA RESULT:      -5.8      2.726      4.023
REMARK  Name = 
REMARK  7 active torsions:
REMARK  status: ('A' for Active; 'I' for Inactive)
REMARK    1  A    between atoms: C_2  and  C_3
REMARK    2  A    between atoms: C_3  and  N_4
REMARK    3  A    between atoms: N_4  and  C_5
REMARK    4  A    between atoms: N_4  and  C_8
REMARK    5  A    between atoms: C_5  and  C_6
REMARK    6  A    between atoms: C_8  and  C_9
REMARK    7  A    between atoms: C_9  and  C_10
REMARK                            x       y       z     vdW  Elec       q    Type
REMARK                         _______ _______ _______ _____ _____    ______ ____
ROOT
ATOM      1  C   UNL     1       0.633   5.278  -7.008  0.00  0.00    -0.023 A 
ATOM      2  C   UNL     1       0.773   5.281  -5.626  0.00  0.00    -0.002 A 
ATOM      3  C   UNL     1       1.955   5.122  -4.724  0.00  0.00    +0.114 C 
ATOM      4  C   UNL     1       1.785   6.315  -3.837  0.00  0.00    +0.250 C 
ATOM      5  N   UNL     1       0.370   6.506  -3.737  0.00  0.00    -0.179 NA
ATOM      6  O   UNL     1       2.705   7.180  -3.713  0.00  0.00    -0.273 OA
ATOM      7  C   UNL     1      -0.237   5.757  -4.798  0.00  0.00    +0.070 A 
ATOM      8  C   UNL     1      -1.512   5.712  -5.342  0.00  0.00    +0.016 A 
ATOM      9  C   UNL     1      -1.732   5.396  -6.675  0.00  0.00    +0.001 A 
ATOM     10  C   UNL     1      -0.641   5.405  -7.535  0.00  0.00    -0.004 A 
ENDROOT
BRANCH   1  11
ATOM     11  C   UNL     1       1.716   4.705  -7.866  0.00  0.00    +0.043 C 
BRANCH  11  12
ATOM     12  C   UNL     1       2.219   5.823  -8.739  0.00  0.00    +0.077 C 
BRANCH  12  13
ATOM     13  N   UNL     1       2.403   5.447 -10.112  0.00  0.00    -0.272 NA
BRANCH  13  14
ATOM     14  C   UNL     1       1.187   5.139 -10.808  0.00  0.00    +0.072 C 
BRANCH  14  16
ATOM     15  C   UNL     1      -0.464   7.007 -11.106  0.00  0.00    +0.001 C 
ATOM     16  C   UNL     1       0.800   6.363 -11.630  0.00  0.00    +0.017 C 
ENDBRANCH  14  16
ENDBRANCH  13  14
BRANCH  13  17
ATOM     17  C   UNL     1       3.314   6.279 -10.841  0.00  0.00    +0.072 C 
BRANCH  17  18
ATOM     18  C   UNL     1       4.620   6.476 -10.081  0.00  0.00    +0.017 C 
ATOM     19  C   UNL     1       5.479   7.383 -10.955  0.00  0.00    +0.001 C 
ENDBRANCH  17  18
ENDBRANCH  13  17
ENDBRANCH  12  13
ENDBRANCH  11  12
ENDBRANCH   1  11
TORSDOF 7
ENDMDL
MODEL 5
REMARK VINA RESULT:      -5.8      2.472      4.264
REMARK  Name = 
REMARK  7 active torsions:
REMARK  status: ('A' for Active; 'I' for Inactive)
REMARK    1  A    between atoms: C_2  and  C_3
REMARK    2  A    between atoms: C_3  and  N_4
REMARK    3  A    between atoms: N_4  and  C_5
REMARK    4  A    between atoms: N_4  and  C_8
REMARK    5  A    between atoms: C_5  and  C_6
REMARK    6  A    between atoms: C_8  and  C_9
REMARK    7  A    between atoms: C_9  and  C_10
REMARK                            x       y       z     vdW  Elec       q    Type
REMARK                         _______ _______ _______ _____ _____    ______ ____
ROOT
ATOM      1  C   UNL     1       0.141   5.394  -6.751  0.00  0.00    -0.023 A 
ATOM      2  C   UNL     1       0.339   5.298  -5.379  0.00  0.00    -0.002 A 
ATOM      3  C   UNL     1       1.557   5.070  -4.541  0.00  0.00    +0.114 C 
ATOM      4  C   UNL     1       1.434   6.198  -3.565  0.00  0.00    +0.250 C 
ATOM      5  N   UNL     1       0.026   6.388  -3.392  0.00  0.00    -0.179 NA
ATOM      6  O   UNL     1       2.365   7.047  -3.421  0.00  0.00    -0.273 OA
ATOM      7  C   UNL     1      -0.631   5.719  -4.476  0.00  0.00    +0.070 A 
ATOM      8  C   UNL     1      -1.928   5.719  -4.968  0.00  0.00    +0.016 A 
ATOM      9  C   UNL     1      -2.207   5.500  -6.309  0.00  0.00    +0.001 A 
ATOM     10  C   UNL     1      -1.153   5.565  -7.212  0.00  0.00    -0.004 A 
ENDROOT
BRANCH   1  11
ATOM     11  C   UNL     1       1.182   4.878  -7.692  0.00  0.00    +0.043 C 
BRANCH  11  12
ATOM     12  C   UNL     1       1.883   6.078  -8.269  0.00  0.00    +0.077 C 
BRANCH  12  13
ATOM     13  N   UNL     1       1.938   6.082  -9.703  0.00  0.00    -0.272 NA
BRANCH  13  14
ATOM     14  C   UNL     1       3.248   6.301 -10.243  0.00  0.00    +0.072 C 
BRANCH  14  16
ATOM     15  C   UNL     1       5.440   5.505  -9.313  0.00  0.00    +0.001 C 
ATOM     16  C   UNL     1       4.104   5.091  -9.890  0.00  0.00    +0.017 C 
ENDBRANCH  14  16
ENDBRANCH  13  14
BRANCH  13  17
ATOM     17  C   UNL     1       1.202   5.026 -10.332  0.00  0.00    +0.072 C 
BRANCH  17  18
ATOM     18  C   UNL     1       0.423   5.530 -11.541  0.00  0.00    +0.017 C 
ATOM     19  C   UNL     1      -0.323   6.773 -11.068  0.00  0.00    +0.001 C 
ENDBRANCH  17  18
ENDBRANCH  13  17
ENDBRANCH  12  13
ENDBRANCH  11  12
ENDBRANCH   1  11
TORSDOF 7
ENDMDL
MODEL 6
REMARK VINA RESULT:      -5.8      4.366      7.209
REMARK  Name = 
REMARK  7 active torsions:
REMARK  status: ('A' for Active; 'I' for Inactive)
REMARK    1  A    between atoms: C_2  and  C_3
REMARK    2  A    between atoms: C_3  and  N_4
REMARK    3  A    between atoms: N_4  and  C_5
REMARK    4  A    between atoms: N_4  and  C_8
REMARK    5  A    between atoms: C_5  and  C_6
REMARK    6  A    between atoms: C_8  and  C_9
REMARK    7  A    between atoms: C_9  and  C_10
REMARK                            x       y       z     vdW  Elec       q    Type
REMARK                         _______ _______ _______ _____ _____    ______ ____
ROOT
ATOM      1  C   UNL     1       2.406   5.046  -9.876  0.00  0.00    -0.023 A 
ATOM      2  C   UNL     1       2.946   5.743 -10.950  0.00  0.00    -0.002 A 
ATOM      3  C   UNL     1       4.351   6.076 -11.342  0.00  0.00    +0.114 C 
ATOM      4  C   UNL     1       4.356   5.611 -12.765  0.00  0.00    +0.250 C 
ATOM      5  N   UNL     1       3.022   5.835 -13.235  0.00  0.00    -0.179 NA
ATOM      6  O   UNL     1       5.200   4.757 -13.175  0.00  0.00    -0.273 OA
ATOM      7  C   UNL     1       2.191   6.026 -12.083  0.00  0.00    +0.070 A 
ATOM      8  C   UNL     1       0.820   6.070 -11.876  0.00  0.00    +0.016 A 
ATOM      9  C   UNL     1       0.242   5.674 -10.679  0.00  0.00    +0.001 A 
ATOM     10  C   UNL     1       1.028   4.959  -9.783  0.00  0.00    -0.004 A 
ENDROOT
BRANCH   1  11
ATOM     11  C   UNL     1       3.230   4.810  -8.651  0.00  0.00    +0.043 C 
BRANCH  11  12
ATOM     12  C   UNL     1       2.403   3.958  -7.726  0.00  0.00    +0.077 C 
BRANCH  12  13
ATOM     13  N   UNL     1       2.243   4.515  -6.413  0.00  0.00    -0.272 NA
BRANCH  13  14
ATOM     14  C   UNL     1       2.942   5.750  -6.207  0.00  0.00    +0.072 C 
BRANCH  14  16
ATOM     15  C   UNL     1       4.607   4.901  -4.530  0.00  0.00    +0.001 C 
ATOM     16  C   UNL     1       3.401   5.787  -4.754  0.00  0.00    +0.017 C 
ENDBRANCH  14  16
ENDBRANCH  13  14
BRANCH  13  17
ATOM     17  C   UNL     1       0.899   4.499  -5.917  0.00  0.00    +0.072 C 
BRANCH  17  18
ATOM     18  C   UNL     1       0.122   5.729  -6.372  0.00  0.00    +0.017 C 
ATOM     19  C   UNL     1      -1.231   5.213  -6.851  0.00  0.00    +0.001 C 
ENDBRANCH  17  18
ENDBRANCH  13  17
ENDBRANCH  12  13
ENDBRANCH  11  12
ENDBRANCH   1  11
TORSDOF 7
ENDMDL
MODEL 7
REMARK VINA RESULT:      -5.8      4.296      6.793
REMARK  Name = 
REMARK  7 active torsions:
REMARK  status: ('A' for Active; 'I' for Inactive)
REMARK    1  A    between atoms: C_2  and  C_3
REMARK    2  A    between atoms: C_3  and  N_4
REMARK    3  A    between atoms: N_4  and  C_5
REMARK    4  A    between atoms: N_4  and  C_8
REMARK    5  A    between atoms: C_5  and  C_6
REMARK    6  A    between atoms: C_8  and  C_9
REMARK    7  A    between atoms: C_9  and  C_10
REMARK                            x       y       z     vdW  Elec       q    Type
REMARK                         _______ _______ _______ _____ _____    ______ ____
ROOT
ATOM      1  C   UNL     1       2.288   4.964  -9.884  0.00  0.00    -0.023 A 
ATOM      2  C   UNL     1       2.901   5.666 -10.915  0.00  0.00    -0.002 A 
ATOM      3  C   UNL     1       4.316   5.734 -11.396  0.00  0.00    +0.114 C 
ATOM      4  C   UNL     1       4.122   5.476 -12.857  0.00  0.00    +0.250 C 
ATOM      5  N   UNL     1       2.847   6.047 -13.170  0.00  0.00    -0.179 NA
ATOM      6  O   UNL     1       4.720   4.522 -13.442  0.00  0.00    -0.273 OA
ATOM      7  C   UNL     1       2.158   6.257 -11.930  0.00  0.00    +0.070 A 
ATOM      8  C   UNL     1       0.849   6.570 -11.592  0.00  0.00    +0.016 A 
ATOM      9  C   UNL     1       0.276   6.151 -10.401  0.00  0.00    +0.001 A 
ATOM     10  C   UNL     1       0.935   5.168  -9.672  0.00  0.00    -0.004 A 
ENDROOT
BRANCH   1  11
ATOM     11  C   UNL     1       3.114   4.391  -8.778  0.00  0.00    +0.043 C 
BRANCH  11  12
ATOM     12  C   UNL     1       3.497   5.536  -7.880  0.00  0.00    +0.077 C 
BRANCH  12  13
ATOM     13  N   UNL     1       3.014   5.404  -6.535  0.00  0.00    -0.272 NA
BRANCH  13  14
ATOM     14  C   UNL     1       2.255   4.212  -6.294  0.00  0.00    +0.072 C 
BRANCH  14  16
ATOM     15  C   UNL     1      -0.034   5.243  -6.256  0.00  0.00    +0.001 C 
ATOM     16  C   UNL     1       1.055   4.591  -5.434  0.00  0.00    +0.017 C 
ENDBRANCH  14  16
ENDBRANCH  13  14
BRANCH  13  17
ATOM     17  C   UNL     1       3.979   5.713  -5.521  0.00  0.00    +0.072 C 
BRANCH  17  18
ATOM     18  C   UNL     1       3.911   7.179  -5.113  0.00  0.00    +0.017 C 
ATOM     19  C   UNL     1       5.184   7.451  -4.320  0.00  0.00    +0.001 C 
ENDBRANCH  17  18
ENDBRANCH  13  17
ENDBRANCH  12  13
ENDBRANCH  11  12
ENDBRANCH   1  11
TORSDOF 7
ENDMDL
MODEL 8
REMARK VINA RESULT:      -5.8      1.868      3.053
REMARK  Name = 
REMARK  7 active torsions:
REMARK  status: ('A' for Active; 'I' for Inactive)
REMARK    1  A    between atoms: C_2  and  C_3
REMARK    2  A    between atoms: C_3  and  N_4
REMARK    3  A    between atoms: N_4  and  C_5
REMARK    4  A    between atoms: N_4  and  C_8
REMARK    5  A    between atoms: C_5  and  C_6
REMARK    6  A    between atoms: C_8  and  C_9
REMARK    7  A    between atoms: C_9  and  C_10
REMARK                            x       y       z     vdW  Elec       q    Type
REMARK                         _______ _______ _______ _____ _____    ______ ____
ROOT
ATOM      1  C   UNL     1       0.304   5.262  -6.448  0.00  0.00    -0.023 A 
ATOM      2  C   UNL     1       0.179   5.237  -5.064  0.00  0.00    -0.002 A 
ATOM      3  C   UNL     1       1.146   4.940  -3.962  0.00  0.00    +0.114 C 
ATOM      4  C   UNL     1       0.939   6.137  -3.087  0.00  0.00    +0.250 C 
ATOM      5  N   UNL     1      -0.440   6.482  -3.248  0.00  0.00    -0.179 NA
ATOM      6  O   UNL     1       1.907   6.893  -2.769  0.00  0.00    -0.273 OA
ATOM      7  C   UNL     1      -0.912   5.815  -4.426  0.00  0.00    +0.070 A 
ATOM      8  C   UNL     1      -2.059   5.916  -5.201  0.00  0.00    +0.016 A 
ATOM      9  C   UNL     1      -2.055   5.638  -6.560  0.00  0.00    +0.001 A 
ATOM     10  C   UNL     1      -0.827   5.534  -7.200  0.00  0.00    -0.004 A 
ENDROOT
BRANCH   1  11
ATOM     11  C   UNL     1       1.461   4.580  -7.105  0.00  0.00    +0.043 C 
BRANCH  11  12
ATOM     12  C   UNL     1       2.153   5.613  -7.952  0.00  0.00    +0.077 C 
BRANCH  12  13
ATOM     13  N   UNL     1       3.572   5.676  -7.746  0.00  0.00    -0.272 NA
BRANCH  13  14
ATOM     14  C   UNL     1       3.972   5.627  -6.369  0.00  0.00    +0.072 C 
BRANCH  14  16
ATOM     15  C   UNL     1       4.770   7.290  -4.666  0.00  0.00    +0.001 C 
ATOM     16  C   UNL     1       3.784   7.020  -5.781  0.00  0.00    +0.017 C 
ENDBRANCH  14  16
ENDBRANCH  13  14
BRANCH  13  17
ATOM     17  C   UNL     1       4.340   4.840  -8.621  0.00  0.00    +0.072 C 
BRANCH  17  18
ATOM     18  C   UNL     1       5.661   5.497  -9.003  0.00  0.00    +0.017 C 
ATOM     19  C   UNL     1       5.352   6.389 -10.200  0.00  0.00    +0.001 C 
ENDBRANCH  17  18
ENDBRANCH  13  17
ENDBRANCH  12  13
ENDBRANCH  11  12
ENDBRANCH   1  11
TORSDOF 7
ENDMDL
MODEL 9
REMARK VINA RESULT:      -5.8      2.110      4.060
REMARK  Name = 
REMARK  7 active torsions:
REMARK  status: ('A' for Active; 'I' for Inactive)
REMARK    1  A    between atoms: C_2  and  C_3
REMARK    2  A    between atoms: C_3  and  N_4
REMARK    3  A    between atoms: N_4  and  C_5
REMARK    4  A    between atoms: N_4  and  C_8
REMARK    5  A    between atoms: C_5  and  C_6
REMARK    6  A    between atoms: C_8  and  C_9
REMARK    7  A    between atoms: C_9  and  C_10
REMARK                            x       y       z     vdW  Elec       q    Type
REMARK                         _______ _______ _______ _____ _____    ______ ____
ROOT
ATOM      1  C   UNL     1       0.765   5.379  -5.041  0.00  0.00    -0.023 A 
ATOM      2  C   UNL     1      -0.045   5.821  -4.002  0.00  0.00    -0.002 A 
ATOM      3  C   UNL     1      -1.483   6.225  -3.935  0.00  0.00    +0.114 C 
ATOM      4  C   UNL     1      -1.949   5.391  -2.784  0.00  0.00    +0.250 C 
ATOM      5  N   UNL     1      -0.816   5.289  -1.915  0.00  0.00    -0.179 NA
ATOM      6  O   UNL     1      -2.920   4.583  -2.907  0.00  0.00    -0.273 OA
ATOM      7  C   UNL     1       0.338   5.672  -2.674  0.00  0.00    +0.070 A 
ATOM      8  C   UNL     1       1.707   5.580  -2.465  0.00  0.00    +0.016 A 
ATOM      9  C   UNL     1       2.604   5.453  -3.515  0.00  0.00    +0.001 A 
ATOM     10  C   UNL     1       2.099   5.130  -4.768  0.00  0.00    -0.004 A 
ENDROOT
BRANCH   1  11
ATOM     11  C   UNL     1       0.348   5.608  -6.459  0.00  0.00    +0.043 C 
BRANCH  11  12
ATOM     12  C   UNL     1       1.272   4.792  -7.323  0.00  0.00    +0.077 C 
BRANCH  12  13
ATOM     13  N   UNL     1       1.822   5.519  -8.431  0.00  0.00    -0.272 NA
BRANCH  13  14
ATOM     14  C   UNL     1       3.153   6.006  -8.215  0.00  0.00    +0.072 C 
BRANCH  14  16
ATOM     15  C   UNL     1       5.545   5.341  -8.590  0.00  0.00    +0.001 C 
ATOM     16  C   UNL     1       4.117   4.855  -8.478  0.00  0.00    +0.017 C 
ENDBRANCH  14  16
ENDBRANCH  13  14
BRANCH  13  17
ATOM     17  C   UNL     1       1.609   4.909  -9.710  0.00  0.00    +0.072 C 
BRANCH  17  18
ATOM     18  C   UNL     1       0.226   5.233 -10.260  0.00  0.00    +0.017 C 
ATOM     19  C   UNL     1       0.258   6.712 -10.627  0.00  0.00    +0.001 C 
ENDBRANCH  17  18
ENDBRANCH  13  17
ENDBRANCH  12  13
ENDBRANCH  11  12
ENDBRANCH   1  11
TORSDOF 7
ENDMDL
