MODEL 1
REMARK VINA RESULT:      -9.1      0.000      0.000
REMARK  Name = 
REMARK  2 active torsions:
REMARK  status: ('A' for Active; 'I' for Inactive)
REMARK    1  A    between atoms: C_21  and  C_23
REMARK    2  A    between atoms: C_23  and  C_25
REMARK                            x       y       z     vdW  Elec       q    Type
REMARK                         _______ _______ _______ _____ _____    ______ ____
ROOT
ATOM      1  C   UNL     1      -1.059   7.825  -4.819  0.00  0.00    +0.003 C 
ATOM      2  C   UNL     1      -0.511   6.672  -4.116  0.00  0.00    +0.039 C 
ATOM      3  C   UNL     1      -1.421   6.136  -3.079  0.00  0.00    +0.180 C 
ATOM      4  O   UNL     1      -1.038   4.817  -2.794  0.00  0.00    -0.218 OA
ATOM      5  C   UNL     1      -2.728   6.076  -3.862  0.00  0.00    +0.038 C 
ATOM      6  C   UNL     1      -2.324   5.899  -5.326  0.00  0.00    +0.003 C 
ATOM      7  C   UNL     1      -0.799   5.367  -5.067  0.00  0.00    +0.004 C 
ATOM      8  C   UNL     1      -0.193   6.166  -6.435  0.00  0.00    +0.008 C 
ATOM      9  C   UNL     1      -0.743   5.000  -7.401  0.00  0.00    +0.005 C 
ATOM     10  C   UNL     1      -0.321   5.548  -8.717  0.00  0.00    +0.022 C 
ATOM     11  C   UNL     1       1.035   6.099  -8.638  0.00  0.00    -0.038 C 
ATOM     12  C   UNL     1       1.969   6.159  -7.532  0.00  0.00    +0.040 C 
ATOM     13  C   UNL     1       2.543   7.445  -7.169  0.00  0.00    +0.009 C 
ATOM     14  C   UNL     1       3.079   5.202  -7.863  0.00  0.00    -0.019 C 
ATOM     15  C   UNL     1       3.519   5.050  -9.114  0.00  0.00    +0.038 C 
ATOM     16  C   UNL     1       2.966   5.949 -10.138  0.00  0.00    +0.195 C 
ATOM     17  O   UNL     1       3.501   6.137 -11.250  0.00  0.00    -0.287 OA
ATOM     18  C   UNL     1       1.587   6.362  -9.827  0.00  0.00    +0.034 C 
ATOM     19  C   UNL     1       1.315   5.392  -6.244  0.00  0.00    +0.065 C 
ATOM     20  C   UNL     1       1.770   6.480  -5.130  0.00  0.00    +0.151 C 
ATOM     21  O   UNL     1       2.972   6.298  -4.928  0.00  0.00    -0.296 OA
ATOM     22  C   UNL     1       0.928   6.569  -3.926  0.00  0.00    +0.067 C 
ENDROOT
BRANCH   3  23
ATOM     23  C   UNL     1      -1.539   6.921  -1.837  0.00  0.00    +0.211 C 
ATOM     24  O   UNL     1      -2.694   7.243  -1.544  0.00  0.00    -0.291 OA
BRANCH  23  25
ATOM     25  C   UNL     1      -0.778   6.330  -0.683  0.00  0.00    +0.248 C 
ATOM     26  O   UNL     1      -1.639   6.321   0.424  0.00  0.00    -0.212 OA
ENDBRANCH  23  25
ENDBRANCH   3  23
TORSDOF 2
ENDMDL
MODEL 2
REMARK VINA RESULT:      -9.0      2.993      5.604
REMARK  Name = 
REMARK  2 active torsions:
REMARK  status: ('A' for Active; 'I' for Inactive)
REMARK    1  A    between atoms: C_21  and  C_23
REMARK    2  A    between atoms: C_23  and  C_25
REMARK                            x       y       z     vdW  Elec       q    Type
REMARK                         _______ _______ _______ _____ _____    ______ ____
ROOT
ATOM      1  C   UNL     1       2.980   3.894  -8.318  0.00  0.00    +0.003 C 
ATOM      2  C   UNL     1       2.503   5.161  -7.777  0.00  0.00    +0.039 C 
ATOM      3  C   UNL     1       3.194   5.558  -6.529  0.00  0.00    +0.180 C 
ATOM      4  O   UNL     1       3.016   6.938  -6.346  0.00  0.00    -0.218 OA
ATOM      5  C   UNL     1       4.647   5.333  -6.935  0.00  0.00    +0.038 C 
ATOM      6  C   UNL     1       4.685   5.520  -8.452  0.00  0.00    +0.003 C 
ATOM      7  C   UNL     1       3.280   6.344  -8.604  0.00  0.00    +0.004 C 
ATOM      8  C   UNL     1       2.911   5.616 -10.091  0.00  0.00    +0.008 C 
ATOM      9  C   UNL     1       3.913   6.612 -10.865  0.00  0.00    +0.005 C 
ATOM     10  C   UNL     1       3.754   6.098 -12.252  0.00  0.00    +0.022 C 
ATOM     11  C   UNL     1       2.344   5.819 -12.541  0.00  0.00    -0.038 C 
ATOM     12  C   UNL     1       1.159   5.987 -11.725  0.00  0.00    +0.040 C 
ATOM     13  C   UNL     1       0.270   4.852 -11.540  0.00  0.00    +0.009 C 
ATOM     14  C   UNL     1       0.385   7.122 -12.332  0.00  0.00    -0.019 C 
ATOM     15  C   UNL     1       0.328   7.301 -13.654  0.00  0.00    +0.038 C 
ATOM     16  C   UNL     1       0.944   6.268 -14.501  0.00  0.00    +0.195 C 
ATOM     17  O   UNL     1       0.694   6.138 -15.717  0.00  0.00    -0.287 OA
ATOM     18  C   UNL     1       2.084   5.614 -13.837  0.00  0.00    +0.034 C 
ATOM     19  C   UNL     1       1.588   6.671 -10.303  0.00  0.00    +0.065 C 
ATOM     20  C   UNL     1       0.652   5.739  -9.360  0.00  0.00    +0.151 C 
ATOM     21  O   UNL     1      -0.501   6.156  -9.484  0.00  0.00    -0.296 OA
ATOM     22  C   UNL     1       1.113   5.545  -7.977  0.00  0.00    +0.067 C 
ENDROOT
BRANCH   3  23
ATOM     23  C   UNL     1       2.825   4.821  -5.308  0.00  0.00    +0.211 C 
ATOM     24  O   UNL     1       3.777   4.304  -4.716  0.00  0.00    -0.291 OA
BRANCH  23  25
ATOM     25  C   UNL     1       1.911   5.593  -4.398  0.00  0.00    +0.248 C 
ATOM     26  O   UNL     1       0.634   5.022  -4.508  0.00  0.00    -0.212 OA
ENDBRANCH  23  25
ENDBRANCH   3  23
TORSDOF 2
ENDMDL
MODEL 3
REMARK VINA RESULT:      -8.9      2.839      6.753
REMARK  Name = 
REMARK  2 active torsions:
REMARK  status: ('A' for Active; 'I' for Inactive)
REMARK    1  A    between atoms: C_21  and  C_23
REMARK    2  A    between atoms: C_23  and  C_25
REMARK                            x       y       z     vdW  Elec       q    Type
REMARK                         _______ _______ _______ _____ _____    ______ ____
ROOT
ATOM      1  C   UNL     1       1.759   4.079  -6.937  0.00  0.00    +0.003 C 
ATOM      2  C   UNL     1       2.133   5.394  -7.443  0.00  0.00    +0.039 C 
ATOM      3  C   UNL     1       1.341   5.810  -8.622  0.00  0.00    +0.180 C 
ATOM      4  O   UNL     1       1.435   7.204  -8.748  0.00  0.00    -0.218 OA
ATOM      5  C   UNL     1      -0.069   5.487  -8.137  0.00  0.00    +0.038 C 
ATOM      6  C   UNL     1      -0.015   5.600  -6.613  0.00  0.00    +0.003 C 
ATOM      7  C   UNL     1       1.352   6.492  -6.510  0.00  0.00    +0.004 C 
ATOM      8  C   UNL     1       1.856   5.717  -5.088  0.00  0.00    +0.008 C 
ATOM      9  C   UNL     1       0.858   6.619  -4.202  0.00  0.00    +0.005 C 
ATOM     10  C   UNL     1       1.135   6.051  -2.856  0.00  0.00    +0.022 C 
ATOM     11  C   UNL     1       2.574   5.837  -2.672  0.00  0.00    -0.038 C 
ATOM     12  C   UNL     1       3.693   6.107  -3.553  0.00  0.00    +0.040 C 
ATOM     13  C   UNL     1       4.624   5.032  -3.851  0.00  0.00    +0.009 C 
ATOM     14  C   UNL     1       4.445   7.254  -2.941  0.00  0.00    -0.019 C 
ATOM     15  C   UNL     1       4.581   7.373  -1.617  0.00  0.00    +0.038 C 
ATOM     16  C   UNL     1       4.076   6.270  -0.786  0.00  0.00    +0.195 C 
ATOM     17  O   UNL     1       4.413   6.097   0.404  0.00  0.00    -0.287 OA
ATOM     18  C   UNL     1       2.930   5.586  -1.407  0.00  0.00    +0.034 C 
ATOM     19  C   UNL     1       3.135   6.832  -4.908  0.00  0.00    +0.065 C 
ATOM     20  C   UNL     1       4.052   5.998  -5.955  0.00  0.00    +0.151 C 
ATOM     21  O   UNL     1       5.188   6.471  -5.884  0.00  0.00    -0.296 OA
ATOM     22  C   UNL     1       3.511   5.843  -7.314  0.00  0.00    +0.067 C 
ENDROOT
BRANCH   3  23
ATOM     23  C   UNL     1       1.665   5.151  -9.901  0.00  0.00    +0.211 C 
ATOM     24  O   UNL     1       0.743   4.488 -10.382  0.00  0.00    -0.291 OA
BRANCH  23  25
ATOM     25  C   UNL     1       2.317   6.070 -10.896  0.00  0.00    +0.248 C 
ATOM     26  O   UNL     1       3.685   5.767 -10.910  0.00  0.00    -0.212 OA
ENDBRANCH  23  25
ENDBRANCH   3  23
TORSDOF 2
ENDMDL
MODEL 4
REMARK VINA RESULT:      -8.9      1.927      3.509
REMARK  Name = 
REMARK  2 active torsions:
REMARK  status: ('A' for Active; 'I' for Inactive)
REMARK    1  A    between atoms: C_21  and  C_23
REMARK    2  A    between atoms: C_23  and  C_25
REMARK                            x       y       z     vdW  Elec       q    Type
REMARK                         _______ _______ _______ _____ _____    ______ ____
ROOT
ATOM      1  C   UNL     1       0.540   4.500  -5.508  0.00  0.00    +0.003 C 
ATOM      2  C   UNL     1       0.020   5.801  -5.913  0.00  0.00    +0.039 C 
ATOM      3  C   UNL     1      -0.823   6.438  -4.876  0.00  0.00    +0.180 C 
ATOM      4  O   UNL     1      -0.889   7.813  -5.145  0.00  0.00    -0.218 OA
ATOM      5  C   UNL     1       0.062   6.253  -3.647  0.00  0.00    +0.038 C 
ATOM      6  C   UNL     1       1.495   6.198  -4.177  0.00  0.00    +0.003 C 
ATOM      7  C   UNL     1       1.215   6.888  -5.633  0.00  0.00    +0.004 C 
ATOM      8  C   UNL     1       2.358   5.909  -6.416  0.00  0.00    +0.008 C 
ATOM      9  C   UNL     1       3.565   6.836  -5.887  0.00  0.00    +0.005 C 
ATOM     10  C   UNL     1       4.718   6.098  -6.466  0.00  0.00    +0.022 C 
ATOM     11  C   UNL     1       4.428   5.680  -7.841  0.00  0.00    -0.038 C 
ATOM     12  C   UNL     1       3.257   5.893  -8.668  0.00  0.00    +0.040 C 
ATOM     13  C   UNL     1       2.617   4.743  -9.285  0.00  0.00    +0.009 C 
ATOM     14  C   UNL     1       3.667   6.861  -9.741  0.00  0.00    -0.019 C 
ATOM     15  C   UNL     1       4.886   6.822 -10.287  0.00  0.00    +0.038 C 
ATOM     16  C   UNL     1       5.767   5.714  -9.892  0.00  0.00    +0.195 C 
ATOM     17  O   UNL     1       6.778   5.374 -10.541  0.00  0.00    -0.287 OA
ATOM     18  C   UNL     1       5.499   5.254  -8.519  0.00  0.00    +0.034 C 
ATOM     19  C   UNL     1       2.191   6.822  -7.847  0.00  0.00    +0.065 C 
ATOM     20  C   UNL     1       0.862   5.990  -8.262  0.00  0.00    +0.151 C 
ATOM     21  O   UNL     1       0.599   6.301  -9.426  0.00  0.00    -0.296 OA
ATOM     22  C   UNL     1      -0.265   6.051  -7.318  0.00  0.00    +0.067 C 
ENDROOT
BRANCH   3  23
ATOM     23  C   UNL     1      -2.175   5.880  -4.691  0.00  0.00    +0.211 C 
ATOM     24  O   UNL     1      -2.590   5.221  -5.648  0.00  0.00    -0.291 OA
BRANCH  23  25
ATOM     25  C   UNL     1      -2.359   5.189  -3.369  0.00  0.00    +0.248 C 
ATOM     26  O   UNL     1      -3.680   5.419  -2.959  0.00  0.00    -0.212 OA
ENDBRANCH  23  25
ENDBRANCH   3  23
TORSDOF 2
ENDMDL
MODEL 5
REMARK VINA RESULT:      -8.8      1.995      7.602
REMARK  Name = 
REMARK  2 active torsions:
REMARK  status: ('A' for Active; 'I' for Inactive)
REMARK    1  A    between atoms: C_21  and  C_23
REMARK    2  A    between atoms: C_23  and  C_25
REMARK                            x       y       z     vdW  Elec       q    Type
REMARK                         _______ _______ _______ _____ _____    ______ ____
ROOT
ATOM      1  C   UNL     1       3.815   4.289  -9.372  0.00  0.00    +0.003 C 
ATOM      2  C   UNL     1       4.181   5.697  -9.273  0.00  0.00    +0.039 C 
ATOM      3  C   UNL     1       4.931   6.187 -10.451  0.00  0.00    +0.180 C 
ATOM      4  O   UNL     1       4.836   7.586 -10.484  0.00  0.00    -0.218 OA
ATOM      5  C   UNL     1       4.061   5.642 -11.579  0.00  0.00    +0.038 C 
ATOM      6  C   UNL     1       2.651   5.540 -10.999  0.00  0.00    +0.003 C 
ATOM      7  C   UNL     1       2.862   6.555  -9.734  0.00  0.00    +0.004 C 
ATOM      8  C   UNL     1       1.852   5.645  -8.720  0.00  0.00    +0.008 C 
ATOM      9  C   UNL     1       0.539   6.292  -9.391  0.00  0.00    +0.005 C 
ATOM     10  C   UNL     1      -0.513   5.570  -8.627  0.00  0.00    +0.022 C 
ATOM     11  C   UNL     1      -0.161   5.494  -7.206  0.00  0.00    -0.038 C 
ATOM     12  C   UNL     1       0.985   6.012  -6.486  0.00  0.00    +0.040 C 
ATOM     13  C   UNL     1       1.764   5.102  -5.661  0.00  0.00    +0.009 C 
ATOM     14  C   UNL     1       0.474   7.135  -5.630  0.00  0.00    -0.019 C 
ATOM     15  C   UNL     1      -0.725   7.077  -5.044  0.00  0.00    +0.038 C 
ATOM     16  C   UNL     1      -1.472   5.817  -5.163  0.00  0.00    +0.195 C 
ATOM     17  O   UNL     1      -2.429   5.513  -4.420  0.00  0.00    -0.287 OA
ATOM     18  C   UNL     1      -1.166   5.105  -6.415  0.00  0.00    +0.034 C 
ATOM     19  C   UNL     1       1.924   6.858  -7.524  0.00  0.00    +0.065 C 
ATOM     20  C   UNL     1       3.347   6.291  -6.989  0.00  0.00    +0.151 C 
ATOM     21  O   UNL     1       3.584   6.873  -5.928  0.00  0.00    -0.296 OA
ATOM     22  C   UNL     1       4.449   6.274  -7.964  0.00  0.00    +0.067 C 
ENDROOT
BRANCH   3  23
ATOM     23  C   UNL     1       6.338   5.760 -10.561  0.00  0.00    +0.211 C 
ATOM     24  O   UNL     1       6.592   5.095 -11.569  0.00  0.00    -0.291 OA
BRANCH  23  25
ATOM     25  C   UNL     1       7.319   6.873 -10.323  0.00  0.00    +0.248 C 
ATOM     26  O   UNL     1       8.210   6.882 -11.405  0.00  0.00    -0.212 OA
ENDBRANCH  23  25
ENDBRANCH   3  23
TORSDOF 2
ENDMDL
MODEL 6
REMARK VINA RESULT:      -8.6      2.812      4.416
REMARK  Name = 
REMARK  2 active torsions:
REMARK  status: ('A' for Active; 'I' for Inactive)
REMARK    1  A    between atoms: C_21  and  C_23
REMARK    2  A    between atoms: C_23  and  C_25
REMARK                            x       y       z     vdW  Elec       q    Type
REMARK                         _______ _______ _______ _____ _____    ______ ____
ROOT
ATOM      1  C   UNL     1       2.024   7.257  -7.299  0.00  0.00    +0.003 C 
ATOM      2  C   UNL     1       2.718   6.016  -6.977  0.00  0.00    +0.039 C 
ATOM      3  C   UNL     1       2.224   5.379  -5.736  0.00  0.00    +0.180 C 
ATOM      4  O   UNL     1       2.599   4.027  -5.755  0.00  0.00    -0.218 OA
ATOM      5  C   UNL     1       0.718   5.439  -5.975  0.00  0.00    +0.038 C 
ATOM      6  C   UNL     1       0.542   5.432  -7.494  0.00  0.00    +0.003 C 
ATOM      7  C   UNL     1       2.017   4.842  -7.881  0.00  0.00    +0.004 C 
ATOM      8  C   UNL     1       2.125   5.787  -9.285  0.00  0.00    +0.008 C 
ATOM      9  C   UNL     1       1.184   4.758 -10.091  0.00  0.00    +0.005 C 
ATOM     10  C   UNL     1       1.124   5.451 -11.405  0.00  0.00    +0.022 C 
ATOM     11  C   UNL     1       2.446   5.961 -11.782  0.00  0.00    -0.038 C 
ATOM     12  C   UNL     1       3.725   5.869 -11.105  0.00  0.00    +0.040 C 
ATOM     13  C   UNL     1       4.472   7.090 -10.852  0.00  0.00    +0.009 C 
ATOM     14  C   UNL     1       4.570   4.937 -11.925  0.00  0.00    -0.019 C 
ATOM     15  C   UNL     1       4.507   4.927 -13.259  0.00  0.00    +0.038 C 
ATOM     16  C   UNL     1       3.673   5.954 -13.902  0.00  0.00    +0.195 C 
ATOM     17  O   UNL     1       3.771   6.264 -15.107  0.00  0.00    -0.287 OA
ATOM     18  C   UNL     1       2.536   6.355 -13.056  0.00  0.00    +0.034 C 
ATOM     19  C   UNL     1       3.544   4.966  -9.754  0.00  0.00    +0.065 C 
ATOM     20  C   UNL     1       4.446   5.902  -8.784  0.00  0.00    +0.151 C 
ATOM     21  O   UNL     1       5.624   5.673  -9.067  0.00  0.00    -0.296 OA
ATOM     22  C   UNL     1       4.116   5.862  -7.351  0.00  0.00    +0.067 C 
ENDROOT
BRANCH   3  23
ATOM     23  C   UNL     1       2.623   6.010  -4.466  0.00  0.00    +0.211 C 
ATOM     24  O   UNL     1       1.685   6.462  -3.803  0.00  0.00    -0.291 OA
BRANCH  23  25
ATOM     25  C   UNL     1       3.571   5.172  -3.655  0.00  0.00    +0.248 C 
ATOM     26  O   UNL     1       4.859   5.689  -3.852  0.00  0.00    -0.212 OA
ENDBRANCH  23  25
ENDBRANCH   3  23
TORSDOF 2
ENDMDL
MODEL 7
REMARK VINA RESULT:      -8.6      2.021      7.089
REMARK  Name = 
REMARK  2 active torsions:
REMARK  status: ('A' for Active; 'I' for Inactive)
REMARK    1  A    between atoms: C_21  and  C_23
REMARK    2  A    between atoms: C_23  and  C_25
REMARK                            x       y       z     vdW  Elec       q    Type
REMARK                         _______ _______ _______ _____ _____    ______ ____
ROOT
ATOM      1  C   UNL     1       2.619   7.238  -7.701  0.00  0.00    +0.003 C 
ATOM      2  C   UNL     1       1.995   5.945  -7.960  0.00  0.00    +0.039 C 
ATOM      3  C   UNL     1       2.493   5.296  -9.193  0.00  0.00    +0.180 C 
ATOM      4  O   UNL     1       2.204   3.925  -9.118  0.00  0.00    -0.218 OA
ATOM      5  C   UNL     1       3.998   5.458  -9.003  0.00  0.00    +0.038 C 
ATOM      6  C   UNL     1       4.218   5.516  -7.491  0.00  0.00    +0.003 C 
ATOM      7  C   UNL     1       2.795   4.849  -7.039  0.00  0.00    +0.004 C 
ATOM      8  C   UNL     1       2.668   5.835  -5.665  0.00  0.00    +0.008 C 
ATOM      9  C   UNL     1       3.695   4.895  -4.854  0.00  0.00    +0.005 C 
ATOM     10  C   UNL     1       3.749   5.637  -3.567  0.00  0.00    +0.022 C 
ATOM     11  C   UNL     1       2.408   6.077  -3.167  0.00  0.00    -0.038 C 
ATOM     12  C   UNL     1       1.120   5.883  -3.800  0.00  0.00    +0.040 C 
ATOM     13  C   UNL     1       0.290   7.045  -4.071  0.00  0.00    +0.009 C 
ATOM     14  C   UNL     1       0.358   4.930  -2.923  0.00  0.00    -0.019 C 
ATOM     15  C   UNL     1       0.461   4.971  -1.592  0.00  0.00    +0.038 C 
ATOM     16  C   UNL     1       1.246   6.070  -1.011  0.00  0.00    +0.195 C 
ATOM     17  O   UNL     1       1.164   6.415   0.186  0.00  0.00    -0.287 OA
ATOM     18  C   UNL     1       2.331   6.510  -1.904  0.00  0.00    +0.034 C 
ATOM     19  C   UNL     1       1.317   4.945  -5.125  0.00  0.00    +0.065 C 
ATOM     20  C   UNL     1       0.331   5.789  -6.097  0.00  0.00    +0.151 C 
ATOM     21  O   UNL     1      -0.822   5.497  -5.771  0.00  0.00    -0.296 OA
ATOM     22  C   UNL     1       0.621   5.719  -7.538  0.00  0.00    +0.067 C 
ENDROOT
BRANCH   3  23
ATOM     23  C   UNL     1       2.019   5.856 -10.471  0.00  0.00    +0.211 C 
ATOM     24  O   UNL     1       2.918   6.199 -11.244  0.00  0.00    -0.291 OA
BRANCH  23  25
ATOM     25  C   UNL     1       0.957   5.021 -11.131  0.00  0.00    +0.248 C 
ATOM     26  O   UNL     1      -0.238   5.753 -11.084  0.00  0.00    -0.212 OA
ENDBRANCH  23  25
ENDBRANCH   3  23
TORSDOF 2
ENDMDL
MODEL 8
REMARK VINA RESULT:      -8.4      1.804      3.637
REMARK  Name = 
REMARK  2 active torsions:
REMARK  status: ('A' for Active; 'I' for Inactive)
REMARK    1  A    between atoms: C_21  and  C_23
REMARK    2  A    between atoms: C_23  and  C_25
REMARK                            x       y       z     vdW  Elec       q    Type
REMARK                         _______ _______ _______ _____ _____    ______ ____
ROOT
ATOM      1  C   UNL     1       1.902   4.558  -5.882  0.00  0.00    +0.003 C 
ATOM      2  C   UNL     1       0.789   5.500  -5.886  0.00  0.00    +0.039 C 
ATOM      3  C   UNL     1       0.552   6.125  -4.565  0.00  0.00    +0.180 C 
ATOM      4  O   UNL     1      -0.190   7.300  -4.760  0.00  0.00    -0.218 OA
ATOM      5  C   UNL     1       1.973   6.535  -4.194  0.00  0.00    +0.038 C 
ATOM      6  C   UNL     1       2.699   6.749  -5.522  0.00  0.00    +0.003 C 
ATOM      7  C   UNL     1       1.376   6.915  -6.469  0.00  0.00    +0.004 C 
ATOM      8  C   UNL     1       2.108   6.129  -7.782  0.00  0.00    +0.008 C 
ATOM      9  C   UNL     1       2.913   7.466  -8.178  0.00  0.00    +0.005 C 
ATOM     10  C   UNL     1       3.679   6.960  -9.348  0.00  0.00    +0.022 C 
ATOM     11  C   UNL     1       2.828   6.124 -10.200  0.00  0.00    -0.038 C 
ATOM     12  C   UNL     1       1.429   5.765 -10.081  0.00  0.00    +0.040 C 
ATOM     13  C   UNL     1       1.062   4.359 -10.113  0.00  0.00    +0.009 C 
ATOM     14  C   UNL     1       0.712   6.485 -11.187  0.00  0.00    -0.019 C 
ATOM     15  C   UNL     1       1.270   6.649 -12.390  0.00  0.00    +0.038 C 
ATOM     16  C   UNL     1       2.560   5.985 -12.631  0.00  0.00    +0.195 C 
ATOM     17  O   UNL     1       3.027   5.786 -13.771  0.00  0.00    -0.287 OA
ATOM     18  C   UNL     1       3.356   5.854 -11.399  0.00  0.00    +0.034 C 
ATOM     19  C   UNL     1       0.793   6.538  -8.788  0.00  0.00    +0.065 C 
ATOM     20  C   UNL     1      -0.069   5.283  -8.228  0.00  0.00    +0.151 C 
ATOM     21  O   UNL     1      -1.060   5.182  -8.954  0.00  0.00    -0.296 OA
ATOM     22  C   UNL     1      -0.336   5.272  -6.781  0.00  0.00    +0.067 C 
ENDROOT
BRANCH   3  23
ATOM     23  C   UNL     1      -0.081   5.277  -3.539  0.00  0.00    +0.211 C 
ATOM     24  O   UNL     1       0.589   5.133  -2.512  0.00  0.00    -0.291 OA
BRANCH  23  25
ATOM     25  C   UNL     1      -1.514   5.640  -3.265  0.00  0.00    +0.248 C 
ATOM     26  O   UNL     1      -1.967   4.801  -2.237  0.00  0.00    -0.212 OA
ENDBRANCH  23  25
ENDBRANCH   3  23
TORSDOF 2
ENDMDL
MODEL 9
REMARK VINA RESULT:      -8.3      2.823      4.852
REMARK  Name = 
REMARK  2 active torsions:
REMARK  status: ('A' for Active; 'I' for Inactive)
REMARK    1  A    between atoms: C_21  and  C_23
REMARK    2  A    between atoms: C_23  and  C_25
REMARK                            x       y       z     vdW  Elec       q    Type
REMARK                         _______ _______ _______ _____ _____    ______ ____
ROOT
ATOM      1  C   UNL     1       3.050   4.096  -7.139  0.00  0.00    +0.003 C 
ATOM      2  C   UNL     1       2.445   5.320  -6.625  0.00  0.00    +0.039 C 
ATOM      3  C   UNL     1       3.080   5.802  -5.378  0.00  0.00    +0.180 C 
ATOM      4  O   UNL     1       2.767   7.161  -5.220  0.00  0.00    -0.218 OA
ATOM      5  C   UNL     1       4.553   5.713  -5.764  0.00  0.00    +0.038 C 
ATOM      6  C   UNL     1       4.590   5.877  -7.283  0.00  0.00    +0.003 C 
ATOM      7  C   UNL     1       3.114   6.558  -7.465  0.00  0.00    +0.004 C 
ATOM      8  C   UNL     1       2.836   5.774  -8.943  0.00  0.00    +0.008 C 
ATOM      9  C   UNL     1       3.746   6.850  -9.723  0.00  0.00    +0.005 C 
ATOM     10  C   UNL     1       3.654   6.300 -11.102  0.00  0.00    +0.022 C 
ATOM     11  C   UNL     1       2.281   5.881 -11.402  0.00  0.00    -0.038 C 
ATOM     12  C   UNL     1       1.075   5.946 -10.601  0.00  0.00    +0.040 C 
ATOM     13  C   UNL     1       0.299   4.733 -10.405  0.00  0.00    +0.009 C 
ATOM     14  C   UNL     1       0.202   6.991 -11.235  0.00  0.00    -0.019 C 
ATOM     15  C   UNL     1       0.144   7.141 -12.561  0.00  0.00    +0.038 C 
ATOM     16  C   UNL     1       0.868   6.160 -13.383  0.00  0.00    +0.195 C 
ATOM     17  O   UNL     1       0.647   5.986 -14.599  0.00  0.00    -0.287 OA
ATOM     18  C   UNL     1       2.058   5.630 -12.696  0.00  0.00    +0.034 C 
ATOM     19  C   UNL     1       1.419   6.692  -9.187  0.00  0.00    +0.065 C 
ATOM     20  C   UNL     1       0.567   5.689  -8.238  0.00  0.00    +0.151 C 
ATOM     21  O   UNL     1      -0.620   5.990  -8.381  0.00  0.00    -0.296 OA
ATOM     22  C   UNL     1       1.028   5.563  -6.846  0.00  0.00    +0.067 C 
ENDROOT
BRANCH   3  23
ATOM     23  C   UNL     1       2.769   5.052  -4.147  0.00  0.00    +0.211 C 
ATOM     24  O   UNL     1       3.756   4.587  -3.570  0.00  0.00    -0.291 OA
BRANCH  23  25
ATOM     25  C   UNL     1       1.833   5.781  -3.225  0.00  0.00    +0.248 C 
ATOM     26  O   UNL     1       2.534   6.040  -2.038  0.00  0.00    -0.212 OA
ENDBRANCH  23  25
ENDBRANCH   3  23
TORSDOF 2
ENDMDL
