MODEL 1
REMARK VINA RESULT:      -8.4      0.000      0.000
REMARK  Name = 
REMARK  6 active torsions:
REMARK  status: ('A' for Active; 'I' for Inactive)
REMARK    1  A    between atoms: C_4  and  C_5
REMARK    2  A    between atoms: C_6  and  C_7
REMARK    3  A    between atoms: C_12  and  N_13
REMARK    4  A    between atoms: N_13  and  C_14
REMARK    5  A    between atoms: N_19  and  C_20
REMARK    6  A    between atoms: C_23  and  C_24
REMARK                            x       y       z     vdW  Elec       q    Type
REMARK                         _______ _______ _______ _____ _____    ______ ____
ROOT
ATOM      1  C   UNL     1       1.285   5.103  -6.998  0.00  0.00    +0.156 A 
ATOM      2  N   UNL     1       2.573   4.685  -7.077  0.00  0.00    -0.195 NA
ATOM      3  C   UNL     1       3.533   5.424  -7.679  0.00  0.00    +0.242 A 
ATOM      4  N   UNL     1       4.687   4.830  -8.284  0.00  0.00    -0.178 NA
ATOM      5  N   UNL     1       3.283   6.751  -7.772  0.00  0.00    -0.211 NA
ATOM      6  C   UNL     1       2.020   7.239  -7.846  0.00  0.00    +0.105 A 
ATOM      7  C   UNL     1       1.010   6.310  -7.634  0.00  0.00    +0.057 A 
ENDROOT
BRANCH   4   8
ATOM      8  C   UNL     1       5.256   5.458  -9.439  0.00  0.00    +0.074 A 
ATOM      9  C   UNL     1       6.570   5.823  -9.500  0.00  0.00    +0.017 A 
ATOM     10  C   UNL     1       7.195   5.896 -10.741  0.00  0.00    +0.012 A 
ATOM     11  C   UNL     1       6.479   5.778 -11.924  0.00  0.00    +0.069 A 
ATOM     12  C   UNL     1       5.143   5.428 -11.863  0.00  0.00    +0.012 A 
ATOM     13  C   UNL     1       4.554   5.389 -10.630  0.00  0.00    +0.017 A 
BRANCH  11  14
ATOM     14  C   UNL     1       7.021   6.228 -13.186  0.00  0.00    +0.100 C 
ATOM     15  N   UNL     1       7.186   6.493 -14.308  0.00  0.00    -0.191 NA
ENDBRANCH  11  14
ENDBRANCH   4   8
BRANCH   1  16
ATOM     16  N   UNL     1       0.388   4.607  -5.997  0.00  0.00    -0.195 NA
BRANCH  16  19
ATOM     17  C   UNL     1       1.992   5.964  -4.077  0.00  0.00    +0.032 C 
ATOM     18  C   UNL     1       0.514   6.024  -4.047  0.00  0.00    -0.007 A 
ATOM     19  C   UNL     1      -0.248   5.425  -5.043  0.00  0.00    +0.064 A 
ATOM     20  C   UNL     1      -1.615   5.660  -5.120  0.00  0.00    -0.007 A 
ATOM     21  C   UNL     1      -2.243   5.735  -6.463  0.00  0.00    +0.032 C 
ATOM     22  C   UNL     1      -2.254   6.062  -3.959  0.00  0.00    -0.003 A 
ATOM     23  C   UNL     1      -1.539   6.368  -2.813  0.00  0.00    +0.000 A 
ATOM     24  C   UNL     1      -0.176   6.580  -2.976  0.00  0.00    -0.003 A 
BRANCH  23  25
ATOM     25  C   UNL     1      -2.111   6.225  -1.469  0.00  0.00    +0.011 C 
ATOM     26  C   UNL     1      -2.050   7.199  -0.577  0.00  0.00    +0.078 C 
BRANCH  26  27
ATOM     27  C   UNL     1      -2.132   6.907   0.833  0.00  0.00    +0.101 C 
ATOM     28  N   UNL     1      -2.076   6.577   1.932  0.00  0.00    -0.191 NA
ENDBRANCH  26  27
ENDBRANCH  23  25
ENDBRANCH  16  19
ENDBRANCH   1  16
TORSDOF 6
ENDMDL
MODEL 2
REMARK VINA RESULT:      -8.3      1.851     10.275
REMARK  Name = 
REMARK  6 active torsions:
REMARK  status: ('A' for Active; 'I' for Inactive)
REMARK    1  A    between atoms: C_4  and  C_5
REMARK    2  A    between atoms: C_6  and  C_7
REMARK    3  A    between atoms: C_12  and  N_13
REMARK    4  A    between atoms: N_13  and  C_14
REMARK    5  A    between atoms: N_19  and  C_20
REMARK    6  A    between atoms: C_23  and  C_24
REMARK                            x       y       z     vdW  Elec       q    Type
REMARK                         _______ _______ _______ _____ _____    ______ ____
ROOT
ATOM      1  C   UNL     1       1.139   5.728  -5.616  0.00  0.00    +0.156 A 
ATOM      2  N   UNL     1       0.774   4.927  -4.583  0.00  0.00    -0.195 NA
ATOM      3  C   UNL     1      -0.076   5.341  -3.617  0.00  0.00    +0.242 A 
ATOM      4  N   UNL     1      -0.036   4.813  -2.286  0.00  0.00    -0.178 NA
ATOM      5  N   UNL     1      -0.895   6.366  -3.952  0.00  0.00    -0.211 NA
ATOM      6  C   UNL     1      -0.540   7.295  -4.874  0.00  0.00    +0.105 A 
ATOM      7  C   UNL     1       0.628   7.021  -5.575  0.00  0.00    +0.057 A 
ENDROOT
BRANCH   4   8
ATOM      8  C   UNL     1      -0.382   5.675  -1.195  0.00  0.00    +0.074 A 
ATOM      9  C   UNL     1       0.547   6.422  -0.529  0.00  0.00    +0.017 A 
ATOM     10  C   UNL     1       0.147   7.598   0.096  0.00  0.00    +0.012 A 
ATOM     11  C   UNL     1      -1.192   7.944   0.208  0.00  0.00    +0.069 A 
ATOM     12  C   UNL     1      -2.137   7.177  -0.449  0.00  0.00    +0.012 A 
ATOM     13  C   UNL     1      -1.714   6.015  -1.032  0.00  0.00    +0.017 A 
BRANCH  11  14
ATOM     14  C   UNL     1      -1.643   8.929   1.165  0.00  0.00    +0.100 C 
ATOM     15  N   UNL     1      -1.865   9.915   1.744  0.00  0.00    -0.191 NA
ENDBRANCH  11  14
ENDBRANCH   4   8
BRANCH   1  16
ATOM     16  N   UNL     1       1.623   5.194  -6.854  0.00  0.00    -0.195 NA
BRANCH  16  19
ATOM     17  C   UNL     1       1.384   6.805  -9.188  0.00  0.00    +0.032 C 
ATOM     18  C   UNL     1       2.697   6.353  -8.678  0.00  0.00    -0.007 A 
ATOM     19  C   UNL     1       2.798   5.640  -7.490  0.00  0.00    +0.064 A 
ATOM     20  C   UNL     1       4.040   5.401  -6.916  0.00  0.00    -0.007 A 
ATOM     21  C   UNL     1       4.145   5.399  -5.436  0.00  0.00    +0.032 C 
ATOM     22  C   UNL     1       5.141   5.435  -7.755  0.00  0.00    -0.003 A 
ATOM     23  C   UNL     1       5.029   5.843  -9.074  0.00  0.00    +0.000 A 
ATOM     24  C   UNL     1       3.866   6.523  -9.411  0.00  0.00    -0.003 A 
BRANCH  23  25
ATOM     25  C   UNL     1       5.942   5.371 -10.122  0.00  0.00    +0.011 C 
ATOM     26  C   UNL     1       7.221   5.705 -10.136  0.00  0.00    +0.078 C 
BRANCH  26  27
ATOM     27  C   UNL     1       7.969   5.688 -11.369  0.00  0.00    +0.101 C 
ATOM     28  N   UNL     1       8.535   5.519 -12.354  0.00  0.00    -0.191 NA
ENDBRANCH  26  27
ENDBRANCH  23  25
ENDBRANCH  16  19
ENDBRANCH   1  16
TORSDOF 6
ENDMDL
MODEL 3
REMARK VINA RESULT:      -8.1      1.988      3.344
REMARK  Name = 
REMARK  6 active torsions:
REMARK  status: ('A' for Active; 'I' for Inactive)
REMARK    1  A    between atoms: C_4  and  C_5
REMARK    2  A    between atoms: C_6  and  C_7
REMARK    3  A    between atoms: C_12  and  N_13
REMARK    4  A    between atoms: N_13  and  C_14
REMARK    5  A    between atoms: N_19  and  C_20
REMARK    6  A    between atoms: C_23  and  C_24
REMARK                            x       y       z     vdW  Elec       q    Type
REMARK                         _______ _______ _______ _____ _____    ______ ____
ROOT
ATOM      1  C   UNL     1       0.574   5.481  -4.369  0.00  0.00    +0.156 A 
ATOM      2  N   UNL     1       1.260   4.692  -5.234  0.00  0.00    -0.195 NA
ATOM      3  C   UNL     1       2.454   5.060  -5.750  0.00  0.00    +0.242 A 
ATOM      4  N   UNL     1       2.910   4.597  -7.026  0.00  0.00    -0.178 NA
ATOM      5  N   UNL     1       3.145   5.982  -5.038  0.00  0.00    -0.211 NA
ATOM      6  C   UNL     1       2.522   6.901  -4.261  0.00  0.00    +0.105 A 
ATOM      7  C   UNL     1       1.154   6.716  -4.102  0.00  0.00    +0.057 A 
ENDROOT
BRANCH   4   8
ATOM      8  C   UNL     1       3.728   5.466  -7.820  0.00  0.00    +0.074 A 
ATOM      9  C   UNL     1       5.046   5.209  -8.064  0.00  0.00    +0.017 A 
ATOM     10  C   UNL     1       5.631   5.714  -9.220  0.00  0.00    +0.012 A 
ATOM     11  C   UNL     1       4.962   6.609 -10.043  0.00  0.00    +0.069 A 
ATOM     12  C   UNL     1       3.632   6.886  -9.786  0.00  0.00    +0.012 A 
ATOM     13  C   UNL     1       3.095   6.395  -8.629  0.00  0.00    +0.017 A 
BRANCH  11  14
ATOM     14  C   UNL     1       5.666   7.426 -11.005  0.00  0.00    +0.100 C 
ATOM     15  N   UNL     1       6.441   7.859 -11.759  0.00  0.00    -0.191 NA
ENDBRANCH  11  14
ENDBRANCH   4   8
BRANCH   1  16
ATOM     16  N   UNL     1      -0.404   4.945  -3.469  0.00  0.00    -0.195 NA
BRANCH  16  19
ATOM     17  C   UNL     1      -3.116   5.640  -2.954  0.00  0.00    +0.032 C 
ATOM     18  C   UNL     1      -2.031   5.953  -1.999  0.00  0.00    -0.007 A 
ATOM     19  C   UNL     1      -0.728   5.531  -2.229  0.00  0.00    +0.064 A 
ATOM     20  C   UNL     1       0.236   5.648  -1.237  0.00  0.00    -0.007 A 
ATOM     21  C   UNL     1       1.270   4.589  -1.128  0.00  0.00    +0.032 C 
ATOM     22  C   UNL     1       0.021   6.603  -0.257  0.00  0.00    -0.003 A 
ATOM     23  C   UNL     1      -1.173   7.300  -0.181  0.00  0.00    +0.000 A 
ATOM     24  C   UNL     1      -2.241   6.771  -0.894  0.00  0.00    -0.003 A 
BRANCH  23  25
ATOM     25  C   UNL     1      -1.261   8.647   0.394  0.00  0.00    +0.011 C 
ATOM     26  C   UNL     1      -0.720   8.945   1.563  0.00  0.00    +0.078 C 
BRANCH  26  27
ATOM     27  C   UNL     1      -1.218  10.053   2.341  0.00  0.00    +0.101 C 
ATOM     28  N   UNL     1      -1.473  10.936   3.029  0.00  0.00    -0.191 NA
ENDBRANCH  26  27
ENDBRANCH  23  25
ENDBRANCH  16  19
ENDBRANCH   1  16
TORSDOF 6
ENDMDL
MODEL 4
REMARK VINA RESULT:      -8.1      1.665     10.795
REMARK  Name = 
REMARK  6 active torsions:
REMARK  status: ('A' for Active; 'I' for Inactive)
REMARK    1  A    between atoms: C_4  and  C_5
REMARK    2  A    between atoms: C_6  and  C_7
REMARK    3  A    between atoms: C_12  and  N_13
REMARK    4  A    between atoms: N_13  and  C_14
REMARK    5  A    between atoms: N_19  and  C_20
REMARK    6  A    between atoms: C_23  and  C_24
REMARK                            x       y       z     vdW  Elec       q    Type
REMARK                         _______ _______ _______ _____ _____    ______ ____
ROOT
ATOM      1  C   UNL     1       3.439   5.158  -8.744  0.00  0.00    +0.156 A 
ATOM      2  N   UNL     1       2.186   4.648  -8.631  0.00  0.00    -0.195 NA
ATOM      3  C   UNL     1       1.169   5.354  -8.087  0.00  0.00    +0.242 A 
ATOM      4  N   UNL     1       0.063   4.720  -7.436  0.00  0.00    -0.178 NA
ATOM      5  N   UNL     1       1.314   6.700  -8.098  0.00  0.00    -0.211 NA
ATOM      6  C   UNL     1       2.535   7.290  -8.065  0.00  0.00    +0.105 A 
ATOM      7  C   UNL     1       3.615   6.428  -8.205  0.00  0.00    +0.057 A 
ENDROOT
BRANCH   4   8
ATOM      8  C   UNL     1      -0.559   5.391  -6.333  0.00  0.00    +0.074 A 
ATOM      9  C   UNL     1      -1.876   5.750  -6.343  0.00  0.00    +0.017 A 
ATOM     10  C   UNL     1      -2.555   5.868  -5.135  0.00  0.00    +0.012 A 
ATOM     11  C   UNL     1      -1.891   5.800  -3.918  0.00  0.00    +0.069 A 
ATOM     12  C   UNL     1      -0.552   5.457  -3.906  0.00  0.00    +0.012 A 
ATOM     13  C   UNL     1       0.090   5.372  -5.110  0.00  0.00    +0.017 A 
BRANCH  11  14
ATOM     14  C   UNL     1      -2.489   6.297  -2.699  0.00  0.00    +0.100 C 
ATOM     15  N   UNL     1      -3.125   6.875  -1.914  0.00  0.00    -0.191 NA
ENDBRANCH  11  14
ENDBRANCH   4   8
BRANCH   1  16
ATOM     16  N   UNL     1       4.376   4.657  -9.705  0.00  0.00    -0.195 NA
BRANCH  16  19
ATOM     17  C   UNL     1       2.905   6.044 -11.709  0.00  0.00    +0.032 C 
ATOM     18  C   UNL     1       4.382   6.088 -11.648  0.00  0.00    -0.007 A 
ATOM     19  C   UNL     1       5.076   5.475 -10.614  0.00  0.00    +0.064 A 
ATOM     20  C   UNL     1       6.438   5.694 -10.453  0.00  0.00    -0.007 A 
ATOM     21  C   UNL     1       6.986   5.753  -9.074  0.00  0.00    +0.032 C 
ATOM     22  C   UNL     1       7.150   6.096 -11.570  0.00  0.00    -0.003 A 
ATOM     23  C   UNL     1       6.509   6.418 -12.754  0.00  0.00    +0.000 A 
ATOM     24  C   UNL     1       5.141   6.644 -12.672  0.00  0.00    -0.003 A 
BRANCH  23  25
ATOM     25  C   UNL     1       7.159   6.278 -14.063  0.00  0.00    +0.011 C 
ATOM     26  C   UNL     1       6.770   6.978 -15.115  0.00  0.00    +0.078 C 
BRANCH  26  27
ATOM     27  C   UNL     1       7.031   6.499 -16.450  0.00  0.00    +0.101 C 
ATOM     28  N   UNL     1       7.207   6.265 -17.561  0.00  0.00    -0.191 NA
ENDBRANCH  26  27
ENDBRANCH  23  25
ENDBRANCH  16  19
ENDBRANCH   1  16
TORSDOF 6
ENDMDL
MODEL 5
REMARK VINA RESULT:      -8.1      2.332      3.962
REMARK  Name = 
REMARK  6 active torsions:
REMARK  status: ('A' for Active; 'I' for Inactive)
REMARK    1  A    between atoms: C_4  and  C_5
REMARK    2  A    between atoms: C_6  and  C_7
REMARK    3  A    between atoms: C_12  and  N_13
REMARK    4  A    between atoms: N_13  and  C_14
REMARK    5  A    between atoms: N_19  and  C_20
REMARK    6  A    between atoms: C_23  and  C_24
REMARK                            x       y       z     vdW  Elec       q    Type
REMARK                         _______ _______ _______ _____ _____    ______ ____
ROOT
ATOM      1  C   UNL     1       3.346   5.645  -9.717  0.00  0.00    +0.156 A 
ATOM      2  N   UNL     1       4.026   4.838 -10.569  0.00  0.00    -0.195 NA
ATOM      3  C   UNL     1       4.875   5.327 -11.500  0.00  0.00    +0.242 A 
ATOM      4  N   UNL     1       5.142   4.639 -12.727  0.00  0.00    -0.178 NA
ATOM      5  N   UNL     1       5.374   6.562 -11.252  0.00  0.00    -0.211 NA
ATOM      6  C   UNL     1       4.686   7.480 -10.529  0.00  0.00    +0.105 A 
ATOM      7  C   UNL     1       3.534   7.010  -9.912  0.00  0.00    +0.057 A 
ENDROOT
BRANCH   4   8
ATOM      8  C   UNL     1       5.417   5.413 -13.902  0.00  0.00    +0.074 A 
ATOM      9  C   UNL     1       4.455   6.143 -14.538  0.00  0.00    +0.017 A 
ATOM     10  C   UNL     1       4.832   7.260 -15.277  0.00  0.00    +0.012 A 
ATOM     11  C   UNL     1       6.166   7.552 -15.525  0.00  0.00    +0.069 A 
ATOM     12  C   UNL     1       7.142   6.800 -14.897  0.00  0.00    +0.012 A 
ATOM     13  C   UNL     1       6.739   5.696 -14.200  0.00  0.00    +0.017 A 
BRANCH  11  14
ATOM     14  C   UNL     1       6.560   8.453 -16.584  0.00  0.00    +0.100 C 
ATOM     15  N   UNL     1       6.683   9.369 -17.294  0.00  0.00    -0.191 NA
ENDBRANCH  11  14
ENDBRANCH   4   8
BRANCH   1  16
ATOM     16  N   UNL     1       2.840   5.170  -8.464  0.00  0.00    -0.195 NA
BRANCH  16  19
ATOM     17  C   UNL     1       3.104   6.926  -6.239  0.00  0.00    +0.032 C 
ATOM     18  C   UNL     1       1.785   6.455  -6.714  0.00  0.00    -0.007 A 
ATOM     19  C   UNL     1       1.672   5.668  -7.853  0.00  0.00    +0.064 A 
ATOM     20  C   UNL     1       0.425   5.404  -8.406  0.00  0.00    -0.007 A 
ATOM     21  C   UNL     1       0.314   5.307  -9.882  0.00  0.00    +0.032 C 
ATOM     22  C   UNL     1      -0.672   5.503  -7.567  0.00  0.00    -0.003 A 
ATOM     23  C   UNL     1      -0.550   5.994  -6.278  0.00  0.00    +0.000 A 
ATOM     24  C   UNL     1       0.621   6.684  -5.990  0.00  0.00    -0.003 A 
BRANCH  23  25
ATOM     25  C   UNL     1      -1.462   5.601  -5.198  0.00  0.00    +0.011 C 
ATOM     26  C   UNL     1      -1.569   6.303  -4.082  0.00  0.00    +0.078 C 
BRANCH  26  27
ATOM     27  C   UNL     1      -2.037   5.682  -2.867  0.00  0.00    +0.101 C 
ATOM     28  N   UNL     1      -2.406   5.052  -1.981  0.00  0.00    -0.191 NA
ENDBRANCH  26  27
ENDBRANCH  23  25
ENDBRANCH  16  19
ENDBRANCH   1  16
TORSDOF 6
ENDMDL
MODEL 6
REMARK VINA RESULT:      -7.8      2.996     10.155
REMARK  Name = 
REMARK  6 active torsions:
REMARK  status: ('A' for Active; 'I' for Inactive)
REMARK    1  A    between atoms: C_4  and  C_5
REMARK    2  A    between atoms: C_6  and  C_7
REMARK    3  A    between atoms: C_12  and  N_13
REMARK    4  A    between atoms: N_13  and  C_14
REMARK    5  A    between atoms: N_19  and  C_20
REMARK    6  A    between atoms: C_23  and  C_24
REMARK                            x       y       z     vdW  Elec       q    Type
REMARK                         _______ _______ _______ _____ _____    ______ ____
ROOT
ATOM      1  C   UNL     1       0.990   5.743  -5.227  0.00  0.00    +0.156 A 
ATOM      2  N   UNL     1       0.627   4.989  -4.159  0.00  0.00    -0.195 NA
ATOM      3  C   UNL     1      -0.191   5.460  -3.191  0.00  0.00    +0.242 A 
ATOM      4  N   UNL     1      -0.137   4.978  -1.844  0.00  0.00    -0.178 NA
ATOM      5  N   UNL     1      -0.989   6.495  -3.546  0.00  0.00    -0.211 NA
ATOM      6  C   UNL     1      -0.629   7.381  -4.507  0.00  0.00    +0.105 A 
ATOM      7  C   UNL     1       0.516   7.050  -5.221  0.00  0.00    +0.057 A 
ENDROOT
BRANCH   4   8
ATOM      8  C   UNL     1      -0.436   5.887  -0.777  0.00  0.00    +0.074 A 
ATOM      9  C   UNL     1       0.515   6.680  -0.202  0.00  0.00    +0.017 A 
ATOM     10  C   UNL     1       0.131   7.879   0.388  0.00  0.00    +0.012 A 
ATOM     11  C   UNL     1      -1.206   8.210   0.560  0.00  0.00    +0.069 A 
ATOM     12  C   UNL     1      -2.173   7.398  -0.005  0.00  0.00    +0.012 A 
ATOM     13  C   UNL     1      -1.763   6.215  -0.555  0.00  0.00    +0.017 A 
BRANCH  11  14
ATOM     14  C   UNL     1      -1.620   9.233   1.492  0.00  0.00    +0.100 C 
ATOM     15  N   UNL     1      -1.883  10.243   2.009  0.00  0.00    -0.191 NA
ENDBRANCH  11  14
ENDBRANCH   4   8
BRANCH   1  16
ATOM     16  N   UNL     1       1.434   5.152  -6.454  0.00  0.00    -0.195 NA
BRANCH  16  19
ATOM     17  C   UNL     1      -1.261   4.958  -7.351  0.00  0.00    +0.032 C 
ATOM     18  C   UNL     1      -0.184   5.493  -8.213  0.00  0.00    -0.007 A 
ATOM     19  C   UNL     1       1.107   5.659  -7.728  0.00  0.00    +0.064 A 
ATOM     20  C   UNL     1       2.055   6.349  -8.472  0.00  0.00    -0.007 A 
ATOM     21  C   UNL     1       3.048   7.183  -7.750  0.00  0.00    +0.032 C 
ATOM     22  C   UNL     1       1.856   6.419  -9.841  0.00  0.00    -0.003 A 
ATOM     23  C   UNL     1       0.687   5.959 -10.422  0.00  0.00    +0.000 A 
ATOM     24  C   UNL     1      -0.386   5.748  -9.565  0.00  0.00    -0.003 A 
BRANCH  23  25
ATOM     25  C   UNL     1       0.637   5.470 -11.805  0.00  0.00    +0.011 C 
ATOM     26  C   UNL     1       1.363   6.016 -12.765  0.00  0.00    +0.078 C 
BRANCH  26  27
ATOM     27  C   UNL     1       0.958   5.902 -14.145  0.00  0.00    +0.101 C 
ATOM     28  N   UNL     1       0.593   5.665 -15.208  0.00  0.00    -0.191 NA
ENDBRANCH  26  27
ENDBRANCH  23  25
ENDBRANCH  16  19
ENDBRANCH   1  16
TORSDOF 6
ENDMDL
MODEL 7
REMARK VINA RESULT:      -7.7      3.378     10.981
REMARK  Name = 
REMARK  6 active torsions:
REMARK  status: ('A' for Active; 'I' for Inactive)
REMARK    1  A    between atoms: C_4  and  C_5
REMARK    2  A    between atoms: C_6  and  C_7
REMARK    3  A    between atoms: C_12  and  N_13
REMARK    4  A    between atoms: N_13  and  C_14
REMARK    5  A    between atoms: N_19  and  C_20
REMARK    6  A    between atoms: C_23  and  C_24
REMARK                            x       y       z     vdW  Elec       q    Type
REMARK                         _______ _______ _______ _____ _____    ______ ____
ROOT
ATOM      1  C   UNL     1       4.497   5.781  -9.363  0.00  0.00    +0.156 A 
ATOM      2  N   UNL     1       4.546   5.153  -8.162  0.00  0.00    -0.195 NA
ATOM      3  C   UNL     1       3.794   5.551  -7.111  0.00  0.00    +0.242 A 
ATOM      4  N   UNL     1       4.204   5.339  -5.755  0.00  0.00    -0.178 NA
ATOM      5  N   UNL     1       2.683   6.262  -7.417  0.00  0.00    -0.211 NA
ATOM      6  C   UNL     1       2.610   7.033  -8.530  0.00  0.00    +0.105 A 
ATOM      7  C   UNL     1       3.669   6.898  -9.417  0.00  0.00    +0.057 A 
ENDROOT
BRANCH   4   8
ATOM      8  C   UNL     1       3.830   6.306  -4.766  0.00  0.00    +0.074 A 
ATOM      9  C   UNL     1       2.862   6.064  -3.835  0.00  0.00    +0.017 A 
ATOM     10  C   UNL     1       2.910   6.734  -2.617  0.00  0.00    +0.012 A 
ATOM     11  C   UNL     1       3.812   7.764  -2.390  0.00  0.00    +0.069 A 
ATOM     12  C   UNL     1       4.782   8.025  -3.341  0.00  0.00    +0.012 A 
ATOM     13  C   UNL     1       4.690   7.366  -4.535  0.00  0.00    +0.017 A 
BRANCH  11  14
ATOM     14  C   UNL     1       3.627   8.709  -1.312  0.00  0.00    +0.100 C 
ATOM     15  N   UNL     1       3.729   9.599  -0.566  0.00  0.00    -0.191 NA
ENDBRANCH  11  14
ENDBRANCH   4   8
BRANCH   1  16
ATOM     16  N   UNL     1       4.888   5.127 -10.576  0.00  0.00    -0.195 NA
BRANCH  16  19
ATOM     17  C   UNL     1       3.159   5.658 -12.775  0.00  0.00    +0.032 C 
ATOM     18  C   UNL     1       4.599   5.993 -12.811  0.00  0.00    -0.007 A 
ATOM     19  C   UNL     1       5.407   5.805 -11.697  0.00  0.00    +0.064 A 
ATOM     20  C   UNL     1       6.701   6.310 -11.672  0.00  0.00    -0.007 A 
ATOM     21  C   UNL     1       7.235   6.819 -10.384  0.00  0.00    +0.032 C 
ATOM     22  C   UNL     1       7.312   6.543 -12.892  0.00  0.00    -0.003 A 
ATOM     23  C   UNL     1       6.612   6.426 -14.082  0.00  0.00    +0.000 A 
ATOM     24  C   UNL     1       5.227   6.403 -13.981  0.00  0.00    -0.003 A 
BRANCH  23  25
ATOM     25  C   UNL     1       7.269   6.084 -15.349  0.00  0.00    +0.011 C 
ATOM     26  C   UNL     1       7.018   6.744 -16.466  0.00  0.00    +0.078 C 
BRANCH  26  27
ATOM     27  C   UNL     1       7.239   6.124 -17.750  0.00  0.00    +0.101 C 
ATOM     28  N   UNL     1       7.284   5.548 -18.742  0.00  0.00    -0.191 NA
ENDBRANCH  26  27
ENDBRANCH  23  25
ENDBRANCH  16  19
ENDBRANCH   1  16
TORSDOF 6
ENDMDL
MODEL 8
REMARK VINA RESULT:      -7.7      3.815      9.145
REMARK  Name = 
REMARK  6 active torsions:
REMARK  status: ('A' for Active; 'I' for Inactive)
REMARK    1  A    between atoms: C_4  and  C_5
REMARK    2  A    between atoms: C_6  and  C_7
REMARK    3  A    between atoms: C_12  and  N_13
REMARK    4  A    between atoms: N_13  and  C_14
REMARK    5  A    between atoms: N_19  and  C_20
REMARK    6  A    between atoms: C_23  and  C_24
REMARK                            x       y       z     vdW  Elec       q    Type
REMARK                         _______ _______ _______ _____ _____    ______ ____
ROOT
ATOM      1  C   UNL     1       3.400   5.553  -9.325  0.00  0.00    +0.156 A 
ATOM      2  N   UNL     1       3.279   4.809  -8.198  0.00  0.00    -0.195 NA
ATOM      3  C   UNL     1       2.998   5.363  -6.997  0.00  0.00    +0.242 A 
ATOM      4  N   UNL     1       3.418   4.768  -5.764  0.00  0.00    -0.178 NA
ATOM      5  N   UNL     1       2.391   6.573  -7.034  0.00  0.00    -0.211 NA
ATOM      6  C   UNL     1       2.579   7.438  -8.061  0.00  0.00    +0.105 A 
ATOM      7  C   UNL     1       3.279   6.927  -9.147  0.00  0.00    +0.057 A 
ENDROOT
BRANCH   4   8
ATOM      8  C   UNL     1       3.743   5.626  -4.663  0.00  0.00    +0.074 A 
ATOM      9  C   UNL     1       4.721   6.575  -4.740  0.00  0.00    +0.017 A 
ATOM     10  C   UNL     1       4.638   7.699  -3.925  0.00  0.00    +0.012 A 
ATOM     11  C   UNL     1       3.687   7.800  -2.919  0.00  0.00    +0.069 A 
ATOM     12  C   UNL     1       2.706   6.829  -2.827  0.00  0.00    +0.012 A 
ATOM     13  C   UNL     1       2.832   5.727  -3.626  0.00  0.00    +0.017 A 
BRANCH  11  14
ATOM     14  C   UNL     1       3.824   8.750  -1.839  0.00  0.00    +0.100 C 
ATOM     15  N   UNL     1       3.660   9.404  -0.889  0.00  0.00    -0.191 NA
ENDBRANCH  11  14
ENDBRANCH   4   8
BRANCH   1  16
ATOM     16  N   UNL     1       3.222   4.987 -10.629  0.00  0.00    -0.195 NA
BRANCH  16  19
ATOM     17  C   UNL     1       4.147   5.296 -13.304  0.00  0.00    +0.032 C 
ATOM     18  C   UNL     1       2.803   5.747 -12.881  0.00  0.00    -0.007 A 
ATOM     19  C   UNL     1       2.338   5.511 -11.594  0.00  0.00    +0.064 A 
ATOM     20  C   UNL     1       1.010   5.751 -11.270  0.00  0.00    -0.007 A 
ATOM     21  C   UNL     1       0.344   4.844 -10.302  0.00  0.00    +0.032 C 
ATOM     22  C   UNL     1       0.321   6.658 -12.057  0.00  0.00    -0.003 A 
ATOM     23  C   UNL     1       0.883   7.183 -13.209  0.00  0.00    +0.000 A 
ATOM     24  C   UNL     1       1.995   6.518 -13.710  0.00  0.00    -0.003 A 
BRANCH  23  25
ATOM     25  C   UNL     1       0.507   8.500 -13.737  0.00  0.00    +0.011 C 
ATOM     26  C   UNL     1       0.852   8.890 -14.952  0.00  0.00    +0.078 C 
BRANCH  26  27
ATOM     27  C   UNL     1       0.943  10.293 -15.273  0.00  0.00    +0.101 C 
ATOM     28  N   UNL     1       0.871  11.423 -15.466  0.00  0.00    -0.191 NA
ENDBRANCH  26  27
ENDBRANCH  23  25
ENDBRANCH  16  19
ENDBRANCH   1  16
TORSDOF 6
ENDMDL
MODEL 9
REMARK VINA RESULT:      -7.7      3.727      9.333
REMARK  Name = 
REMARK  6 active torsions:
REMARK  status: ('A' for Active; 'I' for Inactive)
REMARK    1  A    between atoms: C_4  and  C_5
REMARK    2  A    between atoms: C_6  and  C_7
REMARK    3  A    between atoms: C_12  and  N_13
REMARK    4  A    between atoms: N_13  and  C_14
REMARK    5  A    between atoms: N_19  and  C_20
REMARK    6  A    between atoms: C_23  and  C_24
REMARK                            x       y       z     vdW  Elec       q    Type
REMARK                         _______ _______ _______ _____ _____    ______ ____
ROOT
ATOM      1  C   UNL     1       1.762   5.274  -5.091  0.00  0.00    +0.156 A 
ATOM      2  N   UNL     1       3.027   5.305  -4.603  0.00  0.00    -0.195 NA
ATOM      3  C   UNL     1       3.293   5.613  -3.313  0.00  0.00    +0.242 A 
ATOM      4  N   UNL     1       4.531   6.208  -2.910  0.00  0.00    -0.178 NA
ATOM      5  N   UNL     1       2.274   5.427  -2.441  0.00  0.00    -0.211 NA
ATOM      6  C   UNL     1       0.977   5.525  -2.823  0.00  0.00    +0.105 A 
ATOM      7  C   UNL     1       0.767   5.643  -4.191  0.00  0.00    +0.057 A 
ENDROOT
BRANCH   4   8
ATOM      8  C   UNL     1       4.527   7.119  -1.803  0.00  0.00    +0.074 A 
ATOM      9  C   UNL     1       4.000   8.375  -1.892  0.00  0.00    +0.017 A 
ATOM     10  C   UNL     1       3.517   8.989  -0.741  0.00  0.00    +0.012 A 
ATOM     11  C   UNL     1       3.712   8.434   0.516  0.00  0.00    +0.069 A 
ATOM     12  C   UNL     1       4.264   7.169   0.609  0.00  0.00    +0.012 A 
ATOM     13  C   UNL     1       4.750   6.605  -0.537  0.00  0.00    +0.017 A 
BRANCH  11  14
ATOM     14  C   UNL     1       3.571   9.219   1.722  0.00  0.00    +0.100 C 
ATOM     15  N   UNL     1       3.763   9.870   2.667  0.00  0.00    -0.191 NA
ENDBRANCH  11  14
ENDBRANCH   4   8
BRANCH   1  16
ATOM     16  N   UNL     1       1.419   4.518  -6.258  0.00  0.00    -0.195 NA
BRANCH  16  19
ATOM     17  C   UNL     1      -1.165   5.375  -7.090  0.00  0.00    +0.032 C 
ATOM     18  C   UNL     1       0.006   5.425  -7.992  0.00  0.00    -0.007 A 
ATOM     19  C   UNL     1       1.274   5.083  -7.541  0.00  0.00    +0.064 A 
ATOM     20  C   UNL     1       2.392   5.329  -8.328  0.00  0.00    -0.007 A 
ATOM     21  C   UNL     1       3.655   5.724  -7.657  0.00  0.00    +0.032 C 
ATOM     22  C   UNL     1       2.190   5.440  -9.694  0.00  0.00    -0.003 A 
ATOM     23  C   UNL     1       0.915   5.462 -10.234  0.00  0.00    +0.000 A 
ATOM     24  C   UNL     1      -0.125   5.708  -9.347  0.00  0.00    -0.003 A 
BRANCH  23  25
ATOM     25  C   UNL     1       0.632   5.001 -11.598  0.00  0.00    +0.011 C 
ATOM     26  C   UNL     1       1.476   5.208 -12.595  0.00  0.00    +0.078 C 
BRANCH  26  27
ATOM     27  C   UNL     1       1.007   5.229 -13.959  0.00  0.00    +0.101 C 
ATOM     28  N   UNL     1       0.543   5.365 -15.000  0.00  0.00    -0.191 NA
ENDBRANCH  26  27
ENDBRANCH  23  25
ENDBRANCH  16  19
ENDBRANCH   1  16
TORSDOF 6
ENDMDL
