MODEL 1
REMARK VINA RESULT:      -8.0      0.000      0.000
REMARK  Name = 
REMARK  10 active torsions:
REMARK  status: ('A' for Active; 'I' for Inactive)
REMARK    1  A    between atoms: C_2  and  O_3
REMARK    2  A    between atoms: O_3  and  C_4
REMARK    3  A    between atoms: C_4  and  C_6
REMARK    4  A    between atoms: C_6  and  C_7
REMARK    5  A    between atoms: C_6  and  N_15
REMARK    6  A    between atoms: C_7  and  C_8
REMARK    7  A    between atoms: C_8  and  C_9
REMARK    8  A    between atoms: N_15  and  CA_16
REMARK    9  A    between atoms: CA_16  and  C_18
REMARK   10  A    between atoms: C_21  and  C_22
REMARK                            x       y       z     vdW  Elec       q    Type
REMARK                         _______ _______ _______ _____ _____    ______ ____
ROOT
ATOM      1  N   ALA A   1       2.138   6.673  -9.137  0.00  0.00    -0.201 NA
ENDROOT
BRANCH   1   2
ATOM      2  CA  ALA A   1       2.771   5.365  -9.814  0.00  0.00    +0.149 C 
ATOM      3  CB  ALA A   1       1.265   4.769 -10.214  0.00  0.00    +0.029 C 
BRANCH   2   4
ATOM      4  C   ALA A   1       2.980   6.068 -11.275  0.00  0.00    +0.242 C 
ATOM      5  N   UNK A   2       4.394   6.059 -11.485  0.00  0.00    -0.272 N 
ATOM      6  C   UNK A   2       5.296   6.677 -10.352  0.00  0.00    +0.076 C 
ATOM      7  C   UNK A   2       6.408   7.439 -11.417  0.00  0.00    +0.020 C 
ATOM      8  C   UNK A   2       7.719   7.009 -10.556  0.00  0.00    +0.002 C 
ATOM      9  C   UNK A   2       7.226   6.146  -9.481  0.00  0.00    +0.002 C 
ATOM     10  C   UNK A   2       6.451   6.132 -12.402  0.00  0.00    +0.033 C 
ATOM     11  C   UNK A   2       6.231   5.313 -10.286  0.00  0.00    +0.020 C 
ATOM     12  C   UNK A   2       4.956   6.802 -12.764  0.00  0.00    +0.179 C 
ATOM     13  O   ALA A   1       2.103   5.960 -12.092  0.00  0.00    -0.273 OA
BRANCH  12  14
ATOM     14  C   UNK A   2       4.524   5.588 -13.775  0.00  0.00    +0.382 C 
ATOM     15  O   UNK A   2       3.810   5.908 -14.866  0.00  0.00    -0.244 OA
ATOM     16  O   UNK A   2       5.150   4.544 -13.514  0.00  0.00    -0.244 OA
ENDBRANCH  12  14
ENDBRANCH   2   4
ENDBRANCH   1   2
BRANCH   1  17
ATOM     17  C   UNK A   0       2.227   5.942  -7.707  0.00  0.00    +0.172 C 
BRANCH  17  18
ATOM     18  C   UNK A   0       1.545   7.158  -6.860  0.00  0.00    +0.333 C 
ATOM     19  O   UNK A   0       1.870   8.241  -7.416  0.00  0.00    -0.249 OA
BRANCH  18  20
ATOM     20  O   UNK A   0       0.554   6.947  -6.002  0.00  0.00    -0.448 OA
BRANCH  20  22
ATOM     21  C   UNK A   0       0.796   5.406  -4.356  0.00  0.00    +0.051 C 
ATOM     22  C   UNK A   0       0.950   6.701  -4.652  0.00  0.00    +0.209 C 
ENDBRANCH  20  22
ENDBRANCH  18  20
ENDBRANCH  17  18
BRANCH  17  23
ATOM     23  C   UNK A   0       3.761   6.472  -7.327  0.00  0.00    +0.033 C 
BRANCH  23  24
ATOM     24  C   UNK A   0       4.465   5.403  -6.598  0.00  0.00    +0.028 C 
BRANCH  24  25
ATOM     25  C   UNK A   0       4.437   5.780  -5.174  0.00  0.00    -0.022 A 
ATOM     26  C   UNK A   0       4.715   7.093  -4.827  0.00  0.00    -0.004 A 
ATOM     27  C   UNK A   0       4.552   7.573  -3.552  0.00  0.00    -0.000 A 
ATOM     28  C   UNK A   0       4.317   6.631  -2.558  0.00  0.00    -0.000 A 
ATOM     29  C   UNK A   0       4.378   5.277  -2.865  0.00  0.00    -0.000 A 
ATOM     30  C   UNK A   0       4.509   4.857  -4.158  0.00  0.00    -0.004 A 
ENDBRANCH  24  25
ENDBRANCH  23  24
ENDBRANCH  17  23
ENDBRANCH   1  17
TORSDOF 10
ENDMDL
MODEL 2
REMARK VINA RESULT:      -7.9      2.238      7.141
REMARK  Name = 
REMARK  10 active torsions:
REMARK  status: ('A' for Active; 'I' for Inactive)
REMARK    1  A    between atoms: C_2  and  O_3
REMARK    2  A    between atoms: O_3  and  C_4
REMARK    3  A    between atoms: C_4  and  C_6
REMARK    4  A    between atoms: C_6  and  C_7
REMARK    5  A    between atoms: C_6  and  N_15
REMARK    6  A    between atoms: C_7  and  C_8
REMARK    7  A    between atoms: C_8  and  C_9
REMARK    8  A    between atoms: N_15  and  CA_16
REMARK    9  A    between atoms: CA_16  and  C_18
REMARK   10  A    between atoms: C_21  and  C_22
REMARK                            x       y       z     vdW  Elec       q    Type
REMARK                         _______ _______ _______ _____ _____    ______ ____
ROOT
ATOM      1  N   ALA A   1       1.864   4.683  -8.201  0.00  0.00    -0.201 NA
ENDROOT
BRANCH   1   2
ATOM      2  CA  ALA A   1       2.802   5.512  -7.199  0.00  0.00    +0.149 C 
ATOM      3  CB  ALA A   1       1.715   6.776  -7.131  0.00  0.00    +0.029 C 
BRANCH   2   4
ATOM      4  C   ALA A   1       2.203   4.806  -5.853  0.00  0.00    +0.242 C 
ATOM      5  N   UNK A   2       2.668   5.623  -4.776  0.00  0.00    -0.272 N 
ATOM      6  C   UNK A   2       4.215   5.912  -4.704  0.00  0.00    +0.076 C 
ATOM      7  C   UNK A   2       4.332   5.783  -2.995  0.00  0.00    +0.020 C 
ATOM      8  C   UNK A   2       5.307   7.075  -2.840  0.00  0.00    +0.002 C 
ATOM      9  C   UNK A   2       5.415   7.658  -4.178  0.00  0.00    +0.002 C 
ATOM     10  C   UNK A   2       2.946   6.625  -2.776  0.00  0.00    +0.033 C 
ATOM     11  C   UNK A   2       3.953   7.543  -4.603  0.00  0.00    +0.020 C 
ATOM     12  C   UNK A   2       2.378   5.135  -3.299  0.00  0.00    +0.179 C 
ATOM     13  O   ALA A   1       1.168   4.200  -5.937  0.00  0.00    -0.273 OA
BRANCH  12  14
ATOM     14  C   UNK A   2       0.813   5.614  -3.348  0.00  0.00    +0.382 C 
ATOM     15  O   UNK A   2      -0.095   4.849  -2.719  0.00  0.00    -0.244 OA
ATOM     16  O   UNK A   2       0.716   6.786  -3.757  0.00  0.00    -0.244 OA
ENDBRANCH  12  14
ENDBRANCH   2   4
ENDBRANCH   1   2
BRANCH   1  17
ATOM     17  C   UNK A   0       1.891   5.932  -9.215  0.00  0.00    +0.172 C 
BRANCH  17  18
ATOM     18  C   UNK A   0       0.750   5.347 -10.223  0.00  0.00    +0.333 C 
ATOM     19  O   UNK A   0       0.935   4.106 -10.333  0.00  0.00    -0.249 OA
BRANCH  18  20
ATOM     20  O   UNK A   0      -0.345   6.038 -10.522  0.00  0.00    -0.448 OA
BRANCH  20  22
ATOM     21  C   UNK A   0       0.298   6.970 -12.487  0.00  0.00    +0.051 C 
ATOM     22  C   UNK A   0      -0.130   7.248 -11.250  0.00  0.00    +0.209 C 
ENDBRANCH  20  22
ENDBRANCH  18  20
ENDBRANCH  17  18
BRANCH  17  23
ATOM     23  C   UNK A   0       3.115   5.353 -10.185  0.00  0.00    +0.033 C 
BRANCH  23  24
ATOM     24  C   UNK A   0       3.617   6.455 -11.024  0.00  0.00    +0.028 C 
BRANCH  24  25
ATOM     25  C   UNK A   0       5.054   6.587 -10.725  0.00  0.00    -0.022 A 
ATOM     26  C   UNK A   0       5.601   5.805  -9.719  0.00  0.00    -0.004 A 
ATOM     27  C   UNK A   0       6.950   5.737  -9.483  0.00  0.00    -0.000 A 
ATOM     28  C   UNK A   0       7.745   6.667 -10.143  0.00  0.00    -0.000 A 
ATOM     29  C   UNK A   0       7.146   7.674 -10.893  0.00  0.00    -0.000 A 
ATOM     30  C   UNK A   0       5.800   7.671 -11.122  0.00  0.00    -0.004 A 
ENDBRANCH  24  25
ENDBRANCH  23  24
ENDBRANCH  17  23
ENDBRANCH   1  17
TORSDOF 10
ENDMDL
MODEL 3
REMARK VINA RESULT:      -7.6      3.118      9.150
REMARK  Name = 
REMARK  10 active torsions:
REMARK  status: ('A' for Active; 'I' for Inactive)
REMARK    1  A    between atoms: C_2  and  O_3
REMARK    2  A    between atoms: O_3  and  C_4
REMARK    3  A    between atoms: C_4  and  C_6
REMARK    4  A    between atoms: C_6  and  C_7
REMARK    5  A    between atoms: C_6  and  N_15
REMARK    6  A    between atoms: C_7  and  C_8
REMARK    7  A    between atoms: C_8  and  C_9
REMARK    8  A    between atoms: N_15  and  CA_16
REMARK    9  A    between atoms: CA_16  and  C_18
REMARK   10  A    between atoms: C_21  and  C_22
REMARK                            x       y       z     vdW  Elec       q    Type
REMARK                         _______ _______ _______ _____ _____    ______ ____
ROOT
ATOM      1  N   ALA A   1       1.805   6.926  -6.146  0.00  0.00    -0.201 NA
ENDROOT
BRANCH   1   2
ATOM      2  CA  ALA A   1       0.740   5.980  -5.411  0.00  0.00    +0.149 C 
ATOM      3  CB  ALA A   1       1.779   4.675  -5.452  0.00  0.00    +0.029 C 
BRANCH   2   4
ATOM      4  C   ALA A   1       1.202   6.415  -3.905  0.00  0.00    +0.242 C 
ATOM      5  N   UNK A   2       0.071   6.130  -3.080  0.00  0.00    -0.272 N 
ATOM      6  C   UNK A   2      -1.314   6.739  -3.517  0.00  0.00    +0.076 C 
ATOM      7  C   UNK A   2      -1.836   7.132  -1.928  0.00  0.00    +0.020 C 
ATOM      8  C   UNK A   2      -3.358   6.610  -2.164  0.00  0.00    +0.002 C 
ATOM      9  C   UNK A   2      -3.373   6.011  -3.499  0.00  0.00    +0.002 C 
ATOM     10  C   UNK A   2      -1.289   5.709  -1.332  0.00  0.00    +0.033 C 
ATOM     11  C   UNK A   2      -2.047   5.257  -3.434  0.00  0.00    +0.020 C 
ATOM     12  C   UNK A   2       0.134   6.569  -1.561  0.00  0.00    +0.179 C 
ATOM     13  O   ALA A   1       2.369   6.344  -3.623  0.00  0.00    -0.273 OA
BRANCH  12  14
ATOM     14  C   UNK A   2       1.099   5.315  -1.141  0.00  0.00    +0.382 C 
ATOM     15  O   UNK A   2       2.180   5.583  -0.389  0.00  0.00    -0.244 OA
ATOM     16  O   UNK A   2       0.544   4.225  -1.372  0.00  0.00    -0.244 OA
ENDBRANCH  12  14
ENDBRANCH   2   4
ENDBRANCH   1   2
BRANCH   1  17
ATOM     17  C   UNK A   0       1.878   5.861  -7.350  0.00  0.00    +0.172 C 
BRANCH  17  18
ATOM     18  C   UNK A   0       2.786   6.791  -8.335  0.00  0.00    +0.333 C 
ATOM     19  O   UNK A   0       2.360   7.974  -8.246  0.00  0.00    -0.249 OA
BRANCH  18  20
ATOM     20  O   UNK A   0       3.958   6.380  -8.806  0.00  0.00    -0.448 OA
BRANCH  20  22
ATOM     21  C   UNK A   0       3.869   6.292 -11.070  0.00  0.00    +0.051 C 
ATOM     22  C   UNK A   0       3.897   5.544  -9.962  0.00  0.00    +0.209 C 
ENDBRANCH  20  22
ENDBRANCH  18  20
ENDBRANCH  17  18
BRANCH  17  23
ATOM     23  C   UNK A   0       0.474   6.345  -8.106  0.00  0.00    +0.033 C 
BRANCH  23  24
ATOM     24  C   UNK A   0      -0.066   5.210  -8.874  0.00  0.00    +0.028 C 
BRANCH  24  25
ATOM     25  C   UNK A   0       0.157   5.522 -10.296  0.00  0.00    -0.022 A 
ATOM     26  C   UNK A   0      -0.235   6.762 -10.776  0.00  0.00    -0.004 A 
ATOM     27  C   UNK A   0       0.081   7.204 -12.036  0.00  0.00    -0.000 A 
ATOM     28  C   UNK A   0       0.615   6.264 -12.909  0.00  0.00    -0.000 A 
ATOM     29  C   UNK A   0       0.689   4.930 -12.522  0.00  0.00    -0.000 A 
ATOM     30  C   UNK A   0       0.394   4.554 -11.243  0.00  0.00    -0.004 A 
ENDBRANCH  24  25
ENDBRANCH  23  24
ENDBRANCH  17  23
ENDBRANCH   1  17
TORSDOF 10
ENDMDL
MODEL 4
REMARK VINA RESULT:      -7.4      2.760      5.705
REMARK  Name = 
REMARK  10 active torsions:
REMARK  status: ('A' for Active; 'I' for Inactive)
REMARK    1  A    between atoms: C_2  and  O_3
REMARK    2  A    between atoms: O_3  and  C_4
REMARK    3  A    between atoms: C_4  and  C_6
REMARK    4  A    between atoms: C_6  and  C_7
REMARK    5  A    between atoms: C_6  and  N_15
REMARK    6  A    between atoms: C_7  and  C_8
REMARK    7  A    between atoms: C_8  and  C_9
REMARK    8  A    between atoms: N_15  and  CA_16
REMARK    9  A    between atoms: CA_16  and  C_18
REMARK   10  A    between atoms: C_21  and  C_22
REMARK                            x       y       z     vdW  Elec       q    Type
REMARK                         _______ _______ _______ _____ _____    ______ ____
ROOT
ATOM      1  N   ALA A   1       3.110   5.141  -4.578  0.00  0.00    -0.201 NA
ENDROOT
BRANCH   1   2
ATOM      2  CA  ALA A   1       2.817   6.164  -5.777  0.00  0.00    +0.149 C 
ATOM      3  CB  ALA A   1       4.002   7.215  -5.251  0.00  0.00    +0.029 C 
BRANCH   2   4
ATOM      4  C   ALA A   1       3.821   5.417  -6.828  0.00  0.00    +0.242 C 
ATOM      5  N   UNK A   2       3.168   5.524  -8.095  0.00  0.00    -0.272 N 
ATOM      6  C   UNK A   2       1.676   5.026  -8.182  0.00  0.00    +0.076 C 
ATOM      7  C   UNK A   2       1.828   4.307  -9.735  0.00  0.00    +0.020 C 
ATOM      8  C   UNK A   2       0.402   4.871 -10.274  0.00  0.00    +0.002 C 
ATOM      9  C   UNK A   2      -0.111   5.740  -9.214  0.00  0.00    +0.002 C 
ATOM     10  C   UNK A   2       2.703   5.569 -10.300  0.00  0.00    +0.033 C 
ATOM     11  C   UNK A   2       1.186   6.459  -8.851  0.00  0.00    +0.020 C 
ATOM     12  C   UNK A   2       3.815   4.772  -9.327  0.00  0.00    +0.179 C 
ATOM     13  O   ALA A   1       5.001   5.423  -6.594  0.00  0.00    -0.273 OA
BRANCH  12  14
ATOM     14  C   UNK A   2       4.980   5.905  -9.527  0.00  0.00    +0.382 C 
ATOM     15  O   UNK A   2       6.260   5.497  -9.499  0.00  0.00    -0.244 OA
ATOM     16  O   UNK A   2       4.498   6.976  -9.938  0.00  0.00    -0.244 OA
ENDBRANCH  12  14
ENDBRANCH   2   4
ENDBRANCH   1   2
BRANCH   1  17
ATOM     17  C   UNK A   0       2.454   6.195  -3.555  0.00  0.00    +0.172 C 
BRANCH  17  18
ATOM     18  C   UNK A   0       3.131   5.562  -2.213  0.00  0.00    +0.333 C 
ATOM     19  O   UNK A   0       3.960   4.687  -2.578  0.00  0.00    -0.249 OA
BRANCH  18  20
ATOM     20  O   UNK A   0       3.050   6.167  -1.033  0.00  0.00    -0.448 OA
BRANCH  20  22
ATOM     21  C   UNK A   0       4.861   6.824   0.161  0.00  0.00    +0.051 C 
ATOM     22  C   UNK A   0       4.011   7.197  -0.801  0.00  0.00    +0.209 C 
ENDBRANCH  20  22
ENDBRANCH  18  20
ENDBRANCH  17  18
BRANCH  17  23
ATOM     23  C   UNK A   0       1.041   5.348  -3.302  0.00  0.00    +0.033 C 
BRANCH  23  24
ATOM     24  C   UNK A   0      -0.022   6.298  -2.933  0.00  0.00    +0.028 C 
BRANCH  24  25
ATOM     25  C   UNK A   0      -0.952   6.351  -4.075  0.00  0.00    -0.022 A 
ATOM     26  C   UNK A   0      -0.739   5.499  -5.147  0.00  0.00    -0.004 A 
ATOM     27  C   UNK A   0      -1.639   5.359  -6.173  0.00  0.00    -0.000 A 
ATOM     28  C   UNK A   0      -2.677   6.281  -6.219  0.00  0.00    -0.000 A 
ATOM     29  C   UNK A   0      -2.690   7.347  -5.328  0.00  0.00    -0.000 A 
ATOM     30  C   UNK A   0      -1.788   7.417  -4.305  0.00  0.00    -0.004 A 
ENDBRANCH  24  25
ENDBRANCH  23  24
ENDBRANCH  17  23
ENDBRANCH   1  17
TORSDOF 10
ENDMDL
MODEL 5
REMARK VINA RESULT:      -7.3      2.368      7.845
REMARK  Name = 
REMARK  10 active torsions:
REMARK  status: ('A' for Active; 'I' for Inactive)
REMARK    1  A    between atoms: C_2  and  O_3
REMARK    2  A    between atoms: O_3  and  C_4
REMARK    3  A    between atoms: C_4  and  C_6
REMARK    4  A    between atoms: C_6  and  C_7
REMARK    5  A    between atoms: C_6  and  N_15
REMARK    6  A    between atoms: C_7  and  C_8
REMARK    7  A    between atoms: C_8  and  C_9
REMARK    8  A    between atoms: N_15  and  CA_16
REMARK    9  A    between atoms: CA_16  and  C_18
REMARK   10  A    between atoms: C_21  and  C_22
REMARK                            x       y       z     vdW  Elec       q    Type
REMARK                         _______ _______ _______ _____ _____    ______ ____
ROOT
ATOM      1  N   ALA A   1       4.572   6.552  -9.157  0.00  0.00    -0.201 NA
ENDROOT
BRANCH   1   2
ATOM      2  CA  ALA A   1       3.140   6.039  -8.649  0.00  0.00    +0.149 C 
ATOM      3  CB  ALA A   1       3.690   4.472  -8.489  0.00  0.00    +0.029 C 
BRANCH   2   4
ATOM      4  C   ALA A   1       3.428   6.395  -7.080  0.00  0.00    +0.242 C 
ATOM      5  N   UNK A   2       2.268   5.936  -6.383  0.00  0.00    -0.272 N 
ATOM      6  C   UNK A   2       0.868   6.441  -6.900  0.00  0.00    +0.076 C 
ATOM      7  C   UNK A   2       0.178   6.652  -5.341  0.00  0.00    +0.020 C 
ATOM      8  C   UNK A   2      -1.256   6.006  -5.751  0.00  0.00    +0.002 C 
ATOM      9  C   UNK A   2      -1.098   5.517  -7.122  0.00  0.00    +0.002 C 
ATOM     10  C   UNK A   2       0.818   5.245  -4.801  0.00  0.00    +0.033 C 
ATOM     11  C   UNK A   2       0.289   4.893  -6.990  0.00  0.00    +0.020 C 
ATOM     12  C   UNK A   2       2.158   6.256  -4.838  0.00  0.00    +0.179 C 
ATOM     13  O   ALA A   1       4.568   6.415  -6.698  0.00  0.00    -0.273 OA
BRANCH  12  14
ATOM     14  C   UNK A   2       3.210   5.071  -4.422  0.00  0.00    +0.382 C 
ATOM     15  O   UNK A   2       3.980   5.271  -3.340  0.00  0.00    -0.244 OA
ATOM     16  O   UNK A   2       2.964   4.017  -5.037  0.00  0.00    -0.244 OA
ENDBRANCH  12  14
ENDBRANCH   2   4
ENDBRANCH   1   2
BRANCH   1  17
ATOM     17  C   UNK A   0       4.513   5.460 -10.336  0.00  0.00    +0.172 C 
BRANCH  17  18
ATOM     18  C   UNK A   0       6.065   5.644 -10.806  0.00  0.00    +0.333 C 
ATOM     19  O   UNK A   0       6.742   5.937  -9.785  0.00  0.00    -0.249 OA
BRANCH  18  20
ATOM     20  O   UNK A   0       6.505   5.188 -11.973  0.00  0.00    -0.448 OA
BRANCH  20  22
ATOM     21  C   UNK A   0       8.488   5.983 -12.730  0.00  0.00    +0.051 C 
ATOM     22  C   UNK A   0       7.914   4.978 -12.060  0.00  0.00    +0.209 C 
ENDBRANCH  20  22
ENDBRANCH  18  20
ENDBRANCH  17  18
BRANCH  17  23
ATOM     23  C   UNK A   0       3.978   6.501 -11.522  0.00  0.00    +0.033 C 
BRANCH  23  24
ATOM     24  C   UNK A   0       3.075   5.768 -12.425  0.00  0.00    +0.028 C 
BRANCH  24  25
ATOM     25  C   UNK A   0       1.704   6.171 -12.064  0.00  0.00    -0.022 A 
ATOM     26  C   UNK A   0       0.925   5.297 -11.322  0.00  0.00    -0.004 A 
ATOM     27  C   UNK A   0      -0.293   5.650 -10.800  0.00  0.00    -0.000 A 
ATOM     28  C   UNK A   0      -0.833   6.853 -11.239  0.00  0.00    -0.000 A 
ATOM     29  C   UNK A   0      -0.196   7.565 -12.249  0.00  0.00    -0.000 A 
ATOM     30  C   UNK A   0       1.033   7.184 -12.706  0.00  0.00    -0.004 A 
ENDBRANCH  24  25
ENDBRANCH  23  24
ENDBRANCH  17  23
ENDBRANCH   1  17
TORSDOF 10
ENDMDL
MODEL 6
REMARK VINA RESULT:      -7.2      3.008      7.974
REMARK  Name = 
REMARK  10 active torsions:
REMARK  status: ('A' for Active; 'I' for Inactive)
REMARK    1  A    between atoms: C_2  and  O_3
REMARK    2  A    between atoms: O_3  and  C_4
REMARK    3  A    between atoms: C_4  and  C_6
REMARK    4  A    between atoms: C_6  and  C_7
REMARK    5  A    between atoms: C_6  and  N_15
REMARK    6  A    between atoms: C_7  and  C_8
REMARK    7  A    between atoms: C_8  and  C_9
REMARK    8  A    between atoms: N_15  and  CA_16
REMARK    9  A    between atoms: CA_16  and  C_18
REMARK   10  A    between atoms: C_21  and  C_22
REMARK                            x       y       z     vdW  Elec       q    Type
REMARK                         _______ _______ _______ _____ _____    ______ ____
ROOT
ATOM      1  N   ALA A   1       1.333   4.706  -6.213  0.00  0.00    -0.201 NA
ENDROOT
BRANCH   1   2
ATOM      2  CA  ALA A   1       0.998   5.157  -4.711  0.00  0.00    +0.149 C 
ATOM      3  CB  ALA A   1       1.423   6.740  -5.026  0.00  0.00    +0.029 C 
BRANCH   2   4
ATOM      4  C   ALA A   1      -0.586   5.429  -5.010  0.00  0.00    +0.242 C 
ATOM      5  N   UNK A   2      -1.071   6.085  -3.837  0.00  0.00    -0.272 N 
ATOM      6  C   UNK A   2      -0.800   5.383  -2.453  0.00  0.00    +0.076 C 
ATOM      7  C   UNK A   2      -2.332   5.758  -1.771  0.00  0.00    +0.020 C 
ATOM      8  C   UNK A   2      -1.725   6.162  -0.317  0.00  0.00    +0.002 C 
ATOM      9  C   UNK A   2      -0.269   6.100  -0.460  0.00  0.00    +0.002 C 
ATOM     10  C   UNK A   2      -2.292   7.281  -2.368  0.00  0.00    +0.033 C 
ATOM     11  C   UNK A   2      -0.139   6.766  -1.828  0.00  0.00    +0.020 C 
ATOM     12  C   UNK A   2      -2.624   6.370  -3.738  0.00  0.00    +0.179 C 
ATOM     13  O   ALA A   1      -0.933   5.586  -6.151  0.00  0.00    -0.273 OA
BRANCH  12  14
ATOM     14  C   UNK A   2      -2.549   7.652  -4.755  0.00  0.00    +0.382 C 
ATOM     15  O   UNK A   2      -3.388   7.667  -5.803  0.00  0.00    -0.244 OA
ATOM     16  O   UNK A   2      -1.881   8.578  -4.259  0.00  0.00    -0.244 OA
ENDBRANCH  12  14
ENDBRANCH   2   4
ENDBRANCH   1   2
BRANCH   1  17
ATOM     17  C   UNK A   0       2.687   5.571  -6.140  0.00  0.00    +0.172 C 
BRANCH  17  18
ATOM     18  C   UNK A   0       3.303   5.026  -7.549  0.00  0.00    +0.333 C 
ATOM     19  O   UNK A   0       2.715   3.949  -7.833  0.00  0.00    -0.249 OA
BRANCH  18  20
ATOM     20  O   UNK A   0       4.004   5.811  -8.360  0.00  0.00    -0.448 OA
BRANCH  20  22
ATOM     21  C   UNK A   0       6.165   5.478  -8.958  0.00  0.00    +0.051 C 
ATOM     22  C   UNK A   0       4.903   5.139  -9.242  0.00  0.00    +0.209 C 
ENDBRANCH  20  22
ENDBRANCH  18  20
ENDBRANCH  17  18
BRANCH  17  23
ATOM     23  C   UNK A   0       3.568   4.457  -5.268  0.00  0.00    +0.033 C 
BRANCH  23  24
ATOM     24  C   UNK A   0       4.844   5.071  -4.866  0.00  0.00    +0.028 C 
BRANCH  24  25
ATOM     25  C   UNK A   0       4.631   5.639  -3.523  0.00  0.00    -0.022 A 
ATOM     26  C   UNK A   0       3.938   4.890  -2.585  0.00  0.00    -0.004 A 
ATOM     27  C   UNK A   0       3.835   5.262  -1.269  0.00  0.00    -0.000 A 
ATOM     28  C   UNK A   0       4.258   6.547  -0.950  0.00  0.00    -0.000 A 
ATOM     29  C   UNK A   0       4.639   7.417  -1.966  0.00  0.00    -0.000 A 
ATOM     30  C   UNK A   0       4.755   6.981  -3.255  0.00  0.00    -0.004 A 
ENDBRANCH  24  25
ENDBRANCH  23  24
ENDBRANCH  17  23
ENDBRANCH   1  17
TORSDOF 10
ENDMDL
MODEL 7
REMARK VINA RESULT:      -7.2      2.460      4.923
REMARK  Name = 
REMARK  10 active torsions:
REMARK  status: ('A' for Active; 'I' for Inactive)
REMARK    1  A    between atoms: C_2  and  O_3
REMARK    2  A    between atoms: O_3  and  C_4
REMARK    3  A    between atoms: C_4  and  C_6
REMARK    4  A    between atoms: C_6  and  C_7
REMARK    5  A    between atoms: C_6  and  N_15
REMARK    6  A    between atoms: C_7  and  C_8
REMARK    7  A    between atoms: C_8  and  C_9
REMARK    8  A    between atoms: N_15  and  CA_16
REMARK    9  A    between atoms: CA_16  and  C_18
REMARK   10  A    between atoms: C_21  and  C_22
REMARK                            x       y       z     vdW  Elec       q    Type
REMARK                         _______ _______ _______ _____ _____    ______ ____
ROOT
ATOM      1  N   ALA A   1       3.287   4.806  -6.358  0.00  0.00    -0.201 NA
ENDROOT
BRANCH   1   2
ATOM      2  CA  ALA A   1       2.365   5.395  -7.530  0.00  0.00    +0.149 C 
ATOM      3  CB  ALA A   1       3.035   6.915  -7.377  0.00  0.00    +0.029 C 
BRANCH   2   4
ATOM      4  C   ALA A   1       3.391   4.965  -8.727  0.00  0.00    +0.242 C 
ATOM      5  N   UNK A   2       2.856   5.578  -9.902  0.00  0.00    -0.272 N 
ATOM      6  C   UNK A   2       1.342   5.300 -10.237  0.00  0.00    +0.076 C 
ATOM      7  C   UNK A   2       1.567   5.161 -11.934  0.00  0.00    +0.020 C 
ATOM      8  C   UNK A   2       0.241   6.025 -12.307  0.00  0.00    +0.002 C 
ATOM      9  C   UNK A   2      -0.289   6.514 -11.033  0.00  0.00    +0.002 C 
ATOM     10  C   UNK A   2       2.584   6.443 -11.965  0.00  0.00    +0.033 C 
ATOM     11  C   UNK A   2       1.026   6.920 -10.372  0.00  0.00    +0.020 C 
ATOM     12  C   UNK A   2       3.543   5.243 -11.288  0.00  0.00    +0.179 C 
ATOM     13  O   ALA A   1       4.543   4.765  -8.447  0.00  0.00    -0.273 OA
BRANCH  12  14
ATOM     14  C   UNK A   2       4.808   6.246 -11.010  0.00  0.00    +0.382 C 
ATOM     15  O   UNK A   2       4.545   7.450 -10.475  0.00  0.00    -0.244 OA
ATOM     16  O   UNK A   2       5.890   5.638 -11.102  0.00  0.00    -0.244 OA
ENDBRANCH  12  14
ENDBRANCH   2   4
ENDBRANCH   1   2
BRANCH   1  17
ATOM     17  C   UNK A   0       2.577   5.818  -5.329  0.00  0.00    +0.172 C 
BRANCH  17  18
ATOM     18  C   UNK A   0       3.497   5.414  -4.043  0.00  0.00    +0.333 C 
ATOM     19  O   UNK A   0       4.017   4.291  -4.282  0.00  0.00    -0.249 OA
BRANCH  18  20
ATOM     20  O   UNK A   0       3.871   6.310  -3.137  0.00  0.00    -0.448 OA
BRANCH  20  22
ATOM     21  C   UNK A   0       5.490   7.557  -4.117  0.00  0.00    +0.051 C 
ATOM     22  C   UNK A   0       4.237   7.590  -3.652  0.00  0.00    +0.209 C 
ENDBRANCH  20  22
ENDBRANCH  18  20
ENDBRANCH  17  18
BRANCH  17  23
ATOM     23  C   UNK A   0       1.367   4.775  -4.854  0.00  0.00    +0.033 C 
BRANCH  23  24
ATOM     24  C   UNK A   0       0.623   5.387  -3.741  0.00  0.00    +0.028 C 
BRANCH  24  25
ATOM     25  C   UNK A   0      -0.564   6.029  -4.334  0.00  0.00    -0.022 A 
ATOM     26  C   UNK A   0      -1.273   6.947  -3.576  0.00  0.00    -0.004 A 
ATOM     27  C   UNK A   0      -2.285   7.714  -4.097  0.00  0.00    -0.000 A 
ATOM     28  C   UNK A   0      -2.735   7.371  -5.366  0.00  0.00    -0.000 A 
ATOM     29  C   UNK A   0      -2.244   6.227  -5.984  0.00  0.00    -0.000 A 
ATOM     30  C   UNK A   0      -1.212   5.522  -5.435  0.00  0.00    -0.004 A 
ENDBRANCH  24  25
ENDBRANCH  23  24
ENDBRANCH  17  23
ENDBRANCH   1  17
TORSDOF 10
ENDMDL
MODEL 8
REMARK VINA RESULT:      -7.2      2.351      3.900
REMARK  Name = 
REMARK  10 active torsions:
REMARK  status: ('A' for Active; 'I' for Inactive)
REMARK    1  A    between atoms: C_2  and  O_3
REMARK    2  A    between atoms: O_3  and  C_4
REMARK    3  A    between atoms: C_4  and  C_6
REMARK    4  A    between atoms: C_6  and  C_7
REMARK    5  A    between atoms: C_6  and  N_15
REMARK    6  A    between atoms: C_7  and  C_8
REMARK    7  A    between atoms: C_8  and  C_9
REMARK    8  A    between atoms: N_15  and  CA_16
REMARK    9  A    between atoms: CA_16  and  C_18
REMARK   10  A    between atoms: C_21  and  C_22
REMARK                            x       y       z     vdW  Elec       q    Type
REMARK                         _______ _______ _______ _____ _____    ______ ____
ROOT
ATOM      1  N   ALA A   1       0.065   6.450  -5.480  0.00  0.00    -0.201 NA
ENDROOT
BRANCH   1   2
ATOM      2  CA  ALA A   1       1.417   5.926  -6.164  0.00  0.00    +0.149 C 
ATOM      3  CB  ALA A   1       0.848   4.358  -6.228  0.00  0.00    +0.029 C 
BRANCH   2   4
ATOM      4  C   ALA A   1       0.926   6.261  -7.686  0.00  0.00    +0.242 C 
ATOM      5  N   UNK A   2       2.001   5.824  -8.520  0.00  0.00    -0.272 N 
ATOM      6  C   UNK A   2       3.441   6.367  -8.185  0.00  0.00    +0.076 C 
ATOM      7  C   UNK A   2       3.926   6.581  -9.820  0.00  0.00    +0.020 C 
ATOM      8  C   UNK A   2       5.416   5.973  -9.589  0.00  0.00    +0.002 C 
ATOM      9  C   UNK A   2       5.443   5.493  -8.207  0.00  0.00    +0.002 C 
ATOM     10  C   UNK A   2       3.259   5.155 -10.267  0.00  0.00    +0.033 C 
ATOM     11  C   UNK A   2       4.066   4.834  -8.160  0.00  0.00    +0.020 C 
ATOM     12  C   UNK A   2       1.909   6.133 -10.069  0.00  0.00    +0.179 C 
ATOM     13  O   ALA A   1      -0.253   6.250  -7.922  0.00  0.00    -0.273 OA
BRANCH  12  14
ATOM     14  C   UNK A   2       0.843   4.920 -10.343  0.00  0.00    +0.382 C 
ATOM     15  O   UNK A   2      -0.181   5.166 -11.177  0.00  0.00    -0.244 OA
ATOM     16  O   UNK A   2       1.284   3.834  -9.926  0.00  0.00    -0.244 OA
ENDBRANCH  12  14
ENDBRANCH   2   4
ENDBRANCH   1   2
BRANCH   1  17
ATOM     17  C   UNK A   0       0.243   5.333  -4.336  0.00  0.00    +0.172 C 
BRANCH  17  18
ATOM     18  C   UNK A   0      -1.266   5.477  -3.732  0.00  0.00    +0.333 C 
ATOM     19  O   UNK A   0      -2.050   5.662  -4.701  0.00  0.00    -0.249 OA
BRANCH  18  20
ATOM     20  O   UNK A   0      -1.569   5.085  -2.500  0.00  0.00    -0.448 OA
BRANCH  20  22
ATOM     21  C   UNK A   0      -2.274   6.864  -1.283  0.00  0.00    +0.051 C 
ATOM     22  C   UNK A   0      -2.682   5.750  -1.900  0.00  0.00    +0.209 C 
ENDBRANCH  20  22
ENDBRANCH  18  20
ENDBRANCH  17  18
BRANCH  17  23
ATOM     23  C   UNK A   0       0.859   6.357  -3.175  0.00  0.00    +0.033 C 
BRANCH  23  24
ATOM     24  C   UNK A   0       1.934   5.659  -2.450  0.00  0.00    +0.028 C 
BRANCH  24  25
ATOM     25  C   UNK A   0       3.200   6.069  -3.083  0.00  0.00    -0.022 A 
ATOM     26  C   UNK A   0       3.444   7.421  -3.271  0.00  0.00    -0.004 A 
ATOM     27  C   UNK A   0       4.656   7.903  -3.696  0.00  0.00    -0.000 A 
ATOM     28  C   UNK A   0       5.571   6.965  -4.158  0.00  0.00    -0.000 A 
ATOM     29  C   UNK A   0       5.189   5.635  -4.283  0.00  0.00    -0.000 A 
ATOM     30  C   UNK A   0       3.982   5.205  -3.812  0.00  0.00    -0.004 A 
ENDBRANCH  24  25
ENDBRANCH  23  24
ENDBRANCH  17  23
ENDBRANCH   1  17
TORSDOF 10
ENDMDL
MODEL 9
REMARK VINA RESULT:      -7.1      3.790      8.935
REMARK  Name = 
REMARK  10 active torsions:
REMARK  status: ('A' for Active; 'I' for Inactive)
REMARK    1  A    between atoms: C_2  and  O_3
REMARK    2  A    between atoms: O_3  and  C_4
REMARK    3  A    between atoms: C_4  and  C_6
REMARK    4  A    between atoms: C_6  and  C_7
REMARK    5  A    between atoms: C_6  and  N_15
REMARK    6  A    between atoms: C_7  and  C_8
REMARK    7  A    between atoms: C_8  and  C_9
REMARK    8  A    between atoms: N_15  and  CA_16
REMARK    9  A    between atoms: CA_16  and  C_18
REMARK   10  A    between atoms: C_21  and  C_22
REMARK                            x       y       z     vdW  Elec       q    Type
REMARK                         _______ _______ _______ _____ _____    ______ ____
ROOT
ATOM      1  N   ALA A   1       2.120   6.513  -4.302  0.00  0.00    -0.201 NA
ENDROOT
BRANCH   1   2
ATOM      2  CA  ALA A   1       1.399   5.271  -3.590  0.00  0.00    +0.149 C 
ATOM      3  CB  ALA A   1       2.694   5.028  -2.566  0.00  0.00    +0.029 C 
BRANCH   2   4
ATOM      4  C   ALA A   1       0.599   6.194  -2.505  0.00  0.00    +0.242 C 
ATOM      5  N   UNK A   2      -0.732   6.288  -3.018  0.00  0.00    -0.272 N 
ATOM      6  C   UNK A   2      -0.900   6.773  -4.507  0.00  0.00    +0.076 C 
ATOM      7  C   UNK A   2      -2.289   7.741  -4.214  0.00  0.00    +0.020 C 
ATOM      8  C   UNK A   2      -3.065   7.253  -5.557  0.00  0.00    +0.002 C 
ATOM      9  C   UNK A   2      -2.223   6.214  -6.152  0.00  0.00    +0.002 C 
ATOM     10  C   UNK A   2      -2.952   6.601  -3.245  0.00  0.00    +0.033 C 
ATOM     11  C   UNK A   2      -1.841   5.463  -4.878  0.00  0.00    +0.020 C 
ATOM     12  C   UNK A   2      -1.748   7.242  -2.268  0.00  0.00    +0.179 C 
ATOM     13  O   ALA A   1       0.956   6.166  -1.357  0.00  0.00    -0.273 OA
BRANCH  12  14
ATOM     14  C   UNK A   2      -2.000   6.173  -1.053  0.00  0.00    +0.382 C 
ATOM     15  O   UNK A   2      -1.924   6.631   0.207  0.00  0.00    -0.244 OA
ATOM     16  O   UNK A   2      -2.489   5.112  -1.484  0.00  0.00    -0.244 OA
ENDBRANCH  12  14
ENDBRANCH   2   4
ENDBRANCH   1   2
BRANCH   1  17
ATOM     17  C   UNK A   0       2.733   5.498  -5.390  0.00  0.00    +0.172 C 
BRANCH  17  18
ATOM     18  C   UNK A   0       4.115   6.331  -5.628  0.00  0.00    +0.333 C 
ATOM     19  O   UNK A   0       4.628   5.922  -6.704  0.00  0.00    -0.249 OA
BRANCH  18  20
ATOM     20  O   UNK A   0       4.379   7.457  -4.975  0.00  0.00    -0.448 OA
BRANCH  20  22
ATOM     21  C   UNK A   0       5.150   7.623  -2.850  0.00  0.00    +0.051 C 
ATOM     22  C   UNK A   0       5.521   7.420  -4.119  0.00  0.00    +0.209 C 
ENDBRANCH  20  22
ENDBRANCH  18  20
ENDBRANCH  17  18
BRANCH  17  23
ATOM     23  C   UNK A   0       2.020   6.205  -6.720  0.00  0.00    +0.033 C 
BRANCH  23  24
ATOM     24  C   UNK A   0       1.104   5.233  -7.341  0.00  0.00    +0.028 C 
BRANCH  24  25
ATOM     25  C   UNK A   0       1.091   5.532  -8.783  0.00  0.00    -0.022 A 
ATOM     26  C   UNK A   0       2.217   6.102  -9.356  0.00  0.00    -0.004 A 
ATOM     27  C   UNK A   0       2.360   6.261 -10.711  0.00  0.00    -0.000 A 
ATOM     28  C   UNK A   0       1.227   6.043 -11.486  0.00  0.00    -0.000 A 
ATOM     29  C   UNK A   0       0.007   5.800 -10.866  0.00  0.00    -0.000 A 
ATOM     30  C   UNK A   0      -0.069   5.617  -9.515  0.00  0.00    -0.004 A 
ENDBRANCH  24  25
ENDBRANCH  23  24
ENDBRANCH  17  23
ENDBRANCH   1  17
TORSDOF 10
ENDMDL
