MODEL 1
REMARK VINA RESULT:      -5.9      0.000      0.000
REMARK  Name = 
REMARK  4 active torsions:
REMARK  status: ('A' for Active; 'I' for Inactive)
REMARK    1  A    between atoms: C_2  and  C_3
REMARK    2  A    between atoms: C_3  and  C_4
REMARK    3  A    between atoms: C_4  and  C_5
REMARK    4  A    between atoms: C_5  and  C_6
REMARK                            x       y       z     vdW  Elec       q    Type
REMARK                         _______ _______ _______ _____ _____    ______ ____
ROOT
ATOM      1  C   UNL     1       1.841   5.886  -7.258  0.00  0.00    +0.145 C 
ATOM      2  C   UNL     1       2.479   4.653  -7.821  0.00  0.00    +0.257 C 
ATOM      3  O   UNL     1       2.305   3.591  -7.149  0.00  0.00    -0.272 OA
ATOM      4  N   UNL     1       2.334   4.505  -9.239  0.00  0.00    -0.125 NA
ATOM      5  C   UNL     1       2.640   5.668 -10.016  0.00  0.00    +0.352 C 
ATOM      6  O   UNL     1       2.716   5.531 -11.253  0.00  0.00    -0.248 OA
ATOM      7  N   UNL     1       2.971   6.852  -9.310  0.00  0.00    -0.125 NA
ATOM      8  C   UNL     1       2.401   7.051  -8.012  0.00  0.00    +0.257 C 
ATOM      9  O   UNL     1       2.097   8.218  -7.623  0.00  0.00    -0.272 OA
ENDROOT
BRANCH   1  10
ATOM     10  C   UNL     1       0.383   5.796  -7.613  0.00  0.00    +0.044 C 
BRANCH  10  12
ATOM     11  C   UNL     1      -1.823   5.504  -6.621  0.00  0.00    -0.005 C 
ATOM     12  C   UNL     1      -0.501   5.617  -6.443  0.00  0.00    -0.025 C 
ENDBRANCH  10  12
ENDBRANCH   1  10
BRANCH   1  13
ATOM     13  C   UNL     1       2.099   6.040  -5.789  0.00  0.00    +0.018 C 
BRANCH  13  14
ATOM     14  C   UNL     1       3.609   5.986  -5.596  0.00  0.00    +0.001 C 
ATOM     15  C   UNL     1       4.090   7.289  -5.019  0.00  0.00    +0.000 C 
ATOM     16  C   UNL     1       4.030   4.873  -4.680  0.00  0.00    +0.000 C 
ENDBRANCH  13  14
ENDBRANCH   1  13
TORSDOF 4
ENDMDL
MODEL 2
REMARK VINA RESULT:      -5.8      2.201      4.732
REMARK  Name = 
REMARK  4 active torsions:
REMARK  status: ('A' for Active; 'I' for Inactive)
REMARK    1  A    between atoms: C_2  and  C_3
REMARK    2  A    between atoms: C_3  and  C_4
REMARK    3  A    between atoms: C_4  and  C_5
REMARK    4  A    between atoms: C_5  and  C_6
REMARK                            x       y       z     vdW  Elec       q    Type
REMARK                         _______ _______ _______ _____ _____    ______ ____
ROOT
ATOM      1  C   UNL     1       2.686   5.800  -8.450  0.00  0.00    +0.145 C 
ATOM      2  C   UNL     1       2.263   4.492  -7.856  0.00  0.00    +0.257 C 
ATOM      3  O   UNL     1       2.539   3.463  -8.546  0.00  0.00    -0.272 OA
ATOM      4  N   UNL     1       2.520   4.367  -6.451  0.00  0.00    -0.125 NA
ATOM      5  C   UNL     1       2.106   5.478  -5.647  0.00  0.00    +0.352 C 
ATOM      6  O   UNL     1       2.131   5.333  -4.409  0.00  0.00    -0.248 OA
ATOM      7  N   UNL     1       1.568   6.603  -6.322  0.00  0.00    -0.125 NA
ATOM      8  C   UNL     1       2.019   6.877  -7.652  0.00  0.00    +0.257 C 
ATOM      9  O   UNL     1       2.132   8.075  -8.051  0.00  0.00    -0.272 OA
ENDROOT
BRANCH   1  10
ATOM     10  C   UNL     1       4.162   5.915  -8.190  0.00  0.00    +0.044 C 
BRANCH  10  12
ATOM     11  C   UNL     1       6.322   5.694  -9.296  0.00  0.00    -0.005 C 
ATOM     12  C   UNL     1       4.989   5.767  -9.405  0.00  0.00    -0.025 C 
ENDBRANCH  10  12
ENDBRANCH   1  10
BRANCH   1  13
ATOM     13  C   UNL     1       2.314   5.915  -9.897  0.00  0.00    +0.018 C 
BRANCH  13  14
ATOM     14  C   UNL     1       0.799   5.782  -9.977  0.00  0.00    +0.001 C 
ATOM     15  C   UNL     1       0.228   6.957 -10.725  0.00  0.00    +0.000 C 
ATOM     16  C   UNL     1       0.370   4.521 -10.672  0.00  0.00    +0.000 C 
ENDBRANCH  13  14
ENDBRANCH   1  13
TORSDOF 4
ENDMDL
MODEL 3
REMARK VINA RESULT:      -5.8      2.140      4.236
REMARK  Name = 
REMARK  4 active torsions:
REMARK  status: ('A' for Active; 'I' for Inactive)
REMARK    1  A    between atoms: C_2  and  C_3
REMARK    2  A    between atoms: C_3  and  C_4
REMARK    3  A    between atoms: C_4  and  C_5
REMARK    4  A    between atoms: C_5  and  C_6
REMARK                            x       y       z     vdW  Elec       q    Type
REMARK                         _______ _______ _______ _____ _____    ______ ____
ROOT
ATOM      1  C   UNL     1       1.325   6.166  -6.687  0.00  0.00    +0.145 C 
ATOM      2  C   UNL     1       2.397   7.145  -7.056  0.00  0.00    +0.257 C 
ATOM      3  O   UNL     1       2.001   8.191  -7.654  0.00  0.00    -0.272 OA
ATOM      4  N   UNL     1       3.376   7.366  -6.031  0.00  0.00    -0.125 NA
ATOM      5  C   UNL     1       3.915   6.185  -5.427  0.00  0.00    +0.352 C 
ATOM      6  O   UNL     1       4.901   6.320  -4.677  0.00  0.00    -0.248 OA
ATOM      7  N   UNL     1       3.375   4.941  -5.840  0.00  0.00    -0.125 NA
ATOM      8  C   UNL     1       2.012   4.902  -6.274  0.00  0.00    +0.257 C 
ATOM      9  O   UNL     1       1.297   3.882  -6.036  0.00  0.00    -0.272 OA
ENDROOT
BRANCH   1  10
ATOM     10  C   UNL     1       0.660   6.723  -5.460  0.00  0.00    +0.044 C 
BRANCH  10  12
ATOM     11  C   UNL     1      -1.543   7.521  -4.793  0.00  0.00    -0.005 C 
ATOM     12  C   UNL     1      -0.815   6.650  -5.502  0.00  0.00    -0.025 C 
ENDBRANCH  10  12
ENDBRANCH   1  10
BRANCH   1  13
ATOM     13  C   UNL     1       0.382   5.903  -7.822  0.00  0.00    +0.018 C 
BRANCH  13  14
ATOM     14  C   UNL     1       1.216   5.879  -9.096  0.00  0.00    +0.001 C 
ATOM     15  C   UNL     1       1.453   4.454  -9.517  0.00  0.00    +0.000 C 
ATOM     16  C   UNL     1       0.552   6.607 -10.230  0.00  0.00    +0.000 C 
ENDBRANCH  13  14
ENDBRANCH   1  13
TORSDOF 4
ENDMDL
MODEL 4
REMARK VINA RESULT:      -5.6      2.188      4.213
REMARK  Name = 
REMARK  4 active torsions:
REMARK  status: ('A' for Active; 'I' for Inactive)
REMARK    1  A    between atoms: C_2  and  C_3
REMARK    2  A    between atoms: C_3  and  C_4
REMARK    3  A    between atoms: C_4  and  C_5
REMARK    4  A    between atoms: C_5  and  C_6
REMARK                            x       y       z     vdW  Elec       q    Type
REMARK                         _______ _______ _______ _____ _____    ______ ____
ROOT
ATOM      1  C   UNL     1       2.817   6.235  -6.341  0.00  0.00    +0.145 C 
ATOM      2  C   UNL     1       2.224   4.925  -5.921  0.00  0.00    +0.257 C 
ATOM      3  O   UNL     1       3.054   4.049  -5.532  0.00  0.00    -0.272 OA
ATOM      4  N   UNL     1       1.040   5.039  -5.120  0.00  0.00    -0.125 NA
ATOM      5  C   UNL     1       0.046   5.943  -5.614  0.00  0.00    +0.352 C 
ATOM      6  O   UNL     1      -1.071   5.928  -5.060  0.00  0.00    -0.248 OA
ATOM      7  N   UNL     1       0.362   6.681  -6.782  0.00  0.00    -0.125 NA
ATOM      8  C   UNL     1       1.734   7.003  -7.031  0.00  0.00    +0.257 C 
ATOM      9  O   UNL     1       2.039   8.101  -7.587  0.00  0.00    -0.272 OA
ENDROOT
BRANCH   1  10
ATOM     10  C   UNL     1       3.132   6.973  -5.070  0.00  0.00    +0.044 C 
BRANCH  10  12
ATOM     11  C   UNL     1       5.003   7.794  -3.742  0.00  0.00    -0.005 C 
ATOM     12  C   UNL     1       4.574   7.236  -4.881  0.00  0.00    -0.025 C 
ENDBRANCH  10  12
ENDBRANCH   1  10
BRANCH   1  13
ATOM     13  C   UNL     1       3.996   6.061  -7.249  0.00  0.00    +0.018 C 
BRANCH  13  14
ATOM     14  C   UNL     1       3.450   5.662  -8.614  0.00  0.00    +0.001 C 
ATOM     15  C   UNL     1       4.100   6.500  -9.681  0.00  0.00    +0.000 C 
ATOM     16  C   UNL     1       3.694   4.214  -8.929  0.00  0.00    +0.000 C 
ENDBRANCH  13  14
ENDBRANCH   1  13
TORSDOF 4
ENDMDL
MODEL 5
REMARK VINA RESULT:      -5.5      1.883      3.953
REMARK  Name = 
REMARK  4 active torsions:
REMARK  status: ('A' for Active; 'I' for Inactive)
REMARK    1  A    between atoms: C_2  and  C_3
REMARK    2  A    between atoms: C_3  and  C_4
REMARK    3  A    between atoms: C_4  and  C_5
REMARK    4  A    between atoms: C_5  and  C_6
REMARK                            x       y       z     vdW  Elec       q    Type
REMARK                         _______ _______ _______ _____ _____    ______ ____
ROOT
ATOM      1  C   UNL     1       2.729   5.492  -7.069  0.00  0.00    +0.145 C 
ATOM      2  C   UNL     1       1.961   6.769  -6.921  0.00  0.00    +0.257 C 
ATOM      3  O   UNL     1       2.572   7.820  -7.281  0.00  0.00    -0.272 OA
ATOM      4  N   UNL     1       0.591   6.689  -7.339  0.00  0.00    -0.125 NA
ATOM      5  C   UNL     1      -0.142   5.564  -6.843  0.00  0.00    +0.352 C 
ATOM      6  O   UNL     1      -1.375   5.558  -7.020  0.00  0.00    -0.248 OA
ATOM      7  N   UNL     1       0.572   4.616  -6.068  0.00  0.00    -0.125 NA
ATOM      8  C   UNL     1       1.968   4.437  -6.329  0.00  0.00    +0.257 C 
ATOM      9  O   UNL     1       2.495   3.290  -6.209  0.00  0.00    -0.272 OA
ENDROOT
BRANCH   1  10
ATOM     10  C   UNL     1       2.663   5.135  -8.527  0.00  0.00    +0.044 C 
BRANCH  10  12
ATOM     11  C   UNL     1       4.346   5.175 -10.288  0.00  0.00    -0.005 C 
ATOM     12  C   UNL     1       3.961   4.713  -9.092  0.00  0.00    -0.025 C 
ENDBRANCH  10  12
ENDBRANCH   1  10
BRANCH   1  13
ATOM     13  C   UNL     1       4.124   5.603  -6.533  0.00  0.00    +0.018 C 
BRANCH  13  14
ATOM     14  C   UNL     1       4.007   5.892  -5.043  0.00  0.00    +0.001 C 
ATOM     15  C   UNL     1       4.731   4.828  -4.264  0.00  0.00    +0.000 C 
ATOM     16  C   UNL     1       4.579   7.229  -4.671  0.00  0.00    +0.000 C 
ENDBRANCH  13  14
ENDBRANCH   1  13
TORSDOF 4
ENDMDL
MODEL 6
REMARK VINA RESULT:      -5.5      1.280      3.873
REMARK  Name = 
REMARK  4 active torsions:
REMARK  status: ('A' for Active; 'I' for Inactive)
REMARK    1  A    between atoms: C_2  and  C_3
REMARK    2  A    between atoms: C_3  and  C_4
REMARK    3  A    between atoms: C_4  and  C_5
REMARK    4  A    between atoms: C_5  and  C_6
REMARK                            x       y       z     vdW  Elec       q    Type
REMARK                         _______ _______ _______ _____ _____    ______ ____
ROOT
ATOM      1  C   UNL     1       2.565   6.334  -6.446  0.00  0.00    +0.145 C 
ATOM      2  C   UNL     1       2.336   6.968  -7.784  0.00  0.00    +0.257 C 
ATOM      3  O   UNL     1       2.055   8.205  -7.762  0.00  0.00    -0.272 OA
ATOM      4  N   UNL     1       3.275   6.576  -8.794  0.00  0.00    -0.125 NA
ATOM      5  C   UNL     1       3.513   5.168  -8.903  0.00  0.00    +0.352 C 
ATOM      6  O   UNL     1       4.167   4.770  -9.886  0.00  0.00    -0.248 OA
ATOM      7  N   UNL     1       2.869   4.326  -7.962  0.00  0.00    -0.125 NA
ATOM      8  C   UNL     1       2.583   4.853  -6.662  0.00  0.00    +0.257 C 
ATOM      9  O   UNL     1       2.639   4.100  -5.644  0.00  0.00    -0.272 OA
ENDROOT
BRANCH   1  10
ATOM     10  C   UNL     1       3.953   6.732  -6.031  0.00  0.00    +0.044 C 
BRANCH  10  12
ATOM     11  C   UNL     1       5.192   7.742  -4.192  0.00  0.00    -0.005 C 
ATOM     12  C   UNL     1       4.029   7.269  -4.657  0.00  0.00    -0.025 C 
ENDBRANCH  10  12
ENDBRANCH   1  10
BRANCH   1  13
ATOM     13  C   UNL     1       1.505   6.705  -5.453  0.00  0.00    +0.018 C 
BRANCH  13  14
ATOM     14  C   UNL     1       0.416   5.644  -5.549  0.00  0.00    +0.001 C 
ATOM     15  C   UNL     1      -0.130   5.357  -4.176  0.00  0.00    +0.000 C 
ATOM     16  C   UNL     1      -0.719   6.067  -6.436  0.00  0.00    +0.000 C 
ENDBRANCH  13  14
ENDBRANCH   1  13
TORSDOF 4
ENDMDL
MODEL 7
REMARK VINA RESULT:      -5.5      1.974      3.955
REMARK  Name = 
REMARK  4 active torsions:
REMARK  status: ('A' for Active; 'I' for Inactive)
REMARK    1  A    between atoms: C_2  and  C_3
REMARK    2  A    between atoms: C_3  and  C_4
REMARK    3  A    between atoms: C_4  and  C_5
REMARK    4  A    between atoms: C_5  and  C_6
REMARK                            x       y       z     vdW  Elec       q    Type
REMARK                         _______ _______ _______ _____ _____    ______ ____
ROOT
ATOM      1  C   UNL     1       2.965   6.041  -8.525  0.00  0.00    +0.145 C 
ATOM      2  C   UNL     1       1.917   7.111  -8.513  0.00  0.00    +0.257 C 
ATOM      3  O   UNL     1       2.293   8.241  -8.074  0.00  0.00    -0.272 OA
ATOM      4  N   UNL     1       1.103   7.158  -9.693  0.00  0.00    -0.125 NA
ATOM      5  C   UNL     1       0.579   5.901 -10.132  0.00  0.00    +0.352 C 
ATOM      6  O   UNL     1      -0.284   5.919 -11.031  0.00  0.00    -0.248 OA
ATOM      7  N   UNL     1       0.977   4.745  -9.414  0.00  0.00    -0.125 NA
ATOM      8  C   UNL     1       2.262   4.746  -8.785  0.00  0.00    +0.257 C 
ATOM      9  O   UNL     1       2.936   3.674  -8.715  0.00  0.00    -0.272 OA
ENDROOT
BRANCH   1  10
ATOM     10  C   UNL     1       3.826   6.319  -9.725  0.00  0.00    +0.044 C 
BRANCH  10  12
ATOM     11  C   UNL     1       6.093   6.020 -10.568  0.00  0.00    -0.005 C 
ATOM     12  C   UNL     1       5.241   5.937  -9.538  0.00  0.00    -0.025 C 
ENDBRANCH  10  12
ENDBRANCH   1  10
BRANCH   1  13
ATOM     13  C   UNL     1       3.725   5.975  -7.235  0.00  0.00    +0.018 C 
BRANCH  13  14
ATOM     14  C   UNL     1       2.698   5.804  -6.123  0.00  0.00    +0.001 C 
ATOM     15  C   UNL     1       2.948   4.508  -5.401  0.00  0.00    +0.000 C 
ATOM     16  C   UNL     1       2.743   6.924  -5.124  0.00  0.00    +0.000 C 
ENDBRANCH  13  14
ENDBRANCH   1  13
TORSDOF 4
ENDMDL
MODEL 8
REMARK VINA RESULT:      -5.3      2.002      2.764
REMARK  Name = 
REMARK  4 active torsions:
REMARK  status: ('A' for Active; 'I' for Inactive)
REMARK    1  A    between atoms: C_2  and  C_3
REMARK    2  A    between atoms: C_3  and  C_4
REMARK    3  A    between atoms: C_4  and  C_5
REMARK    4  A    between atoms: C_5  and  C_6
REMARK                            x       y       z     vdW  Elec       q    Type
REMARK                         _______ _______ _______ _____ _____    ______ ____
ROOT
ATOM      1  C   UNL     1       1.767   5.829  -8.829  0.00  0.00    +0.145 C 
ATOM      2  C   UNL     1       2.600   4.585  -8.847  0.00  0.00    +0.257 C 
ATOM      3  O   UNL     1       1.960   3.500  -9.000  0.00  0.00    -0.272 OA
ATOM      4  N   UNL     1       3.808   4.690  -9.613  0.00  0.00    -0.125 NA
ATOM      5  C   UNL     1       4.597   5.859  -9.363  0.00  0.00    +0.352 C 
ATOM      6  O   UNL     1       5.741   5.897  -9.857  0.00  0.00    -0.248 OA
ATOM      7  N   UNL     1       4.072   6.815  -8.458  0.00  0.00    -0.125 NA
ATOM      8  C   UNL     1       2.650   6.938  -8.349  0.00  0.00    +0.257 C 
ATOM      9  O   UNL     1       2.125   8.072  -8.132  0.00  0.00    -0.272 OA
ENDROOT
BRANCH   1  10
ATOM     10  C   UNL     1       1.435   6.126 -10.264  0.00  0.00    +0.044 C 
BRANCH  10  12
ATOM     11  C   UNL     1      -0.387   7.247 -11.431  0.00  0.00    -0.005 C 
ATOM     12  C   UNL     1      -0.004   6.363 -10.501  0.00  0.00    -0.025 C 
ENDBRANCH  10  12
ENDBRANCH   1  10
BRANCH   1  13
ATOM     13  C   UNL     1       0.566   5.696  -7.943  0.00  0.00    +0.018 C 
BRANCH  13  14
ATOM     14  C   UNL     1       1.074   5.664  -6.508  0.00  0.00    +0.001 C 
ATOM     15  C   UNL     1       0.251   6.597  -5.661  0.00  0.00    +0.000 C 
ATOM     16  C   UNL     1       1.007   4.290  -5.906  0.00  0.00    +0.000 C 
ENDBRANCH  13  14
ENDBRANCH   1  13
TORSDOF 4
ENDMDL
MODEL 9
REMARK VINA RESULT:      -5.0      1.531      2.523
REMARK  Name = 
REMARK  4 active torsions:
REMARK  status: ('A' for Active; 'I' for Inactive)
REMARK    1  A    between atoms: C_2  and  C_3
REMARK    2  A    between atoms: C_3  and  C_4
REMARK    3  A    between atoms: C_4  and  C_5
REMARK    4  A    between atoms: C_5  and  C_6
REMARK                            x       y       z     vdW  Elec       q    Type
REMARK                         _______ _______ _______ _____ _____    ______ ____
ROOT
ATOM      1  C   UNL     1       1.831   6.020  -6.957  0.00  0.00    +0.145 C 
ATOM      2  C   UNL     1       2.709   4.808  -6.884  0.00  0.00    +0.257 C 
ATOM      3  O   UNL     1       2.356   3.926  -6.044  0.00  0.00    -0.272 OA
ATOM      4  N   UNL     1       3.127   4.301  -8.158  0.00  0.00    -0.125 NA
ATOM      5  C   UNL     1       3.635   5.277  -9.075  0.00  0.00    +0.352 C 
ATOM      6  O   UNL     1       4.186   4.860 -10.112  0.00  0.00    -0.248 OA
ATOM      7  N   UNL     1       3.599   6.633  -8.665  0.00  0.00    -0.125 NA
ATOM      8  C   UNL     1       2.565   7.043  -7.764  0.00  0.00    +0.257 C 
ATOM      9  O   UNL     1       2.066   8.205  -7.856  0.00  0.00    -0.272 OA
ENDROOT
BRANCH   1  10
ATOM     10  C   UNL     1       0.628   5.611  -7.760  0.00  0.00    +0.044 C 
BRANCH  10  12
ATOM     11  C   UNL     1       0.108   5.715 -10.138  0.00  0.00    -0.005 C 
ATOM     12  C   UNL     1       0.481   6.360  -9.026  0.00  0.00    -0.025 C 
ENDBRANCH  10  12
ENDBRANCH   1  10
BRANCH   1  13
ATOM     13  C   UNL     1       1.498   6.563  -5.600  0.00  0.00    +0.018 C 
BRANCH  13  14
ATOM     14  C   UNL     1       0.019   6.290  -5.362  0.00  0.00    +0.001 C 
ATOM     15  C   UNL     1      -0.141   5.362  -4.189  0.00  0.00    +0.000 C 
ATOM     16  C   UNL     1      -0.758   7.546  -5.088  0.00  0.00    +0.000 C 
ENDBRANCH  13  14
ENDBRANCH   1  13
TORSDOF 4
ENDMDL
