MODEL 1
REMARK VINA RESULT:      -6.8      0.000      0.000
REMARK  Name = 
REMARK  2 active torsions:
REMARK  status: ('A' for Active; 'I' for Inactive)
REMARK    1  A    between atoms: N9_10  and  C1*_11
REMARK    2  A    between atoms: C4*_13  and  C5*_14
REMARK                            x       y       z     vdW  Elec       q    Type
REMARK                         _______ _______ _______ _____ _____    ______ ____
ROOT
ATOM      1  N6    A A   1       3.540   3.838  -8.850  0.00  0.00    -0.105 NA
ATOM      2  C6    A A   1       2.327   4.438  -8.717  0.00  0.00    +0.192 A 
ATOM      3  C5    A A   1       1.772   4.732  -7.489  0.00  0.00    +0.152 A 
ATOM      4  N7    A A   1       1.925   4.083  -6.341  0.00  0.00    -0.219 NA
ATOM      5  C8    A A   1       1.075   4.624  -5.439  0.00  0.00    +0.182 A 
ATOM      6  N9    A A   1       0.258   5.421  -6.088  0.00  0.00    -0.269 N 
ATOM      7  C4    A A   1       0.637   5.509  -7.351  0.00  0.00    +0.169 A 
ATOM      8  N3    A A   1      -0.039   5.819  -8.482  0.00  0.00    -0.205 NA
ATOM      9  C2    A A   1       0.334   5.308  -9.680  0.00  0.00    +0.202 A 
ATOM     10  N1    A A   1       1.535   4.686  -9.781  0.00  0.00    -0.204 NA
ENDROOT
BRANCH   6  11
ATOM     11  C1*   A A   1      -0.597   6.586  -5.452  0.00  0.00    +0.241 C 
ATOM     12  C2*   A A   1      -1.903   5.499  -5.261  0.00  0.00    +0.234 C 
ATOM     13  O2*   A A   1      -2.607   5.967  -6.494  0.00  0.00    -0.216 OA
ATOM     14  C3*   A A   1      -2.650   6.629  -4.248  0.00  0.00    +0.216 C 
ATOM     15  O3*   A A   1      -2.374   7.872  -5.048  0.00  0.00    -0.218 OA
ATOM     16  C4*   A A   1      -1.288   6.822  -3.237  0.00  0.00    +0.183 C 
ATOM     17  O4*   A A   1      -0.247   6.167  -4.059  0.00  0.00    -0.331 OA
BRANCH  16  18
ATOM     18  C5*   A A   1      -1.655   5.377  -2.507  0.00  0.00    +0.214 C 
ATOM     19  O5*   A A   1      -0.397   4.923  -2.058  0.00  0.00    -0.218 OA
ENDBRANCH  16  18
ENDBRANCH   6  11
TORSDOF 2
ENDMDL
MODEL 2
REMARK VINA RESULT:      -6.8      4.353      6.620
REMARK  Name = 
REMARK  2 active torsions:
REMARK  status: ('A' for Active; 'I' for Inactive)
REMARK    1  A    between atoms: N9_10  and  C1*_11
REMARK    2  A    between atoms: C4*_13  and  C5*_14
REMARK                            x       y       z     vdW  Elec       q    Type
REMARK                         _______ _______ _______ _____ _____    ______ ____
ROOT
ATOM      1  N6    A A   1       7.720   5.050 -13.126  0.00  0.00    -0.105 NA
ATOM      2  C6    A A   1       7.146   5.281 -11.915  0.00  0.00    +0.192 A 
ATOM      3  C5    A A   1       5.779   5.334 -11.737  0.00  0.00    +0.152 A 
ATOM      4  N7    A A   1       4.852   5.730 -12.600  0.00  0.00    -0.219 NA
ATOM      5  C8    A A   1       3.666   5.769 -11.952  0.00  0.00    +0.182 A 
ATOM      6  N9    A A   1       3.908   5.631 -10.668  0.00  0.00    -0.269 N 
ATOM      7  C4    A A   1       5.191   5.375 -10.486  0.00  0.00    +0.169 A 
ATOM      8  N3    A A   1       6.012   5.560  -9.425  0.00  0.00    -0.205 NA
ATOM      9  C2    A A   1       7.337   5.789  -9.600  0.00  0.00    +0.202 A 
ATOM     10  N1    A A   1       7.881   5.582 -10.824  0.00  0.00    -0.204 NA
ENDROOT
BRANCH   6  11
ATOM     11  C1*   A A   1       2.864   5.178  -9.574  0.00  0.00    +0.241 C 
ATOM     12  C2*   A A   1       2.389   6.809  -9.380  0.00  0.00    +0.234 C 
ATOM     13  O2*   A A   1       3.229   7.016  -8.160  0.00  0.00    -0.216 OA
ATOM     14  C3*   A A   1       1.036   6.275  -8.516  0.00  0.00    +0.216 C 
ATOM     15  O3*   A A   1       1.702   5.226  -7.670  0.00  0.00    -0.218 OA
ATOM     16  C4*   A A   1       0.536   5.173  -9.720  0.00  0.00    +0.183 C 
ATOM     17  O4*   A A   1       1.747   5.133 -10.568  0.00  0.00    -0.331 OA
BRANCH  16  18
ATOM     18  C5*   A A   1      -0.069   6.444 -10.599  0.00  0.00    +0.214 C 
ATOM     19  O5*   A A   1       0.090   6.009 -11.931  0.00  0.00    -0.218 OA
ENDBRANCH  16  18
ENDBRANCH   6  11
TORSDOF 2
ENDMDL
MODEL 3
REMARK VINA RESULT:      -6.6      2.919      5.935
REMARK  Name = 
REMARK  2 active torsions:
REMARK  status: ('A' for Active; 'I' for Inactive)
REMARK    1  A    between atoms: N9_10  and  C1*_11
REMARK    2  A    between atoms: C4*_13  and  C5*_14
REMARK                            x       y       z     vdW  Elec       q    Type
REMARK                         _______ _______ _______ _____ _____    ______ ____
ROOT
ATOM      1  N6    A A   1      -3.499   5.342  -2.989  0.00  0.00    -0.105 NA
ATOM      2  C6    A A   1      -2.141   5.420  -2.987  0.00  0.00    +0.192 A 
ATOM      3  C5    A A   1      -1.411   5.731  -4.114  0.00  0.00    +0.152 A 
ATOM      4  N7    A A   1      -1.704   5.469  -5.382  0.00  0.00    -0.219 NA
ATOM      5  C8    A A   1      -0.635   5.810  -6.137  0.00  0.00    +0.182 A 
ATOM      6  N9    A A   1       0.369   6.048  -5.324  0.00  0.00    -0.269 N 
ATOM      7  C4    A A   1      -0.055   5.999  -4.073  0.00  0.00    +0.169 A 
ATOM      8  N3    A A   1       0.587   5.754  -2.907  0.00  0.00    -0.205 NA
ATOM      9  C2    A A   1      -0.060   5.184  -1.861  0.00  0.00    +0.202 A 
ATOM     10  N1    A A   1      -1.412   5.089  -1.900  0.00  0.00    -0.204 NA
ENDROOT
BRANCH   6  11
ATOM     11  C1*   A A   1       1.662   6.883  -5.672  0.00  0.00    +0.241 C 
ATOM     12  C2*   A A   1       2.390   5.463  -6.287  0.00  0.00    +0.234 C 
ATOM     13  O2*   A A   1       3.175   5.203  -5.041  0.00  0.00    -0.216 OA
ATOM     14  C3*   A A   1       3.588   6.426  -6.995  0.00  0.00    +0.216 C 
ATOM     15  O3*   A A   1       3.833   7.368  -5.849  0.00  0.00    -0.218 OA
ATOM     16  C4*   A A   1       2.480   7.461  -7.779  0.00  0.00    +0.183 C 
ATOM     17  O4*   A A   1       1.226   7.086  -7.089  0.00  0.00    -0.331 OA
BRANCH  16  18
ATOM     18  C5*   A A   1       2.229   6.287  -8.924  0.00  0.00    +0.214 C 
ATOM     19  O5*   A A   1       0.937   6.586  -9.404  0.00  0.00    -0.218 OA
ENDBRANCH  16  18
ENDBRANCH   6  11
TORSDOF 2
ENDMDL
MODEL 4
REMARK VINA RESULT:      -6.5      3.292      5.516
REMARK  Name = 
REMARK  2 active torsions:
REMARK  status: ('A' for Active; 'I' for Inactive)
REMARK    1  A    between atoms: N9_10  and  C1*_11
REMARK    2  A    between atoms: C4*_13  and  C5*_14
REMARK                            x       y       z     vdW  Elec       q    Type
REMARK                         _______ _______ _______ _____ _____    ______ ____
ROOT
ATOM      1  N6    A A   1      -2.733   5.171  -1.885  0.00  0.00    -0.105 NA
ATOM      2  C6    A A   1      -2.119   5.335  -3.087  0.00  0.00    +0.192 A 
ATOM      3  C5    A A   1      -0.750   5.425  -3.218  0.00  0.00    +0.152 A 
ATOM      4  N7    A A   1       0.129   5.915  -2.352  0.00  0.00    -0.219 NA
ATOM      5  C8    A A   1       1.338   5.950  -2.957  0.00  0.00    +0.182 A 
ATOM      6  N9    A A   1       1.151   5.712  -4.235  0.00  0.00    -0.269 N 
ATOM      7  C4    A A   1      -0.114   5.398  -4.446  0.00  0.00    +0.169 A 
ATOM      8  N3    A A   1      -0.898   5.477  -5.547  0.00  0.00    -0.205 NA
ATOM      9  C2    A A   1      -2.236   5.670  -5.439  0.00  0.00    +0.202 A 
ATOM     10  N1    A A   1      -2.821   5.532  -4.224  0.00  0.00    -0.204 NA
ENDROOT
BRANCH   6  11
ATOM     11  C1*   A A   1       2.253   5.221  -5.254  0.00  0.00    +0.241 C 
ATOM     12  C2*   A A   1       2.658   6.851  -5.574  0.00  0.00    +0.234 C 
ATOM     13  O2*   A A   1       1.852   6.913  -6.832  0.00  0.00    -0.216 OA
ATOM     14  C3*   A A   1       4.063   6.313  -6.347  0.00  0.00    +0.216 C 
ATOM     15  O3*   A A   1       3.476   5.164  -7.119  0.00  0.00    -0.218 OA
ATOM     16  C4*   A A   1       4.572   5.343  -5.038  0.00  0.00    +0.183 C 
ATOM     17  O4*   A A   1       3.335   5.315  -4.226  0.00  0.00    -0.331 OA
BRANCH  16  18
ATOM     18  C5*   A A   1       5.086   6.711  -4.253  0.00  0.00    +0.214 C 
ATOM     19  O5*   A A   1       4.799   6.426  -2.903  0.00  0.00    -0.218 OA
ENDBRANCH  16  18
ENDBRANCH   6  11
TORSDOF 2
ENDMDL
MODEL 5
REMARK VINA RESULT:      -6.5      4.321      5.898
REMARK  Name = 
REMARK  2 active torsions:
REMARK  status: ('A' for Active; 'I' for Inactive)
REMARK    1  A    between atoms: N9_10  and  C1*_11
REMARK    2  A    between atoms: C4*_13  and  C5*_14
REMARK                            x       y       z     vdW  Elec       q    Type
REMARK                         _______ _______ _______ _____ _____    ______ ____
ROOT
ATOM      1  N6    A A   1       8.421   5.322 -12.393  0.00  0.00    -0.105 NA
ATOM      2  C6    A A   1       7.062   5.371 -12.383  0.00  0.00    +0.192 A 
ATOM      3  C5    A A   1       6.334   5.632 -11.242  0.00  0.00    +0.152 A 
ATOM      4  N7    A A   1       6.643   5.339  -9.984  0.00  0.00    -0.219 NA
ATOM      5  C8    A A   1       5.573   5.634  -9.211  0.00  0.00    +0.182 A 
ATOM      6  N9    A A   1       4.558   5.874 -10.009  0.00  0.00    -0.269 N 
ATOM      7  C4    A A   1       4.972   5.872 -11.264  0.00  0.00    +0.169 A 
ATOM      8  N3    A A   1       4.327   5.647 -12.432  0.00  0.00    -0.205 NA
ATOM      9  C2    A A   1       4.977   5.122 -13.499  0.00  0.00    +0.202 A 
ATOM     10  N1    A A   1       6.330   5.056 -13.473  0.00  0.00    -0.204 NA
ENDROOT
BRANCH   6  11
ATOM     11  C1*   A A   1       3.250   6.670  -9.626  0.00  0.00    +0.241 C 
ATOM     12  C2*   A A   1       2.535   5.207  -9.103  0.00  0.00    +0.234 C 
ATOM     13  O2*   A A   1       1.767   5.010 -10.371  0.00  0.00    -0.216 OA
ATOM     14  C3*   A A   1       1.318   6.111  -8.354  0.00  0.00    +0.216 C 
ATOM     15  O3*   A A   1       1.071   7.116  -9.445  0.00  0.00    -0.218 OA
ATOM     16  C4*   A A   1       2.404   7.113  -7.498  0.00  0.00    +0.183 C 
ATOM     17  O4*   A A   1       3.669   6.796  -8.196  0.00  0.00    -0.331 OA
BRANCH  16  18
ATOM     18  C5*   A A   1       2.659   5.877  -6.421  0.00  0.00    +0.214 C 
ATOM     19  O5*   A A   1       3.984   6.101  -5.994  0.00  0.00    -0.218 OA
ENDBRANCH  16  18
ENDBRANCH   6  11
TORSDOF 2
ENDMDL
MODEL 6
REMARK VINA RESULT:      -6.4      2.982      4.898
REMARK  Name = 
REMARK  2 active torsions:
REMARK  status: ('A' for Active; 'I' for Inactive)
REMARK    1  A    between atoms: N9_10  and  C1*_11
REMARK    2  A    between atoms: C4*_13  and  C5*_14
REMARK                            x       y       z     vdW  Elec       q    Type
REMARK                         _______ _______ _______ _____ _____    ______ ____
ROOT
ATOM      1  N6    A A   1       4.985   5.313 -12.815  0.00  0.00    -0.105 NA
ATOM      2  C6    A A   1       5.192   5.409 -11.474  0.00  0.00    +0.192 A 
ATOM      3  C5    A A   1       4.168   5.326 -10.555  0.00  0.00    +0.152 A 
ATOM      4  N7    A A   1       2.900   5.695 -10.700  0.00  0.00    -0.219 NA
ATOM      5  C8    A A   1       2.292   5.583  -9.498  0.00  0.00    +0.182 A 
ATOM      6  N9    A A   1       3.225   5.381  -8.596  0.00  0.00    -0.269 N 
ATOM      7  C4    A A   1       4.393   5.231  -9.194  0.00  0.00    +0.169 A 
ATOM      8  N3    A A   1       5.663   5.418  -8.765  0.00  0.00    -0.205 NA
ATOM      9  C2    A A   1       6.645   5.776  -9.628  0.00  0.00    +0.202 A 
ATOM     10  N1    A A   1       6.405   5.702 -10.960  0.00  0.00    -0.204 NA
ENDROOT
BRANCH   6  11
ATOM     11  C1*   A A   1       3.004   4.764  -7.160  0.00  0.00    +0.241 C 
ATOM     12  C2*   A A   1       2.581   6.316  -6.578  0.00  0.00    +0.234 C 
ATOM     13  O2*   A A   1       3.935   6.582  -6.002  0.00  0.00    -0.216 OA
ATOM     14  C3*   A A   1       1.984   5.588  -5.173  0.00  0.00    +0.216 C 
ATOM     15  O3*   A A   1       3.092   4.600  -4.936  0.00  0.00    -0.218 OA
ATOM     16  C4*   A A   1       0.995   4.476  -6.009  0.00  0.00    +0.183 C 
ATOM     17  O4*   A A   1       1.532   4.617  -7.381  0.00  0.00    -0.331 OA
BRANCH  16  18
ATOM     18  C5*   A A   1      -0.099   5.692  -6.286  0.00  0.00    +0.214 C 
ATOM     19  O5*   A A   1      -0.725   5.287  -7.483  0.00  0.00    -0.218 OA
ENDBRANCH  16  18
ENDBRANCH   6  11
TORSDOF 2
ENDMDL
MODEL 7
REMARK VINA RESULT:      -6.2      3.027      5.567
REMARK  Name = 
REMARK  2 active torsions:
REMARK  status: ('A' for Active; 'I' for Inactive)
REMARK    1  A    between atoms: N9_10  and  C1*_11
REMARK    2  A    between atoms: C4*_13  and  C5*_14
REMARK                            x       y       z     vdW  Elec       q    Type
REMARK                         _______ _______ _______ _____ _____    ______ ____
ROOT
ATOM      1  N6    A A   1      -1.008   5.351  -2.637  0.00  0.00    -0.105 NA
ATOM      2  C6    A A   1      -1.085   5.478  -3.989  0.00  0.00    +0.192 A 
ATOM      3  C5    A A   1       0.017   5.373  -4.811  0.00  0.00    +0.152 A 
ATOM      4  N7    A A   1       1.278   5.692  -4.541  0.00  0.00    -0.219 NA
ATOM      5  C8    A A   1       1.991   5.578  -5.684  0.00  0.00    +0.182 A 
ATOM      6  N9    A A   1       1.140   5.427  -6.673  0.00  0.00    -0.269 N 
ATOM      7  C4    A A   1      -0.083   5.310  -6.189  0.00  0.00    +0.169 A 
ATOM      8  N3    A A   1      -1.301   5.552  -6.729  0.00  0.00    -0.205 NA
ATOM      9  C2    A A   1      -2.346   5.932  -5.954  0.00  0.00    +0.202 A 
ATOM     10  N1    A A   1      -2.234   5.825  -4.607  0.00  0.00    -0.204 NA
ENDROOT
BRANCH   6  11
ATOM     11  C1*   A A   1       1.472   4.827  -8.095  0.00  0.00    +0.241 C 
ATOM     12  C2*   A A   1       2.024   6.367  -8.595  0.00  0.00    +0.234 C 
ATOM     13  O2*   A A   1       0.747   6.711  -9.294  0.00  0.00    -0.216 OA
ATOM     14  C3*   A A   1       2.721   5.637  -9.952  0.00  0.00    +0.216 C 
ATOM     15  O3*   A A   1       1.596   4.710 -10.319  0.00  0.00    -0.218 OA
ATOM     16  C4*   A A   1       3.568   4.461  -9.050  0.00  0.00    +0.183 C 
ATOM     17  O4*   A A   1       2.907   4.603  -7.734  0.00  0.00    -0.331 OA
BRANCH  16  18
ATOM     18  C5*   A A   1       4.687   5.616  -8.639  0.00  0.00    +0.214 C 
ATOM     19  O5*   A A   1       5.084   5.223  -7.344  0.00  0.00    -0.218 OA
ENDBRANCH  16  18
ENDBRANCH   6  11
TORSDOF 2
ENDMDL
MODEL 8
REMARK VINA RESULT:      -6.1      3.515      6.220
REMARK  Name = 
REMARK  2 active torsions:
REMARK  status: ('A' for Active; 'I' for Inactive)
REMARK    1  A    between atoms: N9_10  and  C1*_11
REMARK    2  A    between atoms: C4*_13  and  C5*_14
REMARK                            x       y       z     vdW  Elec       q    Type
REMARK                         _______ _______ _______ _____ _____    ______ ____
ROOT
ATOM      1  N6    A A   1      -3.476   5.395  -3.738  0.00  0.00    -0.105 NA
ATOM      2  C6    A A   1      -2.306   5.532  -3.059  0.00  0.00    +0.192 A 
ATOM      3  C5    A A   1      -1.097   5.732  -3.690  0.00  0.00    +0.152 A 
ATOM      4  N7    A A   1      -0.712   5.301  -4.886  0.00  0.00    -0.219 NA
ATOM      5  C8    A A   1       0.600   5.592  -5.032  0.00  0.00    +0.182 A 
ATOM      6  N9    A A   1       1.058   5.974  -3.862  0.00  0.00    -0.269 N 
ATOM      7  C4    A A   1       0.057   6.062  -3.004  0.00  0.00    +0.169 A 
ATOM      8  N3    A A   1       0.011   5.993  -1.653  0.00  0.00    -0.205 NA
ATOM      9  C2    A A   1      -1.091   5.530  -1.014  0.00  0.00    +0.202 A 
ATOM     10  N1    A A   1      -2.238   5.371  -1.720  0.00  0.00    -0.204 NA
ENDROOT
BRANCH   6  11
ATOM     11  C1*   A A   1       2.370   6.815  -3.612  0.00  0.00    +0.241 C 
ATOM     12  C2*   A A   1       3.277   5.365  -3.610  0.00  0.00    +0.234 C 
ATOM     13  O2*   A A   1       3.326   5.277  -2.118  0.00  0.00    -0.216 OA
ATOM     14  C3*   A A   1       4.688   6.289  -3.732  0.00  0.00    +0.216 C 
ATOM     15  O3*   A A   1       4.347   7.363  -2.736  0.00  0.00    -0.218 OA
ATOM     16  C4*   A A   1       4.145   7.185  -5.079  0.00  0.00    +0.183 C 
ATOM     17  O4*   A A   1       2.706   6.841  -5.069  0.00  0.00    -0.331 OA
BRANCH  16  18
ATOM     18  C5*   A A   1       4.476   5.881  -6.051  0.00  0.00    +0.214 C 
ATOM     19  O5*   A A   1       3.586   6.059  -7.130  0.00  0.00    -0.218 OA
ENDBRANCH  16  18
ENDBRANCH   6  11
TORSDOF 2
ENDMDL
MODEL 9
REMARK VINA RESULT:      -6.1      2.419      4.007
REMARK  Name = 
REMARK  2 active torsions:
REMARK  status: ('A' for Active; 'I' for Inactive)
REMARK    1  A    between atoms: N9_10  and  C1*_11
REMARK    2  A    between atoms: C4*_13  and  C5*_14
REMARK                            x       y       z     vdW  Elec       q    Type
REMARK                         _______ _______ _______ _____ _____    ______ ____
ROOT
ATOM      1  N6    A A   1       1.030   5.214 -13.190  0.00  0.00    -0.105 NA
ATOM      2  C6    A A   1       1.791   5.569 -12.120  0.00  0.00    +0.192 A 
ATOM      3  C5    A A   1       1.323   5.520 -10.824  0.00  0.00    +0.152 A 
ATOM      4  N7    A A   1       0.080   5.695 -10.391  0.00  0.00    -0.219 NA
ATOM      5  C8    A A   1       0.108   5.719  -9.039  0.00  0.00    +0.182 A 
ATOM      6  N9    A A   1       1.365   5.798  -8.668  0.00  0.00    -0.269 N 
ATOM      7  C4    A A   1       2.147   5.693  -9.727  0.00  0.00    +0.169 A 
ATOM      8  N3    A A   1       3.412   6.111  -9.967  0.00  0.00    -0.205 NA
ATOM      9  C2    A A   1       3.815   6.434 -11.220  0.00  0.00    +0.202 A 
ATOM     10  N1    A A   1       3.024   6.098 -12.269  0.00  0.00    -0.204 NA
ENDROOT
BRANCH   6  11
ATOM     11  C1*   A A   1       1.933   5.419  -7.244  0.00  0.00    +0.241 C 
ATOM     12  C2*   A A   1       1.503   6.975  -6.679  0.00  0.00    +0.234 C 
ATOM     13  O2*   A A   1       2.886   7.525  -6.829  0.00  0.00    -0.216 OA
ATOM     14  C3*   A A   1       1.752   6.430  -5.097  0.00  0.00    +0.216 C 
ATOM     15  O3*   A A   1       3.027   5.664  -5.315  0.00  0.00    -0.218 OA
ATOM     16  C4*   A A   1       0.747   5.061  -5.268  0.00  0.00    +0.183 C 
ATOM     17  O4*   A A   1       0.580   5.032  -6.738  0.00  0.00    -0.331 OA
BRANCH  16  18
ATOM     18  C5*   A A   1      -0.581   6.045  -5.113  0.00  0.00    +0.214 C 
ATOM     19  O5*   A A   1      -1.545   5.402  -5.916  0.00  0.00    -0.218 OA
ENDBRANCH  16  18
ENDBRANCH   6  11
TORSDOF 2
ENDMDL
