MODEL 1
REMARK VINA RESULT:     -10.0      0.000      0.000
REMARK  Name = 
REMARK  7 active torsions:
REMARK  status: ('A' for Active; 'I' for Inactive)
REMARK    1  A    between atoms: C_2  and  C_3
REMARK    2  A    between atoms: C_3  and  S_4
REMARK    3  A    between atoms: S_4  and  N_7
REMARK    4  A    between atoms: N_7  and  C_8
REMARK    5  A    between atoms: C_13  and  C_14
REMARK    6  A    between atoms: C_14  and  C_16
REMARK    7  A    between atoms: C_22  and  C_23
REMARK                            x       y       z     vdW  Elec       q    Type
REMARK                         _______ _______ _______ _____ _____    ______ ____
ROOT
ATOM      1  C   UNL     1       3.493   5.925  -5.721  0.00  0.00    +0.202 C 
ATOM      2  O   UNL     1       4.396   5.056  -5.888  0.00  0.00    -0.286 OA
ENDROOT
BRANCH   1   3
ATOM      3  C   UNL     1       2.869   6.453  -6.922  0.00  0.00    +0.061 A 
ATOM      4  C   UNL     1       3.120   5.939  -8.191  0.00  0.00    +0.040 A 
ATOM      5  C   UNL     1       2.192   6.589  -8.997  0.00  0.00    +0.162 A 
ATOM      6  N   UNL     1       2.189   6.229 -10.303  0.00  0.00    -0.225 NA
ATOM      7  C   UNL     1       3.254   5.627 -10.886  0.00  0.00    +0.101 A 
ATOM      8  C   UNL     1       4.403   5.329 -10.162  0.00  0.00    +0.019 A 
ATOM      9  N   UNL     1       1.713   7.653  -8.309  0.00  0.00    -0.225 NA
ATOM     10  C   UNL     1       4.221   5.335  -8.784  0.00  0.00    +0.005 A 
ATOM     11  C   UNL     1       2.205   7.665  -7.059  0.00  0.00    +0.104 A 
BRANCH   8  12
ATOM     12  C   UNL     1       5.724   5.545 -10.769  0.00  0.00    +0.002 A 
ATOM     13  C   UNL     1       5.961   5.375 -12.111  0.00  0.00    +0.001 A 
ATOM     14  C   UNL     1       7.259   5.489 -12.595  0.00  0.00    +0.011 A 
ATOM     15  C   UNL     1       8.250   6.068 -11.812  0.00  0.00    +0.058 A 
ATOM     16 CL   UNL     1       9.911   6.000 -12.386  0.00  0.00    -0.082 Cl
ATOM     17  C   UNL     1       7.980   6.389 -10.486  0.00  0.00    +0.011 A 
ATOM     18  C   UNL     1       6.785   5.941  -9.968  0.00  0.00    +0.001 A 
ENDBRANCH   8  12
ENDBRANCH   1   3
BRANCH   1  22
ATOM     19  C   UNL     1       0.964   5.678  -2.940  0.00  0.00    +0.118 A 
ATOM     20  C   UNL     1       1.558   5.598  -4.183  0.00  0.00    +0.162 A 
ATOM     21  F   UNL     1       1.031   4.672  -5.036  0.00  0.00    -0.203 F 
ATOM     22  C   UNL     1       2.875   5.981  -4.400  0.00  0.00    +0.095 A 
ATOM     23  C   UNL     1       3.522   6.551  -3.320  0.00  0.00    +0.145 A 
ATOM     24  F   UNL     1       4.848   6.861  -3.410  0.00  0.00    -0.204 F 
ATOM     25  C   UNL     1       2.868   6.856  -2.139  0.00  0.00    +0.031 A 
ATOM     26  C   UNL     1       1.583   6.390  -1.935  0.00  0.00    +0.023 A 
BRANCH  19  27
ATOM     27  N   UNL     1      -0.227   4.945  -2.652  0.00  0.00    -0.098 NA
BRANCH  27  28
ATOM     28  S   UNL     1      -1.772   5.679  -2.798  0.00  0.00    +0.073 S 
ATOM     29  O   UNL     1      -2.798   4.606  -2.668  0.00  0.00    -0.153 OA
ATOM     30  O   UNL     1      -1.883   6.704  -1.696  0.00  0.00    -0.153 OA
BRANCH  28  31
ATOM     31  C   UNL     1      -1.837   6.506  -4.363  0.00  0.00    +0.174 C 
BRANCH  31  33
ATOM     32  C   UNL     1      -1.535   5.633  -6.662  0.00  0.00    +0.002 C 
ATOM     33  C   UNL     1      -2.430   5.610  -5.442  0.00  0.00    +0.027 C 
ENDBRANCH  31  33
ENDBRANCH  28  31
ENDBRANCH  27  28
ENDBRANCH  19  27
ENDBRANCH   1  22
TORSDOF 7
ENDMDL
MODEL 2
REMARK VINA RESULT:      -9.6      4.730      7.210
REMARK  Name = 
REMARK  7 active torsions:
REMARK  status: ('A' for Active; 'I' for Inactive)
REMARK    1  A    between atoms: C_2  and  C_3
REMARK    2  A    between atoms: C_3  and  S_4
REMARK    3  A    between atoms: S_4  and  N_7
REMARK    4  A    between atoms: N_7  and  C_8
REMARK    5  A    between atoms: C_13  and  C_14
REMARK    6  A    between atoms: C_14  and  C_16
REMARK    7  A    between atoms: C_22  and  C_23
REMARK                            x       y       z     vdW  Elec       q    Type
REMARK                         _______ _______ _______ _____ _____    ______ ____
ROOT
ATOM      1  C   UNL     1       0.965   4.966  -5.213  0.00  0.00    +0.202 C 
ATOM      2  O   UNL     1       0.979   3.888  -5.873  0.00  0.00    -0.286 OA
ENDROOT
BRANCH   1   3
ATOM      3  C   UNL     1       1.991   5.942  -5.539  0.00  0.00    +0.061 A 
ATOM      4  C   UNL     1       3.130   6.127  -4.762  0.00  0.00    +0.040 A 
ATOM      5  C   UNL     1       3.910   6.991  -5.523  0.00  0.00    +0.162 A 
ATOM      6  N   UNL     1       5.122   7.302  -5.006  0.00  0.00    -0.225 NA
ATOM      7  C   UNL     1       5.401   7.161  -3.688  0.00  0.00    +0.101 A 
ATOM      8  C   UNL     1       4.456   6.665  -2.797  0.00  0.00    +0.019 A 
ATOM      9  N   UNL     1       3.117   7.542  -6.473  0.00  0.00    -0.225 NA
ATOM     10  C   UNL     1       3.403   5.992  -3.406  0.00  0.00    +0.005 A 
ATOM     11  C   UNL     1       1.888   7.001  -6.432  0.00  0.00    +0.104 A 
BRANCH   8  12
ATOM     12  C   UNL     1       4.318   7.272  -1.467  0.00  0.00    +0.002 A 
ATOM     13  C   UNL     1       4.789   6.673  -0.324  0.00  0.00    +0.001 A 
ATOM     14  C   UNL     1       4.525   7.253   0.911  0.00  0.00    +0.011 A 
ATOM     15  C   UNL     1       4.072   8.564   0.986  0.00  0.00    +0.058 A 
ATOM     16 CL   UNL     1       3.557   9.179   2.551  0.00  0.00    -0.082 Cl
ATOM     17  C   UNL     1       3.732   9.243  -0.179  0.00  0.00    +0.011 A 
ATOM     18  C   UNL     1       3.692   8.504  -1.341  0.00  0.00    +0.001 A 
ENDBRANCH   8  12
ENDBRANCH   1   3
BRANCH   1  22
ATOM     19  C   UNL     1      -1.664   5.393  -2.548  0.00  0.00    +0.118 A 
ATOM     20  C   UNL     1      -0.472   5.100  -3.179  0.00  0.00    +0.162 A 
ATOM     21  F   UNL     1       0.641   5.122  -2.390  0.00  0.00    -0.203 F 
ATOM     22  C   UNL     1      -0.285   5.304  -4.541  0.00  0.00    +0.095 A 
ATOM     23  C   UNL     1      -1.402   5.713  -5.246  0.00  0.00    +0.145 A 
ATOM     24  F   UNL     1      -1.287   6.038  -6.567  0.00  0.00    -0.204 F 
ATOM     25  C   UNL     1      -2.660   5.781  -4.673  0.00  0.00    +0.031 A 
ATOM     26  C   UNL     1      -2.789   5.646  -3.303  0.00  0.00    +0.023 A 
BRANCH  19  27
ATOM     27  N   UNL     1      -1.721   5.540  -1.130  0.00  0.00    -0.098 NA
BRANCH  27  28
ATOM     28  S   UNL     1      -1.435   7.062  -0.388  0.00  0.00    +0.073 S 
ATOM     29  O   UNL     1      -1.792   8.121  -1.374  0.00  0.00    -0.153 OA
ATOM     30  O   UNL     1      -2.300   7.124   0.846  0.00  0.00    -0.153 OA
BRANCH  28  31
ATOM     31  C   UNL     1       0.267   7.121   0.097  0.00  0.00    +0.174 C 
BRANCH  31  33
ATOM     32  C   UNL     1       0.326   9.344   1.190  0.00  0.00    +0.002 C 
ATOM     33  C   UNL     1       0.444   7.853   1.421  0.00  0.00    +0.027 C 
ENDBRANCH  31  33
ENDBRANCH  28  31
ENDBRANCH  27  28
ENDBRANCH  19  27
ENDBRANCH   1  22
TORSDOF 7
ENDMDL
MODEL 3
REMARK VINA RESULT:      -9.5      5.030      8.272
REMARK  Name = 
REMARK  7 active torsions:
REMARK  status: ('A' for Active; 'I' for Inactive)
REMARK    1  A    between atoms: C_2  and  C_3
REMARK    2  A    between atoms: C_3  and  S_4
REMARK    3  A    between atoms: S_4  and  N_7
REMARK    4  A    between atoms: N_7  and  C_8
REMARK    5  A    between atoms: C_13  and  C_14
REMARK    6  A    between atoms: C_14  and  C_16
REMARK    7  A    between atoms: C_22  and  C_23
REMARK                            x       y       z     vdW  Elec       q    Type
REMARK                         _______ _______ _______ _____ _____    ______ ____
ROOT
ATOM      1  C   UNL     1       3.458   6.733  -0.345  0.00  0.00    +0.202 C 
ATOM      2  O   UNL     1       4.394   6.514   0.476  0.00  0.00    -0.286 OA
ENDROOT
BRANCH   1   3
ATOM      3  C   UNL     1       2.260   7.358   0.187  0.00  0.00    +0.061 A 
ATOM      4  C   UNL     1       0.989   6.818   0.017  0.00  0.00    +0.040 A 
ATOM      5  C   UNL     1       0.185   7.609   0.830  0.00  0.00    +0.162 A 
ATOM      6  N   UNL     1      -1.123   7.260   0.887  0.00  0.00    -0.225 NA
ATOM      7  C   UNL     1      -1.708   6.502  -0.072  0.00  0.00    +0.101 A 
ATOM      8  C   UNL     1      -0.984   6.024  -1.158  0.00  0.00    +0.019 A 
ATOM      9  N   UNL     1       0.878   8.732   1.138  0.00  0.00    -0.225 NA
ATOM     10  C   UNL     1       0.394   6.052  -0.977  0.00  0.00    +0.005 A 
ATOM     11  C   UNL     1       2.128   8.660   0.652  0.00  0.00    +0.104 A 
BRANCH   8  12
ATOM     12  C   UNL     1      -1.589   6.034  -2.498  0.00  0.00    +0.002 A 
ATOM     13  C   UNL     1      -2.636   5.217  -2.846  0.00  0.00    +0.001 A 
ATOM     14  C   UNL     1      -3.082   5.201  -4.162  0.00  0.00    +0.011 A 
ATOM     15  C   UNL     1      -2.702   6.207  -5.042  0.00  0.00    +0.058 A 
ATOM     16 CL   UNL     1      -3.122   6.030  -6.741  0.00  0.00    -0.082 Cl
ATOM     17  C   UNL     1      -1.749   7.140  -4.651  0.00  0.00    +0.011 A 
ATOM     18  C   UNL     1      -1.095   6.901  -3.462  0.00  0.00    +0.001 A 
ENDBRANCH   8  12
ENDBRANCH   1   3
BRANCH   1  22
ATOM     19  C   UNL     1       4.261   5.618  -3.853  0.00  0.00    +0.118 A 
ATOM     20  C   UNL     1       3.890   5.600  -2.524  0.00  0.00    +0.162 A 
ATOM     21  F   UNL     1       3.103   4.553  -2.139  0.00  0.00    -0.203 F 
ATOM     22  C   UNL     1       3.821   6.757  -1.758  0.00  0.00    +0.095 A 
ATOM     23  C   UNL     1       4.255   7.915  -2.377  0.00  0.00    +0.145 A 
ATOM     24  F   UNL     1       4.127   9.114  -1.738  0.00  0.00    -0.204 F 
ATOM     25  C   UNL     1       4.852   7.911  -3.626  0.00  0.00    +0.031 A 
ATOM     26  C   UNL     1       4.831   6.755  -4.385  0.00  0.00    +0.023 A 
BRANCH  19  27
ATOM     27  N   UNL     1       3.965   4.514  -4.708  0.00  0.00    -0.098 NA
BRANCH  27  28
ATOM     28  S   UNL     1       2.914   4.696  -6.052  0.00  0.00    +0.073 S 
ATOM     29  O   UNL     1       3.737   5.129  -7.217  0.00  0.00    -0.153 OA
ATOM     30  O   UNL     1       2.259   3.357  -6.289  0.00  0.00    -0.153 OA
BRANCH  28  31
ATOM     31  C   UNL     1       1.669   5.877  -5.614  0.00  0.00    +0.174 C 
BRANCH  31  33
ATOM     32  C   UNL     1       0.276   5.797  -7.663  0.00  0.00    +0.002 C 
ATOM     33  C   UNL     1       1.195   6.664  -6.829  0.00  0.00    +0.027 C 
ENDBRANCH  31  33
ENDBRANCH  28  31
ENDBRANCH  27  28
ENDBRANCH  19  27
ENDBRANCH   1  22
TORSDOF 7
ENDMDL
MODEL 4
REMARK VINA RESULT:      -9.5      2.283      2.648
REMARK  Name = 
REMARK  7 active torsions:
REMARK  status: ('A' for Active; 'I' for Inactive)
REMARK    1  A    between atoms: C_2  and  C_3
REMARK    2  A    between atoms: C_3  and  S_4
REMARK    3  A    between atoms: S_4  and  N_7
REMARK    4  A    between atoms: N_7  and  C_8
REMARK    5  A    between atoms: C_13  and  C_14
REMARK    6  A    between atoms: C_14  and  C_16
REMARK    7  A    between atoms: C_22  and  C_23
REMARK                            x       y       z     vdW  Elec       q    Type
REMARK                         _______ _______ _______ _____ _____    ______ ____
ROOT
ATOM      1  C   UNL     1       3.139   6.965  -4.749  0.00  0.00    +0.202 C 
ATOM      2  O   UNL     1       4.107   7.736  -5.003  0.00  0.00    -0.286 OA
ENDROOT
BRANCH   1   3
ATOM      3  C   UNL     1       2.340   6.527  -5.881  0.00  0.00    +0.061 A 
ATOM      4  C   UNL     1       2.812   5.632  -6.835  0.00  0.00    +0.040 A 
ATOM      5  C   UNL     1       1.688   5.348  -7.603  0.00  0.00    +0.162 A 
ATOM      6  N   UNL     1       1.864   4.443  -8.596  0.00  0.00    -0.225 NA
ATOM      7  C   UNL     1       3.088   4.156  -9.099  0.00  0.00    +0.101 A 
ATOM      8  C   UNL     1       4.236   4.764  -8.603  0.00  0.00    +0.019 A 
ATOM      9  N   UNL     1       0.752   6.290  -7.337  0.00  0.00    -0.225 NA
ATOM     10  C   UNL     1       4.070   5.353  -7.354  0.00  0.00    +0.005 A 
ATOM     11  C   UNL     1       1.173   7.109  -6.358  0.00  0.00    +0.104 A 
BRANCH   8  12
ATOM     12  C   UNL     1       5.289   5.201  -9.530  0.00  0.00    +0.002 A 
ATOM     13  C   UNL     1       5.061   5.407 -10.869  0.00  0.00    +0.001 A 
ATOM     14  C   UNL     1       6.128   5.711 -11.705  0.00  0.00    +0.011 A 
ATOM     15  C   UNL     1       7.345   6.111 -11.169  0.00  0.00    +0.058 A 
ATOM     16 CL   UNL     1       8.718   6.284 -12.255  0.00  0.00    -0.082 Cl
ATOM     17  C   UNL     1       7.544   6.054  -9.794  0.00  0.00    +0.011 A 
ATOM     18  C   UNL     1       6.571   5.424  -9.050  0.00  0.00    +0.001 A 
ENDBRANCH   8  12
ENDBRANCH   1   3
BRANCH   1  22
ATOM     19  C   UNL     1       2.291   5.814  -1.263  0.00  0.00    +0.118 A 
ATOM     20  C   UNL     1       2.233   6.460  -2.481  0.00  0.00    +0.162 A 
ATOM     21  F   UNL     1       0.993   6.863  -2.882  0.00  0.00    -0.203 F 
ATOM     22  C   UNL     1       3.184   6.258  -3.473  0.00  0.00    +0.095 A 
ATOM     23  C   UNL     1       4.254   5.454  -3.125  0.00  0.00    +0.145 A 
ATOM     24  F   UNL     1       5.182   5.116  -4.068  0.00  0.00    -0.204 F 
ATOM     25  C   UNL     1       4.449   4.992  -1.835  0.00  0.00    +0.031 A 
ATOM     26  C   UNL     1       3.444   5.150  -0.899  0.00  0.00    +0.023 A 
BRANCH  19  27
ATOM     27  N   UNL     1       1.140   5.734  -0.423  0.00  0.00    -0.098 NA
BRANCH  27  28
ATOM     28  S   UNL     1       0.560   7.116   0.414  0.00  0.00    +0.073 S 
ATOM     29  O   UNL     1       0.547   6.792   1.869  0.00  0.00    -0.153 OA
ATOM     30  O   UNL     1       1.499   8.253   0.096  0.00  0.00    -0.153 OA
BRANCH  28  31
ATOM     31  C   UNL     1      -1.048   7.501  -0.219  0.00  0.00    +0.174 C 
BRANCH  31  33
ATOM     32  C   UNL     1      -2.813   6.865  -1.838  0.00  0.00    +0.002 C 
ATOM     33  C   UNL     1      -1.586   6.379  -1.097  0.00  0.00    +0.027 C 
ENDBRANCH  31  33
ENDBRANCH  28  31
ENDBRANCH  27  28
ENDBRANCH  19  27
ENDBRANCH   1  22
TORSDOF 7
ENDMDL
MODEL 5
REMARK VINA RESULT:      -9.4      1.501      2.258
REMARK  Name = 
REMARK  7 active torsions:
REMARK  status: ('A' for Active; 'I' for Inactive)
REMARK    1  A    between atoms: C_2  and  C_3
REMARK    2  A    between atoms: C_3  and  S_4
REMARK    3  A    between atoms: S_4  and  N_7
REMARK    4  A    between atoms: N_7  and  C_8
REMARK    5  A    between atoms: C_13  and  C_14
REMARK    6  A    between atoms: C_14  and  C_16
REMARK    7  A    between atoms: C_22  and  C_23
REMARK                            x       y       z     vdW  Elec       q    Type
REMARK                         _______ _______ _______ _____ _____    ______ ____
ROOT
ATOM      1  C   UNL     1       2.467   4.848  -6.538  0.00  0.00    +0.202 C 
ATOM      2  O   UNL     1       2.455   3.629  -6.871  0.00  0.00    -0.286 OA
ENDROOT
BRANCH   1   3
ATOM      3  C   UNL     1       2.174   5.811  -7.585  0.00  0.00    +0.061 A 
ATOM      4  C   UNL     1       2.588   5.642  -8.903  0.00  0.00    +0.040 A 
ATOM      5  C   UNL     1       1.943   6.667  -9.584  0.00  0.00    +0.162 A 
ATOM      6  N   UNL     1       2.140   6.704 -10.924  0.00  0.00    -0.225 NA
ATOM      7  C   UNL     1       3.197   6.093 -11.512  0.00  0.00    +0.101 A 
ATOM      8  C   UNL     1       4.126   5.375 -10.766  0.00  0.00    +0.019 A 
ATOM      9  N   UNL     1       1.502   7.565  -8.669  0.00  0.00    -0.225 NA
ATOM     10  C   UNL     1       3.682   5.024  -9.496  0.00  0.00    +0.005 A 
ATOM     11  C   UNL     1       1.738   7.120  -7.423  0.00  0.00    +0.104 A 
BRANCH   8  12
ATOM     12  C   UNL     1       5.556   5.486 -11.082  0.00  0.00    +0.002 A 
ATOM     13  C   UNL     1       6.513   5.712 -10.123  0.00  0.00    +0.001 A 
ATOM     14  C   UNL     1       7.833   5.916 -10.509  0.00  0.00    +0.011 A 
ATOM     15  C   UNL     1       8.244   5.591 -11.796  0.00  0.00    +0.058 A 
ATOM     16 CL   UNL     1       9.864   6.060 -12.296  0.00  0.00    -0.082 Cl
ATOM     17  C   UNL     1       7.302   5.211 -12.744  0.00  0.00    +0.011 A 
ATOM     18  C   UNL     1       5.976   5.356 -12.398  0.00  0.00    +0.001 A 
ENDBRANCH   8  12
ENDBRANCH   1   3
BRANCH   1  22
ATOM     19  C   UNL     1       0.964   5.412  -3.130  0.00  0.00    +0.118 A 
ATOM     20  C   UNL     1       1.099   5.110  -4.470  0.00  0.00    +0.162 A 
ATOM     21  F   UNL     1       0.140   4.295  -4.996  0.00  0.00    -0.203 F 
ATOM     22  C   UNL     1       2.329   5.138  -5.115  0.00  0.00    +0.095 A 
ATOM     23  C   UNL     1       3.394   5.595  -4.360  0.00  0.00    +0.145 A 
ATOM     24  F   UNL     1       4.656   5.558  -4.878  0.00  0.00    -0.204 F 
ATOM     25  C   UNL     1       3.232   6.126  -3.092  0.00  0.00    +0.031 A 
ATOM     26  C   UNL     1       2.009   6.009  -2.458  0.00  0.00    +0.023 A 
BRANCH  19  27
ATOM     27  N   UNL     1      -0.203   5.020  -2.408  0.00  0.00    -0.098 NA
BRANCH  27  28
ATOM     28  S   UNL     1      -1.663   5.914  -2.535  0.00  0.00    +0.073 S 
ATOM     29  O   UNL     1      -1.713   6.508  -3.902  0.00  0.00    -0.153 OA
ATOM     30  O   UNL     1      -2.797   4.948  -2.297  0.00  0.00    -0.153 OA
BRANCH  28  31
ATOM     31  C   UNL     1      -1.667   7.136  -1.253  0.00  0.00    +0.174 C 
BRANCH  31  33
ATOM     32  C   UNL     1      -1.946   7.078   1.208  0.00  0.00    +0.002 C 
ATOM     33  C   UNL     1      -1.110   6.579   0.050  0.00  0.00    +0.027 C 
ENDBRANCH  31  33
ENDBRANCH  28  31
ENDBRANCH  27  28
ENDBRANCH  19  27
ENDBRANCH   1  22
TORSDOF 7
ENDMDL
MODEL 6
REMARK VINA RESULT:      -9.3      4.630      7.499
REMARK  Name = 
REMARK  7 active torsions:
REMARK  status: ('A' for Active; 'I' for Inactive)
REMARK    1  A    between atoms: C_2  and  C_3
REMARK    2  A    between atoms: C_3  and  S_4
REMARK    3  A    between atoms: S_4  and  N_7
REMARK    4  A    between atoms: N_7  and  C_8
REMARK    5  A    between atoms: C_13  and  C_14
REMARK    6  A    between atoms: C_14  and  C_16
REMARK    7  A    between atoms: C_22  and  C_23
REMARK                            x       y       z     vdW  Elec       q    Type
REMARK                         _______ _______ _______ _____ _____    ______ ____
ROOT
ATOM      1  C   UNL     1       1.643   4.940  -5.584  0.00  0.00    +0.202 C 
ATOM      2  O   UNL     1       1.897   3.730  -5.846  0.00  0.00    -0.286 OA
ENDROOT
BRANCH   1   3
ATOM      3  C   UNL     1       2.774   5.850  -5.549  0.00  0.00    +0.061 A 
ATOM      4  C   UNL     1       3.490   6.120  -4.387  0.00  0.00    +0.040 A 
ATOM      5  C   UNL     1       4.575   6.865  -4.836  0.00  0.00    +0.162 A 
ATOM      6  N   UNL     1       5.476   7.225  -3.891  0.00  0.00    -0.225 NA
ATOM      7  C   UNL     1       5.163   7.254  -2.573  0.00  0.00    +0.101 A 
ATOM      8  C   UNL     1       3.900   6.892  -2.120  0.00  0.00    +0.019 A 
ATOM      9  N   UNL     1       4.295   7.298  -6.089  0.00  0.00    -0.225 NA
ATOM     10  C   UNL     1       3.157   6.160  -3.040  0.00  0.00    +0.005 A 
ATOM     11  C   UNL     1       3.129   6.784  -6.515  0.00  0.00    +0.104 A 
BRANCH   8  12
ATOM     12  C   UNL     1       3.257   7.671  -1.053  0.00  0.00    +0.002 A 
ATOM     13  C   UNL     1       2.324   7.134  -0.199  0.00  0.00    +0.001 A 
ATOM     14  C   UNL     1       1.677   7.958   0.713  0.00  0.00    +0.011 A 
ATOM     15  C   UNL     1       2.173   9.228   0.984  0.00  0.00    +0.058 A 
ATOM     16 CL   UNL     1       1.206  10.304   1.984  0.00  0.00    -0.082 Cl
ATOM     17  C   UNL     1       3.224   9.732   0.226  0.00  0.00    +0.011 A 
ATOM     18  C   UNL     1       3.596   9.006  -0.883  0.00  0.00    +0.001 A 
ENDBRANCH   8  12
ENDBRANCH   1   3
BRANCH   1  22
ATOM     19  C   UNL     1      -1.833   6.229  -4.914  0.00  0.00    +0.118 A 
ATOM     20  C   UNL     1      -0.520   5.845  -4.734  0.00  0.00    +0.162 A 
ATOM     21  F   UNL     1       0.130   6.420  -3.681  0.00  0.00    -0.203 F 
ATOM     22  C   UNL     1       0.263   5.375  -5.781  0.00  0.00    +0.095 A 
ATOM     23  C   UNL     1      -0.385   5.210  -6.990  0.00  0.00    +0.145 A 
ATOM     24  F   UNL     1       0.328   4.852  -8.098  0.00  0.00    -0.204 F 
ATOM     25  C   UNL     1      -1.753   5.363  -7.127  0.00  0.00    +0.031 A 
ATOM     26  C   UNL     1      -2.483   5.905  -6.086  0.00  0.00    +0.023 A 
BRANCH  19  27
ATOM     27  N   UNL     1      -2.493   7.048  -3.948  0.00  0.00    -0.098 NA
BRANCH  27  28
ATOM     28  S   UNL     1      -3.080   6.381  -2.479  0.00  0.00    +0.073 S 
ATOM     29  O   UNL     1      -4.560   6.565  -2.457  0.00  0.00    -0.153 OA
ATOM     30  O   UNL     1      -2.692   4.923  -2.467  0.00  0.00    -0.153 OA
BRANCH  28  31
ATOM     31  C   UNL     1      -2.265   7.207  -1.141  0.00  0.00    +0.174 C 
BRANCH  31  33
ATOM     32  C   UNL     1      -1.746   6.759   1.240  0.00  0.00    +0.002 C 
ATOM     33  C   UNL     1      -1.646   6.213  -0.168  0.00  0.00    +0.027 C 
ENDBRANCH  31  33
ENDBRANCH  28  31
ENDBRANCH  27  28
ENDBRANCH  19  27
ENDBRANCH   1  22
TORSDOF 7
ENDMDL
MODEL 7
REMARK VINA RESULT:      -9.2      1.820      2.381
REMARK  Name = 
REMARK  7 active torsions:
REMARK  status: ('A' for Active; 'I' for Inactive)
REMARK    1  A    between atoms: C_2  and  C_3
REMARK    2  A    between atoms: C_3  and  S_4
REMARK    3  A    between atoms: S_4  and  N_7
REMARK    4  A    between atoms: N_7  and  C_8
REMARK    5  A    between atoms: C_13  and  C_14
REMARK    6  A    between atoms: C_14  and  C_16
REMARK    7  A    between atoms: C_22  and  C_23
REMARK                            x       y       z     vdW  Elec       q    Type
REMARK                         _______ _______ _______ _____ _____    ______ ____
ROOT
ATOM      1  C   UNL     1       2.657   4.873  -6.413  0.00  0.00    +0.202 C 
ATOM      2  O   UNL     1       2.379   3.645  -6.530  0.00  0.00    -0.286 OA
ENDROOT
BRANCH   1   3
ATOM      3  C   UNL     1       2.233   5.741  -7.498  0.00  0.00    +0.061 A 
ATOM      4  C   UNL     1       2.600   5.527  -8.823  0.00  0.00    +0.040 A 
ATOM      5  C   UNL     1       1.837   6.450  -9.528  0.00  0.00    +0.162 A 
ATOM      6  N   UNL     1       1.970   6.421 -10.876  0.00  0.00    -0.225 NA
ATOM      7  C   UNL     1       3.048   5.866 -11.481  0.00  0.00    +0.101 A 
ATOM      8  C   UNL     1       4.069   5.277 -10.743  0.00  0.00    +0.019 A 
ATOM      9  N   UNL     1       1.362   7.362  -8.645  0.00  0.00    -0.225 NA
ATOM     10  C   UNL     1       3.716   4.969  -9.434  0.00  0.00    +0.005 A 
ATOM     11  C   UNL     1       1.692   7.016  -7.389  0.00  0.00    +0.104 A 
BRANCH   8  12
ATOM     12  C   UNL     1       5.468   5.489 -11.137  0.00  0.00    +0.002 A 
ATOM     13  C   UNL     1       5.899   5.379 -12.436  0.00  0.00    +0.001 A 
ATOM     14  C   UNL     1       7.256   5.483 -12.717  0.00  0.00    +0.011 A 
ATOM     15  C   UNL     1       8.130   5.998 -11.768  0.00  0.00    +0.058 A 
ATOM     16 CL   UNL     1       9.857   5.915 -12.095  0.00  0.00    -0.082 Cl
ATOM     17  C   UNL     1       7.673   6.260 -10.482  0.00  0.00    +0.011 A 
ATOM     18  C   UNL     1       6.407   5.817 -10.169  0.00  0.00    +0.001 A 
ENDBRANCH   8  12
ENDBRANCH   1   3
BRANCH   1  22
ATOM     19  C   UNL     1       2.295   6.479  -3.025  0.00  0.00    +0.118 A 
ATOM     20  C   UNL     1       2.007   6.001  -4.287  0.00  0.00    +0.162 A 
ATOM     21  F   UNL     1       0.696   5.706  -4.526  0.00  0.00    -0.203 F 
ATOM     22  C   UNL     1       2.954   5.351  -5.067  0.00  0.00    +0.095 A 
ATOM     23  C   UNL     1       4.235   5.309  -4.548  0.00  0.00    +0.145 A 
ATOM     24  F   UNL     1       5.206   4.602  -5.196  0.00  0.00    -0.204 F 
ATOM     25  C   UNL     1       4.593   5.990  -3.397  0.00  0.00    +0.031 A 
ATOM     26  C   UNL     1       3.608   6.559  -2.611  0.00  0.00    +0.023 A 
BRANCH  19  27
ATOM     27  N   UNL     1       1.249   6.792  -2.106  0.00  0.00    -0.098 NA
BRANCH  27  28
ATOM     28  S   UNL     1       0.636   5.604  -1.029  0.00  0.00    +0.073 S 
ATOM     29  O   UNL     1      -0.426   4.844  -1.749  0.00  0.00    -0.153 OA
ATOM     30  O   UNL     1       1.794   4.721  -0.635  0.00  0.00    -0.153 OA
BRANCH  28  31
ATOM     31  C   UNL     1       0.028   6.435   0.412  0.00  0.00    +0.174 C 
BRANCH  31  33
ATOM     32  C   UNL     1      -1.840   7.796  -0.481  0.00  0.00    +0.002 C 
ATOM     33  C   UNL     1      -1.486   6.594   0.367  0.00  0.00    +0.027 C 
ENDBRANCH  31  33
ENDBRANCH  28  31
ENDBRANCH  27  28
ENDBRANCH  19  27
ENDBRANCH   1  22
TORSDOF 7
ENDMDL
MODEL 8
REMARK VINA RESULT:      -9.2      5.015      9.662
REMARK  Name = 
REMARK  7 active torsions:
REMARK  status: ('A' for Active; 'I' for Inactive)
REMARK    1  A    between atoms: C_2  and  C_3
REMARK    2  A    between atoms: C_3  and  S_4
REMARK    3  A    between atoms: S_4  and  N_7
REMARK    4  A    between atoms: N_7  and  C_8
REMARK    5  A    between atoms: C_13  and  C_14
REMARK    6  A    between atoms: C_14  and  C_16
REMARK    7  A    between atoms: C_22  and  C_23
REMARK                            x       y       z     vdW  Elec       q    Type
REMARK                         _______ _______ _______ _____ _____    ______ ____
ROOT
ATOM      1  C   UNL     1       1.456   5.748  -9.862  0.00  0.00    +0.202 C 
ATOM      2  O   UNL     1       0.500   4.953  -9.636  0.00  0.00    -0.286 OA
ENDROOT
BRANCH   1   3
ATOM      3  C   UNL     1       2.159   6.266  -8.702  0.00  0.00    +0.061 A 
ATOM      4  C   UNL     1       1.960   5.773  -7.416  0.00  0.00    +0.040 A 
ATOM      5  C   UNL     1       2.949   6.399  -6.667  0.00  0.00    +0.162 A 
ATOM      6  N   UNL     1       3.010   6.051  -5.359  0.00  0.00    -0.225 NA
ATOM      7  C   UNL     1       1.959   5.491  -4.714  0.00  0.00    +0.101 A 
ATOM      8  C   UNL     1       0.764   5.224  -5.373  0.00  0.00    +0.019 A 
ATOM      9  N   UNL     1       3.426   7.441  -7.391  0.00  0.00    -0.225 NA
ATOM     10  C   UNL     1       0.872   5.212  -6.759  0.00  0.00    +0.005 A 
ATOM     11  C   UNL     1       2.869   7.457  -8.614  0.00  0.00    +0.104 A 
BRANCH   8  12
ATOM     12  C   UNL     1      -0.515   5.489  -4.700  0.00  0.00    +0.002 A 
ATOM     13  C   UNL     1      -1.674   5.759  -5.386  0.00  0.00    +0.001 A 
ATOM     14  C   UNL     1      -2.819   6.110  -4.682  0.00  0.00    +0.011 A 
ATOM     15  C   UNL     1      -2.893   5.893  -3.312  0.00  0.00    +0.058 A 
ATOM     16 CL   UNL     1      -4.275   6.542  -2.439  0.00  0.00    -0.082 Cl
ATOM     17  C   UNL     1      -1.763   5.471  -2.620  0.00  0.00    +0.011 A 
ATOM     18  C   UNL     1      -0.573   5.468  -3.314  0.00  0.00    +0.001 A 
ENDBRANCH   8  12
ENDBRANCH   1   3
BRANCH   1  22
ATOM     19  C   UNL     1       3.916   5.436 -12.698  0.00  0.00    +0.118 A 
ATOM     20  C   UNL     1       3.368   5.436 -11.431  0.00  0.00    +0.162 A 
ATOM     21  F   UNL     1       4.005   4.661 -10.507  0.00  0.00    -0.203 F 
ATOM     22  C   UNL     1       2.027   5.718 -11.205  0.00  0.00    +0.095 A 
ATOM     23  C   UNL     1       1.298   6.107 -12.313  0.00  0.00    +0.145 A 
ATOM     24  F   UNL     1      -0.048   6.302 -12.204  0.00  0.00    -0.204 F 
ATOM     25  C   UNL     1       1.886   6.341 -13.544  0.00  0.00    +0.031 A 
ATOM     26  C   UNL     1       3.203   5.976 -13.748  0.00  0.00    +0.023 A 
BRANCH  19  27
ATOM     27  N   UNL     1       5.162   4.789 -12.954  0.00  0.00    -0.098 NA
BRANCH  27  28
ATOM     28  S   UNL     1       6.629   5.680 -12.981  0.00  0.00    +0.073 S 
ATOM     29  O   UNL     1       7.751   4.711 -12.820  0.00  0.00    -0.153 OA
ATOM     30  O   UNL     1       6.689   6.398 -14.306  0.00  0.00    -0.153 OA
BRANCH  28  31
ATOM     31  C   UNL     1       6.564   6.877 -11.678  0.00  0.00    +0.174 C 
BRANCH  31  33
ATOM     32  C   UNL     1       7.020   5.861  -9.464  0.00  0.00    +0.002 C 
ATOM     33  C   UNL     1       7.633   6.614 -10.625  0.00  0.00    +0.027 C 
ENDBRANCH  31  33
ENDBRANCH  28  31
ENDBRANCH  27  28
ENDBRANCH  19  27
ENDBRANCH   1  22
TORSDOF 7
ENDMDL
MODEL 9
REMARK VINA RESULT:      -9.1      2.539      4.063
REMARK  Name = 
REMARK  7 active torsions:
REMARK  status: ('A' for Active; 'I' for Inactive)
REMARK    1  A    between atoms: C_2  and  C_3
REMARK    2  A    between atoms: C_3  and  S_4
REMARK    3  A    between atoms: S_4  and  N_7
REMARK    4  A    between atoms: N_7  and  C_8
REMARK    5  A    between atoms: C_13  and  C_14
REMARK    6  A    between atoms: C_14  and  C_16
REMARK    7  A    between atoms: C_22  and  C_23
REMARK                            x       y       z     vdW  Elec       q    Type
REMARK                         _______ _______ _______ _____ _____    ______ ____
ROOT
ATOM      1  C   UNL     1       2.531   5.588  -6.071  0.00  0.00    +0.202 C 
ATOM      2  O   UNL     1       1.821   4.614  -5.692  0.00  0.00    -0.286 OA
ENDROOT
BRANCH   1   3
ATOM      3  C   UNL     1       2.129   6.247  -7.302  0.00  0.00    +0.061 A 
ATOM      4  C   UNL     1       2.536   5.810  -8.558  0.00  0.00    +0.040 A 
ATOM      5  C   UNL     1       1.783   6.583  -9.435  0.00  0.00    +0.162 A 
ATOM      6  N   UNL     1       1.954   6.320 -10.752  0.00  0.00    -0.225 NA
ATOM      7  C   UNL     1       3.055   5.685 -11.222  0.00  0.00    +0.101 A 
ATOM      8  C   UNL     1       4.061   5.251 -10.366  0.00  0.00    +0.019 A 
ATOM      9  N   UNL     1       1.273   7.627  -8.738  0.00  0.00    -0.225 NA
ATOM     10  C   UNL     1       3.674   5.171  -9.033  0.00  0.00    +0.005 A 
ATOM     11  C   UNL     1       1.571   7.512  -7.433  0.00  0.00    +0.104 A 
BRANCH   8  12
ATOM     12  C   UNL     1       5.468   5.412 -10.755  0.00  0.00    +0.002 A 
ATOM     13  C   UNL     1       6.458   5.713  -9.851  0.00  0.00    +0.001 A 
ATOM     14  C   UNL     1       7.747   5.961 -10.307  0.00  0.00    +0.011 A 
ATOM     15  C   UNL     1       8.112   5.609 -11.601  0.00  0.00    +0.058 A 
ATOM     16 CL   UNL     1       9.684   6.130 -12.194  0.00  0.00    -0.082 Cl
ATOM     17  C   UNL     1       7.144   5.156 -12.490  0.00  0.00    +0.011 A 
ATOM     18  C   UNL     1       5.831   5.255 -12.085  0.00  0.00    +0.001 A 
ENDBRANCH   8  12
ENDBRANCH   1   3
BRANCH   1  22
ATOM     19  C   UNL     1       3.628   7.445  -2.982  0.00  0.00    +0.118 A 
ATOM     20  C   UNL     1       2.837   6.825  -3.927  0.00  0.00    +0.162 A 
ATOM     21  F   UNL     1       1.632   6.362  -3.484  0.00  0.00    -0.203 F 
ATOM     22  C   UNL     1       3.371   6.217  -5.057  0.00  0.00    +0.095 A 
ATOM     23  C   UNL     1       4.734   6.369  -5.234  0.00  0.00    +0.145 A 
ATOM     24  F   UNL     1       5.360   5.721  -6.259  0.00  0.00    -0.204 F 
ATOM     25  C   UNL     1       5.502   7.188  -4.425  0.00  0.00    +0.031 A 
ATOM     26  C   UNL     1       4.951   7.711  -3.270  0.00  0.00    +0.023 A 
BRANCH  19  27
ATOM     27  N   UNL     1       3.125   7.719  -1.675  0.00  0.00    -0.098 NA
BRANCH  27  28
ATOM     28  S   UNL     1       3.480   6.679  -0.356  0.00  0.00    +0.073 S 
ATOM     29  O   UNL     1       2.346   6.766   0.609  0.00  0.00    -0.153 OA
ATOM     30  O   UNL     1       3.638   5.287  -0.918  0.00  0.00    -0.153 OA
BRANCH  28  31
ATOM     31  C   UNL     1       5.021   7.196   0.346  0.00  0.00    +0.174 C 
BRANCH  31  33
ATOM     32  C   UNL     1       5.549   8.753   2.200  0.00  0.00    +0.002 C 
ATOM     33  C   UNL     1       4.899   7.434   1.845  0.00  0.00    +0.027 C 
ENDBRANCH  31  33
ENDBRANCH  28  31
ENDBRANCH  27  28
ENDBRANCH  19  27
ENDBRANCH   1  22
TORSDOF 7
ENDMDL
