MODEL 1
REMARK VINA RESULT:      -8.7      0.000      0.000
REMARK  Name = 
REMARK  3 active torsions:
REMARK  status: ('A' for Active; 'I' for Inactive)
REMARK    1  A    between atoms: N_10  and  N_11
REMARK    2  A    between atoms: C_12  and  C_14
REMARK    3  A    between atoms: C_19  and  S_20
REMARK                            x       y       z     vdW  Elec       q    Type
REMARK                         _______ _______ _______ _____ _____    ______ ____
ROOT
ATOM      1  N   UNL     1       3.455   6.434  -8.176  0.00  0.00    -0.106 NA
ATOM      2  C   UNL     1       4.143   5.363  -8.825  0.00  0.00    +0.283 C 
ATOM      3  O   UNL     1       3.781   4.185  -8.635  0.00  0.00    -0.267 OA
ENDROOT
BRANCH   1   6
ATOM      4  C   UNL     1       2.789   4.536  -5.367  0.00  0.00    +0.024 C 
ATOM      5  C   UNL     1       3.224   6.106  -5.629  0.00  0.00    +0.099 C 
ATOM      6  N   UNL     1       2.646   6.096  -7.094  0.00  0.00    -0.219 N 
ATOM      7  C   UNL     1       1.290   5.792  -6.985  0.00  0.00    +0.063 A 
ATOM      8  C   UNL     1       0.850   5.803  -5.689  0.00  0.00    -0.006 A 
ATOM      9  C   UNL     1      -0.427   5.401  -5.434  0.00  0.00    -0.003 A 
ATOM     10  C   UNL     1      -1.244   4.994  -6.471  0.00  0.00    -0.000 A 
ATOM     11  C   UNL     1      -0.986   5.510  -7.736  0.00  0.00    +0.001 A 
ATOM     12  C   UNL     1       0.357   5.728  -8.017  0.00  0.00    +0.016 A 
ATOM     13  C   UNL     1       1.820   6.682  -4.991  0.00  0.00    +0.049 C 
ENDBRANCH   1   6
BRANCH   2  14
ATOM     14  C   UNL     1       5.282   5.659  -9.669  0.00  0.00    +0.058 A 
ATOM     15  C   UNL     1       5.153   5.853 -11.034  0.00  0.00    +0.025 A 
ATOM     16  C   UNL     1       6.266   5.772 -11.834  0.00  0.00    +0.136 A 
ATOM     17  C   UNL     1       7.503   5.778 -11.219  0.00  0.00    +0.076 A 
ATOM     18 CL   UNL     1       8.953   5.590 -12.195  0.00  0.00    -0.081 Cl
ATOM     19  C   UNL     1       7.606   5.948  -9.854  0.00  0.00    +0.013 A 
ATOM     20  C   UNL     1       6.502   5.851  -9.052  0.00  0.00    +0.006 A 
BRANCH  16  21
ATOM     21  S   UNL     1       6.201   5.989 -13.572  0.00  0.00    +0.094 S 
ATOM     22  O   UNL     1       7.102   4.950 -14.200  0.00  0.00    -0.150 OA
ATOM     23  O   UNL     1       6.691   7.369 -13.918  0.00  0.00    -0.150 OA
ATOM     24  N   UNL     1       4.597   5.731 -14.140  0.00  0.00    +0.039 NA
ENDBRANCH  16  21
ENDBRANCH   2  14
TORSDOF 3
ENDMDL
MODEL 2
REMARK VINA RESULT:      -8.6      3.412      4.022
REMARK  Name = 
REMARK  3 active torsions:
REMARK  status: ('A' for Active; 'I' for Inactive)
REMARK    1  A    between atoms: N_10  and  N_11
REMARK    2  A    between atoms: C_12  and  C_14
REMARK    3  A    between atoms: C_19  and  S_20
REMARK                            x       y       z     vdW  Elec       q    Type
REMARK                         _______ _______ _______ _____ _____    ______ ____
ROOT
ATOM      1  N   UNL     1       1.198   5.376  -8.485  0.00  0.00    -0.106 NA
ATOM      2  C   UNL     1       1.418   6.555  -9.262  0.00  0.00    +0.283 C 
ATOM      3  O   UNL     1       1.710   7.628  -8.696  0.00  0.00    -0.267 OA
ENDROOT
BRANCH   1   6
ATOM      4  C   UNL     1       1.774   4.545  -5.182  0.00  0.00    +0.024 C 
ATOM      5  C   UNL     1       2.169   5.829  -6.139  0.00  0.00    +0.099 C 
ATOM      6  N   UNL     1       0.970   5.555  -7.123  0.00  0.00    -0.219 N 
ATOM      7  C   UNL     1      -0.196   5.629  -6.360  0.00  0.00    +0.063 A 
ATOM      8  C   UNL     1       0.031   6.102  -5.096  0.00  0.00    -0.006 A 
ATOM      9  C   UNL     1      -1.004   6.105  -4.210  0.00  0.00    -0.003 A 
ATOM     10  C   UNL     1      -2.246   5.638  -4.594  0.00  0.00    -0.000 A 
ATOM     11  C   UNL     1      -2.571   5.707  -5.944  0.00  0.00    +0.001 A 
ATOM     12  C   UNL     1      -1.507   5.509  -6.814  0.00  0.00    +0.016 A 
ATOM     13  C   UNL     1       1.288   6.879  -5.227  0.00  0.00    +0.049 C 
ENDBRANCH   1   6
BRANCH   2  14
ATOM     14  C   UNL     1       1.263   6.497 -10.699  0.00  0.00    +0.058 A 
ATOM     15  C   UNL     1       2.157   5.816 -11.508  0.00  0.00    +0.025 A 
ATOM     16  C   UNL     1       2.184   6.079 -12.856  0.00  0.00    +0.136 A 
ATOM     17  C   UNL     1       1.135   6.802 -13.391  0.00  0.00    +0.076 A 
ATOM     18 CL   UNL     1       1.167   7.236 -15.094  0.00  0.00    -0.081 Cl
ATOM     19  C   UNL     1       0.061   7.165 -12.605  0.00  0.00    +0.013 A 
ATOM     20  C   UNL     1       0.123   7.056 -11.243  0.00  0.00    +0.006 A 
BRANCH  16  21
ATOM     21  S   UNL     1       3.288   5.278 -13.955  0.00  0.00    +0.094 S 
ATOM     22  O   UNL     1       3.677   6.275 -15.024  0.00  0.00    -0.150 OA
ATOM     23  O   UNL     1       2.596   4.099 -14.582  0.00  0.00    -0.150 OA
ATOM     24  N   UNL     1       4.713   4.798 -13.117  0.00  0.00    +0.039 NA
ENDBRANCH  16  21
ENDBRANCH   2  14
TORSDOF 3
ENDMDL
MODEL 3
REMARK VINA RESULT:      -8.5      1.212      2.602
REMARK  Name = 
REMARK  3 active torsions:
REMARK  status: ('A' for Active; 'I' for Inactive)
REMARK    1  A    between atoms: N_10  and  N_11
REMARK    2  A    between atoms: C_12  and  C_14
REMARK    3  A    between atoms: C_19  and  S_20
REMARK                            x       y       z     vdW  Elec       q    Type
REMARK                         _______ _______ _______ _____ _____    ______ ____
ROOT
ATOM      1  N   UNL     1       3.534   6.391  -8.119  0.00  0.00    -0.106 NA
ATOM      2  C   UNL     1       4.209   5.338  -8.811  0.00  0.00    +0.283 C 
ATOM      3  O   UNL     1       3.860   4.153  -8.633  0.00  0.00    -0.267 OA
ENDROOT
BRANCH   1   6
ATOM      4  C   UNL     1       0.765   6.793  -6.094  0.00  0.00    +0.024 C 
ATOM      5  C   UNL     1       1.241   5.659  -7.193  0.00  0.00    +0.099 C 
ATOM      6  N   UNL     1       2.763   6.026  -7.019  0.00  0.00    -0.219 N 
ATOM      7  C   UNL     1       3.071   5.819  -5.674  0.00  0.00    +0.063 A 
ATOM      8  C   UNL     1       2.064   5.189  -4.995  0.00  0.00    -0.006 A 
ATOM      9  C   UNL     1       2.188   5.039  -3.646  0.00  0.00    -0.003 A 
ATOM     10  C   UNL     1       3.309   5.517  -2.996  0.00  0.00    -0.000 A 
ATOM     11  C   UNL     1       4.485   5.618  -3.730  0.00  0.00    +0.001 A 
ATOM     12  C   UNL     1       4.315   5.960  -5.066  0.00  0.00    +0.016 A 
ATOM     13  C   UNL     1       1.312   4.473  -6.054  0.00  0.00    +0.049 C 
ENDBRANCH   1   6
BRANCH   2  14
ATOM     14  C   UNL     1       5.317   5.658  -9.684  0.00  0.00    +0.058 A 
ATOM     15  C   UNL     1       5.157   5.801 -11.053  0.00  0.00    +0.025 A 
ATOM     16  C   UNL     1       6.259   5.745 -11.870  0.00  0.00    +0.136 A 
ATOM     17  C   UNL     1       7.504   5.829 -11.278  0.00  0.00    +0.076 A 
ATOM     18 CL   UNL     1       8.945   5.677 -12.274  0.00  0.00    -0.081 Cl
ATOM     19  C   UNL     1       7.622   6.049  -9.922  0.00  0.00    +0.013 A 
ATOM     20  C   UNL     1       6.538   5.927  -9.097  0.00  0.00    +0.006 A 
BRANCH  16  21
ATOM     21  S   UNL     1       6.154   5.903 -13.612  0.00  0.00    +0.094 S 
ATOM     22  O   UNL     1       4.740   5.554 -14.021  0.00  0.00    -0.150 OA
ATOM     23  O   UNL     1       7.123   4.948 -14.256  0.00  0.00    -0.150 OA
ATOM     24  N   UNL     1       6.469   7.529 -14.080  0.00  0.00    +0.039 NA
ENDBRANCH  16  21
ENDBRANCH   2  14
TORSDOF 3
ENDMDL
MODEL 4
REMARK VINA RESULT:      -8.3      4.955      8.132
REMARK  Name = 
REMARK  3 active torsions:
REMARK  status: ('A' for Active; 'I' for Inactive)
REMARK    1  A    between atoms: N_10  and  N_11
REMARK    2  A    between atoms: C_12  and  C_14
REMARK    3  A    between atoms: C_19  and  S_20
REMARK                            x       y       z     vdW  Elec       q    Type
REMARK                         _______ _______ _______ _____ _____    ______ ____
ROOT
ATOM      1  N   UNL     1       1.657   4.840  -7.502  0.00  0.00    -0.106 NA
ATOM      2  C   UNL     1       2.024   5.884  -6.599  0.00  0.00    +0.283 C 
ATOM      3  O   UNL     1       1.932   7.076  -6.956  0.00  0.00    -0.267 OA
ENDROOT
BRANCH   1   6
ATOM      4  C   UNL     1       0.284   4.400 -10.642  0.00  0.00    +0.024 C 
ATOM      5  C   UNL     1       0.157   5.558  -9.474  0.00  0.00    +0.099 C 
ATOM      6  N   UNL     1       1.553   5.181  -8.849  0.00  0.00    -0.219 N 
ATOM      7  C   UNL     1       2.501   5.354  -9.856  0.00  0.00    +0.063 A 
ATOM      8  C   UNL     1       1.985   5.972 -10.963  0.00  0.00    -0.006 A 
ATOM      9  C   UNL     1       2.776   6.090 -12.067  0.00  0.00    -0.003 A 
ATOM     10  C   UNL     1       4.064   5.591 -12.053  0.00  0.00    -0.000 A 
ATOM     11  C   UNL     1       4.706   5.503 -10.822  0.00  0.00    +0.001 A 
ATOM     12  C   UNL     1       3.880   5.194  -9.750  0.00  0.00    +0.016 A 
ATOM     13  C   UNL     1       0.813   6.717 -10.443  0.00  0.00    +0.049 C 
ENDBRANCH   1   6
BRANCH   2  14
ATOM     14  C   UNL     1       2.535   5.543  -5.289  0.00  0.00    +0.058 A 
ATOM     15  C   UNL     1       1.704   5.405  -4.189  0.00  0.00    +0.025 A 
ATOM     16  C   UNL     1       2.245   5.439  -2.927  0.00  0.00    +0.136 A 
ATOM     17  C   UNL     1       3.617   5.330  -2.812  0.00  0.00    +0.076 A 
ATOM     18 CL   UNL     1       4.362   5.454  -1.225  0.00  0.00    -0.081 Cl
ATOM     19  C   UNL     1       4.398   5.106  -3.926  0.00  0.00    +0.013 A 
ATOM     20  C   UNL     1       3.880   5.248  -5.184  0.00  0.00    +0.006 A 
BRANCH  16  21
ATOM     21  S   UNL     1       1.274   5.286  -1.477  0.00  0.00    +0.094 S 
ATOM     22  O   UNL     1       1.330   6.608  -0.745  0.00  0.00    -0.150 OA
ATOM     23  O   UNL     1       1.844   4.196  -0.611  0.00  0.00    -0.150 OA
ATOM     24  N   UNL     1      -0.365   4.966  -1.894  0.00  0.00    +0.039 NA
ENDBRANCH  16  21
ENDBRANCH   2  14
TORSDOF 3
ENDMDL
MODEL 5
REMARK VINA RESULT:      -8.3      3.964      7.966
REMARK  Name = 
REMARK  3 active torsions:
REMARK  status: ('A' for Active; 'I' for Inactive)
REMARK    1  A    between atoms: N_10  and  N_11
REMARK    2  A    between atoms: C_12  and  C_14
REMARK    3  A    between atoms: C_19  and  S_20
REMARK                            x       y       z     vdW  Elec       q    Type
REMARK                         _______ _______ _______ _____ _____    ______ ____
ROOT
ATOM      1  N   UNL     1       4.589   6.571  -9.367  0.00  0.00    -0.106 NA
ATOM      2  C   UNL     1       3.825   5.433  -8.964  0.00  0.00    +0.283 C 
ATOM      3  O   UNL     1       4.309   4.288  -9.075  0.00  0.00    -0.267 OA
ENDROOT
BRANCH   1   6
ATOM      4  C   UNL     1       7.703   7.435 -10.588  0.00  0.00    +0.024 C 
ATOM      5  C   UNL     1       7.140   6.256  -9.580  0.00  0.00    +0.099 C 
ATOM      6  N   UNL     1       5.689   6.332 -10.187  0.00  0.00    -0.219 N 
ATOM      7  C   UNL     1       5.810   6.042 -11.546  0.00  0.00    +0.063 A 
ATOM      8  C   UNL     1       7.060   5.595 -11.879  0.00  0.00    -0.006 A 
ATOM      9  C   UNL     1       7.346   5.395 -13.197  0.00  0.00    -0.003 A 
ATOM     10  C   UNL     1       6.388   5.644 -14.160  0.00  0.00    -0.000 A 
ATOM     11  C   UNL     1       5.053   5.541 -13.781  0.00  0.00    +0.001 A 
ATOM     12  C   UNL     1       4.781   5.937 -12.479  0.00  0.00    +0.016 A 
ATOM     13  C   UNL     1       7.596   5.053 -10.607  0.00  0.00    +0.049 C 
ENDBRANCH   1   6
BRANCH   2  14
ATOM     14  C   UNL     1       2.480   5.621  -8.467  0.00  0.00    +0.058 A 
ATOM     15  C   UNL     1       2.228   6.055  -7.175  0.00  0.00    +0.025 A 
ATOM     16  C   UNL     1       0.977   5.877  -6.636  0.00  0.00    +0.136 A 
ATOM     17  C   UNL     1      -0.049   5.530  -7.492  0.00  0.00    +0.076 A 
ATOM     18 CL   UNL     1      -1.648   5.209  -6.837  0.00  0.00    -0.081 Cl
ATOM     19  C   UNL     1       0.168   5.454  -8.852  0.00  0.00    +0.013 A 
ATOM     20  C   UNL     1       1.438   5.457  -9.359  0.00  0.00    +0.006 A 
BRANCH  16  21
ATOM     21  S   UNL     1       0.568   6.381  -5.009  0.00  0.00    +0.094 S 
ATOM     22  O   UNL     1      -0.010   5.184  -4.288  0.00  0.00    -0.150 OA
ATOM     23  O   UNL     1      -0.454   7.484  -5.072  0.00  0.00    -0.150 OA
ATOM     24  N   UNL     1       1.985   6.885  -4.172  0.00  0.00    +0.039 NA
ENDBRANCH  16  21
ENDBRANCH   2  14
TORSDOF 3
ENDMDL
MODEL 6
REMARK VINA RESULT:      -8.2      3.926      7.947
REMARK  Name = 
REMARK  3 active torsions:
REMARK  status: ('A' for Active; 'I' for Inactive)
REMARK    1  A    between atoms: N_10  and  N_11
REMARK    2  A    between atoms: C_12  and  C_14
REMARK    3  A    between atoms: C_19  and  S_20
REMARK                            x       y       z     vdW  Elec       q    Type
REMARK                         _______ _______ _______ _____ _____    ______ ____
ROOT
ATOM      1  N   UNL     1       5.006   5.377  -9.193  0.00  0.00    -0.106 NA
ATOM      2  C   UNL     1       4.004   6.362  -8.936  0.00  0.00    +0.283 C 
ATOM      3  O   UNL     1       3.811   7.281  -9.757  0.00  0.00    -0.267 OA
ENDROOT
BRANCH   1   6
ATOM      4  C   UNL     1       7.341   7.513 -10.578  0.00  0.00    +0.024 C 
ATOM      5  C   UNL     1       7.421   6.088  -9.752  0.00  0.00    +0.099 C 
ATOM      6  N   UNL     1       5.956   5.684 -10.164  0.00  0.00    -0.219 N 
ATOM      7  C   UNL     1       5.931   5.643 -11.558  0.00  0.00    +0.063 A 
ATOM      8  C   UNL     1       7.179   5.753 -12.110  0.00  0.00    -0.006 A 
ATOM      9  C   UNL     1       7.281   5.852 -13.465  0.00  0.00    -0.003 A 
ATOM     10  C   UNL     1       6.144   5.841 -14.248  0.00  0.00    -0.000 A 
ATOM     11  C   UNL     1       5.023   5.189 -13.746  0.00  0.00    +0.001 A 
ATOM     12  C   UNL     1       4.861   5.277 -12.369  0.00  0.00    +0.016 A 
ATOM     13  C   UNL     1       8.088   5.295 -11.031  0.00  0.00    +0.049 C 
ENDBRANCH   1   6
BRANCH   2  14
ATOM     14  C   UNL     1       3.249   6.303  -7.703  0.00  0.00    +0.058 A 
ATOM     15  C   UNL     1       3.857   6.405  -6.463  0.00  0.00    +0.025 A 
ATOM     16  C   UNL     1       3.179   5.990  -5.343  0.00  0.00    +0.136 A 
ATOM     17  C   UNL     1       1.824   5.752  -5.463  0.00  0.00    +0.076 A 
ATOM     18 CL   UNL     1       0.929   5.140  -4.079  0.00  0.00    -0.081 Cl
ATOM     19  C   UNL     1       1.170   6.009  -6.650  0.00  0.00    +0.013 A 
ATOM     20  C   UNL     1       1.872   6.248  -7.799  0.00  0.00    +0.006 A 
BRANCH  16  21
ATOM     21  S   UNL     1       3.870   6.069  -3.735  0.00  0.00    +0.094 S 
ATOM     22  O   UNL     1       5.295   6.557  -3.871  0.00  0.00    -0.150 OA
ATOM     23  O   UNL     1       3.856   4.695  -3.121  0.00  0.00    -0.150 OA
ATOM     24  N   UNL     1       3.000   7.197  -2.771  0.00  0.00    +0.039 NA
ENDBRANCH  16  21
ENDBRANCH   2  14
TORSDOF 3
ENDMDL
MODEL 7
REMARK VINA RESULT:      -8.2      2.095      3.417
REMARK  Name = 
REMARK  3 active torsions:
REMARK  status: ('A' for Active; 'I' for Inactive)
REMARK    1  A    between atoms: N_10  and  N_11
REMARK    2  A    between atoms: C_12  and  C_14
REMARK    3  A    between atoms: C_19  and  S_20
REMARK                            x       y       z     vdW  Elec       q    Type
REMARK                         _______ _______ _______ _____ _____    ______ ____
ROOT
ATOM      1  N   UNL     1       2.135   6.398  -7.935  0.00  0.00    -0.106 NA
ATOM      2  C   UNL     1       2.837   5.270  -8.462  0.00  0.00    +0.283 C 
ATOM      3  O   UNL     1       2.856   4.197  -7.826  0.00  0.00    -0.267 OA
ENDROOT
BRANCH   1   6
ATOM      4  C   UNL     1       0.008   7.127  -5.313  0.00  0.00    +0.024 C 
ATOM      5  C   UNL     1       0.432   5.748  -6.111  0.00  0.00    +0.099 C 
ATOM      6  N   UNL     1       1.805   6.357  -6.583  0.00  0.00    -0.219 N 
ATOM      7  C   UNL     1       2.507   6.698  -5.427  0.00  0.00    +0.063 A 
ATOM      8  C   UNL     1       1.909   6.228  -4.290  0.00  0.00    -0.006 A 
ATOM      9  C   UNL     1       2.428   6.597  -3.085  0.00  0.00    -0.003 A 
ATOM     10  C   UNL     1       3.530   7.428  -3.030  0.00  0.00    -0.000 A 
ATOM     11  C   UNL     1       4.401   7.414  -4.114  0.00  0.00    +0.001 A 
ATOM     12  C   UNL     1       3.796   7.219  -5.349  0.00  0.00    +0.016 A 
ATOM     13  C   UNL     1       1.098   5.079  -4.763  0.00  0.00    +0.049 C 
ENDBRANCH   1   6
BRANCH   2  14
ATOM     14  C   UNL     1       3.553   5.400  -9.712  0.00  0.00    +0.058 A 
ATOM     15  C   UNL     1       4.934   5.310  -9.781  0.00  0.00    +0.025 A 
ATOM     16  C   UNL     1       5.587   5.787 -10.892  0.00  0.00    +0.136 A 
ATOM     17  C   UNL     1       4.827   6.080 -12.007  0.00  0.00    +0.076 A 
ATOM     18 CL   UNL     1       5.606   6.773 -13.423  0.00  0.00    -0.081 Cl
ATOM     19  C   UNL     1       3.474   5.817 -12.023  0.00  0.00    +0.013 A 
ATOM     20  C   UNL     1       2.807   5.512 -10.869  0.00  0.00    +0.006 A 
BRANCH  16  21
ATOM     21  S   UNL     1       7.329   5.728 -11.063  0.00  0.00    +0.094 S 
ATOM     22  O   UNL     1       7.899   5.165  -9.780  0.00  0.00    -0.150 OA
ATOM     23  O   UNL     1       7.853   7.120 -11.290  0.00  0.00    -0.150 OA
ATOM     24  N   UNL     1       7.761   4.676 -12.355  0.00  0.00    +0.039 NA
ENDBRANCH  16  21
ENDBRANCH   2  14
TORSDOF 3
ENDMDL
MODEL 8
REMARK VINA RESULT:      -8.2      3.278      4.491
REMARK  Name = 
REMARK  3 active torsions:
REMARK  status: ('A' for Active; 'I' for Inactive)
REMARK    1  A    between atoms: N_10  and  N_11
REMARK    2  A    between atoms: C_12  and  C_14
REMARK    3  A    between atoms: C_19  and  S_20
REMARK                            x       y       z     vdW  Elec       q    Type
REMARK                         _______ _______ _______ _____ _____    ______ ____
ROOT
ATOM      1  N   UNL     1       1.748   5.537  -8.175  0.00  0.00    -0.106 NA
ATOM      2  C   UNL     1       1.733   6.655  -9.064  0.00  0.00    +0.283 C 
ATOM      3  O   UNL     1       1.913   7.806  -8.619  0.00  0.00    -0.267 OA
ENDROOT
BRANCH   1   6
ATOM      4  C   UNL     1       0.105   7.059  -5.545  0.00  0.00    +0.024 C 
ATOM      5  C   UNL     1       0.257   5.503  -6.071  0.00  0.00    +0.099 C 
ATOM      6  N   UNL     1       1.609   5.812  -6.817  0.00  0.00    -0.219 N 
ATOM      7  C   UNL     1       2.501   6.276  -5.849  0.00  0.00    +0.063 A 
ATOM      8  C   UNL     1       2.020   6.128  -4.577  0.00  0.00    -0.006 A 
ATOM      9  C   UNL     1       2.740   6.655  -3.547  0.00  0.00    -0.003 A 
ATOM     10  C   UNL     1       3.924   7.320  -3.798  0.00  0.00    -0.000 A 
ATOM     11  C   UNL     1       4.627   6.971  -4.946  0.00  0.00    +0.001 A 
ATOM     12  C   UNL     1       3.837   6.620  -6.033  0.00  0.00    +0.016 A 
ATOM     13  C   UNL     1       1.028   5.031  -4.695  0.00  0.00    +0.049 C 
ENDBRANCH   1   6
BRANCH   2  14
ATOM     14  C   UNL     1       1.470   6.440 -10.471  0.00  0.00    +0.058 A 
ATOM     15  C   UNL     1       2.390   5.824 -11.304  0.00  0.00    +0.025 A 
ATOM     16  C   UNL     1       2.264   5.961 -12.665  0.00  0.00    +0.136 A 
ATOM     17  C   UNL     1       1.075   6.468 -13.153  0.00  0.00    +0.076 A 
ATOM     18 CL   UNL     1       0.899   6.740 -14.881  0.00  0.00    -0.081 Cl
ATOM     19  C   UNL     1       0.027   6.742 -12.300  0.00  0.00    +0.013 A 
ATOM     20  C   UNL     1       0.217   6.772 -10.946  0.00  0.00    +0.006 A 
BRANCH  16  21
ATOM     21  S   UNL     1       3.384   5.231 -13.797  0.00  0.00    +0.094 S 
ATOM     22  O   UNL     1       2.668   4.088 -14.481  0.00  0.00    -0.150 OA
ATOM     23  O   UNL     1       4.580   4.710 -13.046  0.00  0.00    -0.150 OA
ATOM     24  N   UNL     1       3.845   6.377 -14.995  0.00  0.00    +0.039 NA
ENDBRANCH  16  21
ENDBRANCH   2  14
TORSDOF 3
ENDMDL
MODEL 9
REMARK VINA RESULT:      -8.2      5.215      8.572
REMARK  Name = 
REMARK  3 active torsions:
REMARK  status: ('A' for Active; 'I' for Inactive)
REMARK    1  A    between atoms: N_10  and  N_11
REMARK    2  A    between atoms: C_12  and  C_14
REMARK    3  A    between atoms: C_19  and  S_20
REMARK                            x       y       z     vdW  Elec       q    Type
REMARK                         _______ _______ _______ _____ _____    ______ ____
ROOT
ATOM      1  N   UNL     1       1.320   6.416  -7.740  0.00  0.00    -0.106 NA
ATOM      2  C   UNL     1       1.558   5.292  -6.891  0.00  0.00    +0.283 C 
ATOM      3  O   UNL     1       2.076   4.258  -7.357  0.00  0.00    -0.267 OA
ENDROOT
BRANCH   1   6
ATOM      4  C   UNL     1       0.562   4.482 -10.501  0.00  0.00    +0.024 C 
ATOM      5  C   UNL     1       0.014   5.920  -9.908  0.00  0.00    +0.099 C 
ATOM      6  N   UNL     1       1.348   6.182  -9.113  0.00  0.00    -0.219 N 
ATOM      7  C   UNL     1       2.376   6.201 -10.055  0.00  0.00    +0.063 A 
ATOM      8  C   UNL     1       1.911   6.197 -11.342  0.00  0.00    -0.006 A 
ATOM      9  C   UNL     1       2.814   6.088 -12.357  0.00  0.00    -0.003 A 
ATOM     10  C   UNL     1       4.162   5.984 -12.076  0.00  0.00    -0.000 A 
ATOM     11  C   UNL     1       4.616   6.538 -10.884  0.00  0.00    +0.001 A 
ATOM     12  C   UNL     1       3.725   6.455  -9.823  0.00  0.00    +0.016 A 
ATOM     13  C   UNL     1       0.540   6.753 -11.227  0.00  0.00    +0.049 C 
ENDBRANCH   1   6
BRANCH   2  14
ATOM     14  C   UNL     1       1.158   5.355  -5.501  0.00  0.00    +0.058 A 
ATOM     15  C   UNL     1      -0.172   5.421  -5.122  0.00  0.00    +0.025 A 
ATOM     16  C   UNL     1      -0.492   5.836  -3.852  0.00  0.00    +0.136 A 
ATOM     17  C   UNL     1       0.527   5.901  -2.921  0.00  0.00    +0.076 A 
ATOM     18 CL   UNL     1       0.183   6.506  -1.307  0.00  0.00    -0.081 Cl
ATOM     19  C   UNL     1       1.799   5.478  -3.244  0.00  0.00    +0.013 A 
ATOM     20  C   UNL     1       2.147   5.237  -4.545  0.00  0.00    +0.006 A 
BRANCH  16  21
ATOM     21  S   UNL     1      -2.145   5.964  -3.286  0.00  0.00    +0.094 S 
ATOM     22  O   UNL     1      -3.050   5.488  -4.401  0.00  0.00    -0.150 OA
ATOM     23  O   UNL     1      -2.448   7.400  -2.958  0.00  0.00    -0.150 OA
ATOM     24  N   UNL     1      -2.384   4.943  -1.921  0.00  0.00    +0.039 NA
ENDBRANCH  16  21
ENDBRANCH   2  14
TORSDOF 3
ENDMDL
