MODEL 1
REMARK VINA RESULT:      -9.4      0.000      0.000
REMARK  Name = 
REMARK  7 active torsions:
REMARK  status: ('A' for Active; 'I' for Inactive)
REMARK    1  A    between atoms: C_4  and  N_5
REMARK    2  A    between atoms: N_12  and  C_13
REMARK    3  A    between atoms: C_18  and  S_19
REMARK    4  A    between atoms: S_19  and  C_22
REMARK    5  A    between atoms: C_26  and  O_27
REMARK    6  A    between atoms: O_27  and  C_28
REMARK    7  A    between atoms: C_32  and  C_33
REMARK                            x       y       z     vdW  Elec       q    Type
REMARK                         _______ _______ _______ _____ _____    ______ ____
ROOT
ATOM      1  N   UNL     1       1.952   6.904  -5.626  0.00  0.00    -0.175 NA
ATOM      2  C   UNL     1       2.138   6.327  -6.924  0.00  0.00    +0.242 A 
ATOM      3  N   UNL     1       2.852   7.015  -7.847  0.00  0.00    -0.194 NA
ATOM      4  C   UNL     1       3.613   6.329  -8.733  0.00  0.00    +0.167 A 
ATOM      5  N   UNL     1       4.191   6.953  -9.886  0.00  0.00    -0.192 NA
ATOM      6  C   UNL     1       3.760   4.949  -8.657  0.00  0.00    +0.110 A 
ATOM      7 CL   UNL     1       5.337   4.266  -9.031  0.00  0.00    -0.078 Cl
ATOM      8  C   UNL     1       2.826   4.270  -7.887  0.00  0.00    +0.116 A 
ATOM      9  N   UNL     1       1.965   5.001  -7.138  0.00  0.00    -0.210 NA
ENDROOT
BRANCH   1  15
ATOM     10  C   UNL     1       2.665   4.999  -1.166  0.00  0.00    +0.031 C 
ATOM     11  C   UNL     1       1.796   5.662  -2.186  0.00  0.00    -0.024 A 
ATOM     12  C   UNL     1       0.509   6.060  -1.902  0.00  0.00    -0.023 A 
ATOM     13  C   UNL     1      -0.369   6.183  -2.955  0.00  0.00    +0.034 A 
ATOM     14  C   UNL     1       0.106   6.172  -4.261  0.00  0.00    +0.153 A 
ATOM     15  C   UNL     1       1.461   6.087  -4.555  0.00  0.00    +0.107 A 
ATOM     16  C   UNL     1       2.290   5.827  -3.473  0.00  0.00    +0.015 A 
BRANCH  12  17
ATOM     17  C   UNL     1       0.152   6.336  -0.499  0.00  0.00    +0.025 C 
ATOM     18  C   UNL     1       0.899   7.456   0.116  0.00  0.00    +0.023 C 
ATOM     19  C   UNL     1       0.071   8.517   0.765  0.00  0.00    +0.089 C 
ATOM     20  N   UNL     1      -0.878   7.829   1.639  0.00  0.00    -0.218 NA
ATOM     21  C   UNL     1      -1.850   7.233   0.750  0.00  0.00    +0.089 C 
ATOM     22  C   UNL     1      -1.287   6.223  -0.184  0.00  0.00    +0.023 C 
ENDBRANCH  12  17
BRANCH  14  23
ATOM     23  O   UNL     1      -0.760   6.086  -5.347  0.00  0.00    -0.478 OA
BRANCH  23  24
ATOM     24  C   UNL     1      -2.158   6.143  -5.084  0.00  0.00    +0.166 C 
ATOM     25  C   UNL     1      -2.947   5.396  -6.153  0.00  0.00    +0.047 C 
ATOM     26  C   UNL     1      -2.563   7.600  -5.132  0.00  0.00    +0.047 C 
ENDBRANCH  23  24
ENDBRANCH  14  23
ENDBRANCH   1  15
BRANCH   5  27
ATOM     27  C   UNL     1       3.773   6.631 -11.214  0.00  0.00    +0.089 A 
ATOM     28  C   UNL     1       4.756   6.187 -12.089  0.00  0.00    +0.121 A 
ATOM     29  C   UNL     1       4.359   5.425 -13.179  0.00  0.00    +0.020 A 
ATOM     30  C   UNL     1       3.035   5.127 -13.432  0.00  0.00    +0.001 A 
ATOM     31  C   UNL     1       2.064   5.860 -12.762  0.00  0.00    +0.001 A 
ATOM     32  C   UNL     1       2.451   6.422 -11.552  0.00  0.00    +0.018 A 
BRANCH  28  33
ATOM     33  S   UNL     1       6.301   6.983 -12.073  0.00  0.00    +0.008 S 
ATOM     34  O   UNL     1       6.758   7.162 -13.504  0.00  0.00    -0.169 OA
ATOM     35  O   UNL     1       6.231   8.351 -11.471  0.00  0.00    -0.169 OA
BRANCH  33  36
ATOM     36  C   UNL     1       7.513   6.030 -11.202  0.00  0.00    +0.134 C 
ATOM     37  C   UNL     1       8.774   5.835 -11.996  0.00  0.00    +0.026 C 
ATOM     38  C   UNL     1       7.852   6.623  -9.858  0.00  0.00    +0.026 C 
ENDBRANCH  33  36
ENDBRANCH  28  33
ENDBRANCH   5  27
TORSDOF 7
ENDMDL
MODEL 2
REMARK VINA RESULT:      -9.4      3.176     10.306
REMARK  Name = 
REMARK  7 active torsions:
REMARK  status: ('A' for Active; 'I' for Inactive)
REMARK    1  A    between atoms: C_4  and  N_5
REMARK    2  A    between atoms: N_12  and  C_13
REMARK    3  A    between atoms: C_18  and  S_19
REMARK    4  A    between atoms: S_19  and  C_22
REMARK    5  A    between atoms: C_26  and  O_27
REMARK    6  A    between atoms: O_27  and  C_28
REMARK    7  A    between atoms: C_32  and  C_33
REMARK                            x       y       z     vdW  Elec       q    Type
REMARK                         _______ _______ _______ _____ _____    ______ ____
ROOT
ATOM      1  N   UNL     1       1.720   5.915  -7.629  0.00  0.00    -0.175 NA
ATOM      2  C   UNL     1       1.682   6.361  -6.268  0.00  0.00    +0.242 A 
ATOM      3  N   UNL     1       0.901   5.693  -5.385  0.00  0.00    -0.194 NA
ATOM      4  C   UNL     1       1.311   5.586  -4.098  0.00  0.00    +0.167 A 
ATOM      5  N   UNL     1       0.441   5.124  -3.058  0.00  0.00    -0.192 NA
ATOM      6  C   UNL     1       2.552   6.053  -3.684  0.00  0.00    +0.110 A 
ATOM      7 CL   UNL     1       3.431   5.108  -2.488  0.00  0.00    -0.078 Cl
ATOM      8  C   UNL     1       3.192   6.945  -4.532  0.00  0.00    +0.116 A 
ATOM      9  N   UNL     1       2.653   7.155  -5.758  0.00  0.00    -0.210 NA
ENDROOT
BRANCH   1  15
ATOM     10  C   UNL     1       6.449   5.951  -8.925  0.00  0.00    +0.031 C 
ATOM     11  C   UNL     1       4.994   5.906  -9.268  0.00  0.00    -0.024 A 
ATOM     12  C   UNL     1       4.553   5.757 -10.564  0.00  0.00    -0.023 A 
ATOM     13  C   UNL     1       3.291   6.217 -10.867  0.00  0.00    +0.034 A 
ATOM     14  C   UNL     1       2.412   6.558  -9.846  0.00  0.00    +0.153 A 
ATOM     15  C   UNL     1       2.742   6.409  -8.505  0.00  0.00    +0.107 A 
ATOM     16  C   UNL     1       4.065   6.077  -8.251  0.00  0.00    +0.015 A 
BRANCH  12  17
ATOM     17  C   UNL     1       5.449   5.113 -11.542  0.00  0.00    +0.025 C 
ATOM     18  C   UNL     1       4.912   5.052 -12.919  0.00  0.00    +0.023 C 
ATOM     19  C   UNL     1       5.803   5.589 -13.993  0.00  0.00    +0.089 C 
ATOM     20  N   UNL     1       7.115   4.974 -13.792  0.00  0.00    -0.218 NA
ATOM     21  C   UNL     1       7.668   5.630 -12.627  0.00  0.00    +0.089 C 
ATOM     22  C   UNL     1       6.883   5.428 -11.382  0.00  0.00    +0.023 C 
ENDBRANCH  12  17
BRANCH  14  23
ATOM     23  O   UNL     1       1.215   7.216 -10.110  0.00  0.00    -0.478 OA
BRANCH  23  24
ATOM     24  C   UNL     1       0.433   6.751 -11.205  0.00  0.00    +0.166 C 
ATOM     25  C   UNL     1      -0.727   7.698 -11.490  0.00  0.00    +0.047 C 
ATOM     26  C   UNL     1      -0.143   5.410 -10.806  0.00  0.00    +0.047 C 
ENDBRANCH  23  24
ENDBRANCH  14  23
ENDBRANCH   1  15
BRANCH   5  27
ATOM     27  C   UNL     1      -0.007   5.982  -2.005  0.00  0.00    +0.089 A 
ATOM     28  C   UNL     1      -1.364   5.954  -1.712  0.00  0.00    +0.121 A 
ATOM     29  C   UNL     1      -1.762   6.360  -0.446  0.00  0.00    +0.020 A 
ATOM     30  C   UNL     1      -0.868   6.812   0.505  0.00  0.00    +0.001 A 
ATOM     31  C   UNL     1       0.409   7.158   0.081  0.00  0.00    +0.001 A 
ATOM     32  C   UNL     1       0.853   6.547  -1.084  0.00  0.00    +0.018 A 
BRANCH  28  33
ATOM     33  S   UNL     1      -2.496   5.905  -3.030  0.00  0.00    +0.008 S 
ATOM     34  O   UNL     1      -2.744   4.456  -3.389  0.00  0.00    -0.169 OA
ATOM     35  O   UNL     1      -3.824   6.489  -2.663  0.00  0.00    -0.169 OA
BRANCH  33  36
ATOM     36  C   UNL     1      -1.868   6.747  -4.456  0.00  0.00    +0.134 C 
ATOM     37  C   UNL     1      -2.545   6.313  -5.726  0.00  0.00    +0.026 C 
ATOM     38  C   UNL     1      -1.960   8.246  -4.323  0.00  0.00    +0.026 C 
ENDBRANCH  33  36
ENDBRANCH  28  33
ENDBRANCH   5  27
TORSDOF 7
ENDMDL
MODEL 3
REMARK VINA RESULT:      -9.3      2.380      4.122
REMARK  Name = 
REMARK  7 active torsions:
REMARK  status: ('A' for Active; 'I' for Inactive)
REMARK    1  A    between atoms: C_4  and  N_5
REMARK    2  A    between atoms: N_12  and  C_13
REMARK    3  A    between atoms: C_18  and  S_19
REMARK    4  A    between atoms: S_19  and  C_22
REMARK    5  A    between atoms: C_26  and  O_27
REMARK    6  A    between atoms: O_27  and  C_28
REMARK    7  A    between atoms: C_32  and  C_33
REMARK                            x       y       z     vdW  Elec       q    Type
REMARK                         _______ _______ _______ _____ _____    ______ ____
ROOT
ATOM      1  N   UNL     1       2.999   5.782  -8.217  0.00  0.00    -0.175 NA
ATOM      2  C   UNL     1       3.137   6.231  -9.571  0.00  0.00    +0.242 A 
ATOM      3  N   UNL     1       3.973   5.559 -10.399  0.00  0.00    -0.194 NA
ATOM      4  C   UNL     1       3.654   5.459 -11.712  0.00  0.00    +0.167 A 
ATOM      5  N   UNL     1       4.591   4.993 -12.689  0.00  0.00    -0.192 NA
ATOM      6  C   UNL     1       2.449   5.938 -12.211  0.00  0.00    +0.110 A 
ATOM      7 CL   UNL     1       1.649   5.004 -13.469  0.00  0.00    -0.078 Cl
ATOM      8  C   UNL     1       1.758   6.833 -11.407  0.00  0.00    +0.116 A 
ATOM      9  N   UNL     1       2.211   7.035 -10.145  0.00  0.00    -0.210 NA
ENDROOT
BRANCH   1  15
ATOM     10  C   UNL     1      -1.690   5.423  -6.829  0.00  0.00    +0.031 C 
ATOM     11  C   UNL     1      -0.241   5.630  -6.519  0.00  0.00    -0.024 A 
ATOM     12  C   UNL     1       0.218   5.768  -5.229  0.00  0.00    -0.023 A 
ATOM     13  C   UNL     1       1.408   6.434  -5.041  0.00  0.00    +0.034 A 
ATOM     14  C   UNL     1       2.232   6.705  -6.127  0.00  0.00    +0.153 A 
ATOM     15  C   UNL     1       1.922   6.283  -7.414  0.00  0.00    +0.107 A 
ATOM     16  C   UNL     1       0.654   5.741  -7.574  0.00  0.00    +0.015 A 
BRANCH  12  17
ATOM     17  C   UNL     1      -0.582   5.191  -4.133  0.00  0.00    +0.025 C 
ATOM     18  C   UNL     1       0.156   5.012  -2.863  0.00  0.00    +0.023 C 
ATOM     19  C   UNL     1      -0.481   5.604  -1.647  0.00  0.00    +0.089 C 
ATOM     20  N   UNL     1      -1.872   5.153  -1.644  0.00  0.00    -0.218 NA
ATOM     21  C   UNL     1      -2.521   5.916  -2.689  0.00  0.00    +0.089 C 
ATOM     22  C   UNL     1      -1.975   5.677  -4.050  0.00  0.00    +0.023 C 
ENDBRANCH  12  17
BRANCH  14  23
ATOM     23  O   UNL     1       3.331   7.550  -6.011  0.00  0.00    -0.478 OA
BRANCH  23  24
ATOM     24  C   UNL     1       4.492   7.038  -5.365  0.00  0.00    +0.166 C 
ATOM     25  C   UNL     1       4.311   5.571  -4.994  0.00  0.00    +0.047 C 
ATOM     26  C   UNL     1       4.677   7.826  -4.087  0.00  0.00    +0.047 C 
ENDBRANCH  23  24
ENDBRANCH  14  23
ENDBRANCH   1  15
BRANCH   5  27
ATOM     27  C   UNL     1       5.119   5.849 -13.705  0.00  0.00    +0.089 A 
ATOM     28  C   UNL     1       6.497   5.831 -13.883  0.00  0.00    +0.121 A 
ATOM     29  C   UNL     1       6.997   6.235 -15.113  0.00  0.00    +0.020 A 
ATOM     30  C   UNL     1       6.183   6.675 -16.137  0.00  0.00    +0.001 A 
ATOM     31  C   UNL     1       4.873   7.013 -15.825  0.00  0.00    +0.001 A 
ATOM     32  C   UNL     1       4.336   6.403 -14.698  0.00  0.00    +0.018 A 
BRANCH  28  33
ATOM     33  S   UNL     1       7.514   5.797 -12.474  0.00  0.00    +0.008 S 
ATOM     34  O   UNL     1       7.608   4.366 -11.991  0.00  0.00    -0.169 OA
ATOM     35  O   UNL     1       8.911   6.243 -12.769  0.00  0.00    -0.169 OA
BRANCH  33  36
ATOM     36  C   UNL     1       6.850   6.796 -11.171  0.00  0.00    +0.134 C 
ATOM     37  C   UNL     1       7.712   6.784  -9.939  0.00  0.00    +0.026 C 
ATOM     38  C   UNL     1       6.614   8.221 -11.604  0.00  0.00    +0.026 C 
ENDBRANCH  33  36
ENDBRANCH  28  33
ENDBRANCH   5  27
TORSDOF 7
ENDMDL
MODEL 4
REMARK VINA RESULT:      -8.9      2.965     11.189
REMARK  Name = 
REMARK  7 active torsions:
REMARK  status: ('A' for Active; 'I' for Inactive)
REMARK    1  A    between atoms: C_4  and  N_5
REMARK    2  A    between atoms: N_12  and  C_13
REMARK    3  A    between atoms: C_18  and  S_19
REMARK    4  A    between atoms: S_19  and  C_22
REMARK    5  A    between atoms: C_26  and  O_27
REMARK    6  A    between atoms: O_27  and  C_28
REMARK    7  A    between atoms: C_32  and  C_33
REMARK                            x       y       z     vdW  Elec       q    Type
REMARK                         _______ _______ _______ _____ _____    ______ ____
ROOT
ATOM      1  N   UNL     1       3.894   7.278 -10.061  0.00  0.00    -0.175 NA
ATOM      2  C   UNL     1       3.687   6.718  -8.759  0.00  0.00    +0.242 A 
ATOM      3  N   UNL     1       2.797   7.313  -7.927  0.00  0.00    -0.194 NA
ATOM      4  C   UNL     1       2.078   6.541  -7.077  0.00  0.00    +0.167 A 
ATOM      5  N   UNL     1       1.312   7.101  -6.004  0.00  0.00    -0.192 NA
ATOM      6  C   UNL     1       2.155   5.154  -7.105  0.00  0.00    +0.110 A 
ATOM      7 CL   UNL     1       0.676   4.241  -6.830  0.00  0.00    -0.078 Cl
ATOM      8  C   UNL     1       3.246   4.608  -7.765  0.00  0.00    +0.116 A 
ATOM      9  N   UNL     1       4.045   5.444  -8.473  0.00  0.00    -0.210 NA
ENDROOT
BRANCH   1  15
ATOM     10  C   UNL     1       3.709   4.473 -14.078  0.00  0.00    +0.031 C 
ATOM     11  C   UNL     1       4.318   5.579 -13.277  0.00  0.00    -0.024 A 
ATOM     12  C   UNL     1       5.340   6.360 -13.767  0.00  0.00    -0.023 A 
ATOM     13  C   UNL     1       6.164   6.981 -12.855  0.00  0.00    +0.034 A 
ATOM     14  C   UNL     1       5.801   7.034 -11.514  0.00  0.00    +0.153 A 
ATOM     15  C   UNL     1       4.597   6.517 -11.052  0.00  0.00    +0.107 A 
ATOM     16  C   UNL     1       3.870   5.782 -11.978  0.00  0.00    +0.015 A 
BRANCH  12  17
ATOM     17  C   UNL     1       5.487   6.490 -15.227  0.00  0.00    +0.025 C 
ATOM     18  C   UNL     1       4.500   7.387 -15.867  0.00  0.00    +0.023 C 
ATOM     19  C   UNL     1       5.063   8.461 -16.742  0.00  0.00    +0.089 C 
ATOM     20  N   UNL     1       6.010   7.809 -17.645  0.00  0.00    -0.218 NA
ATOM     21  C   UNL     1       7.161   7.495 -16.828  0.00  0.00    +0.089 C 
ATOM     22  C   UNL     1       6.881   6.551 -15.714  0.00  0.00    +0.023 C 
ENDBRANCH  12  17
BRANCH  14  23
ATOM     23  O   UNL     1       6.694   7.465 -10.538  0.00  0.00    -0.478 OA
BRANCH  23  24
ATOM     24  C   UNL     1       7.832   6.650 -10.276  0.00  0.00    +0.166 C 
ATOM     25  C   UNL     1       8.306   5.949 -11.544  0.00  0.00    +0.047 C 
ATOM     26  C   UNL     1       7.403   5.589  -9.286  0.00  0.00    +0.047 C 
ENDBRANCH  23  24
ENDBRANCH  14  23
ENDBRANCH   1  15
BRANCH   5  27
ATOM     27  C   UNL     1       1.658   6.891  -4.633  0.00  0.00    +0.089 A 
ATOM     28  C   UNL     1       0.689   6.308  -3.827  0.00  0.00    +0.121 A 
ATOM     29  C   UNL     1       1.109   5.654  -2.677  0.00  0.00    +0.020 A 
ATOM     30  C   UNL     1       2.437   5.593  -2.301  0.00  0.00    +0.001 A 
ATOM     31  C   UNL     1       3.326   6.464  -2.917  0.00  0.00    +0.001 A 
ATOM     32  C   UNL     1       2.961   6.919  -4.177  0.00  0.00    +0.018 A 
BRANCH  28  33
ATOM     33  S   UNL     1      -0.960   6.828  -4.004  0.00  0.00    +0.008 S 
ATOM     34  O   UNL     1      -1.509   7.143  -2.630  0.00  0.00    -0.169 OA
ATOM     35  O   UNL     1      -1.078   8.082  -4.812  0.00  0.00    -0.169 OA
BRANCH  33  36
ATOM     36  C   UNL     1      -1.961   5.568  -4.743  0.00  0.00    +0.134 C 
ATOM     37  C   UNL     1      -3.137   5.188  -3.886  0.00  0.00    +0.026 C 
ATOM     38  C   UNL     1      -2.445   5.952  -6.119  0.00  0.00    +0.026 C 
ENDBRANCH  33  36
ENDBRANCH  28  33
ENDBRANCH   5  27
TORSDOF 7
ENDMDL
MODEL 5
REMARK VINA RESULT:      -8.4      3.117     10.249
REMARK  Name = 
REMARK  7 active torsions:
REMARK  status: ('A' for Active; 'I' for Inactive)
REMARK    1  A    between atoms: C_4  and  N_5
REMARK    2  A    between atoms: N_12  and  C_13
REMARK    3  A    between atoms: C_18  and  S_19
REMARK    4  A    between atoms: S_19  and  C_22
REMARK    5  A    between atoms: C_26  and  O_27
REMARK    6  A    between atoms: O_27  and  C_28
REMARK    7  A    between atoms: C_32  and  C_33
REMARK                            x       y       z     vdW  Elec       q    Type
REMARK                         _______ _______ _______ _____ _____    ______ ____
ROOT
ATOM      1  N   UNL     1       2.467   6.466  -8.270  0.00  0.00    -0.175 NA
ATOM      2  C   UNL     1       1.588   5.970  -7.253  0.00  0.00    +0.242 A 
ATOM      3  N   UNL     1       1.357   6.737  -6.160  0.00  0.00    -0.194 NA
ATOM      4  C   UNL     1       0.135   6.695  -5.576  0.00  0.00    +0.167 A 
ATOM      5  N   UNL     1      -0.114   7.270  -4.289  0.00  0.00    -0.192 NA
ATOM      6  C   UNL     1      -0.913   5.967  -6.125  0.00  0.00    +0.110 A 
ATOM      7 CL   UNL     1      -2.530   6.654  -6.033  0.00  0.00    -0.078 Cl
ATOM      8  C   UNL     1      -0.574   5.008  -7.068  0.00  0.00    +0.116 A 
ATOM      9  N   UNL     1       0.709   4.972  -7.506  0.00  0.00    -0.210 NA
ENDROOT
BRANCH   1  15
ATOM     10  C   UNL     1      -0.004   4.456 -11.998  0.00  0.00    +0.031 C 
ATOM     11  C   UNL     1       1.088   5.328 -11.465  0.00  0.00    -0.024 A 
ATOM     12  C   UNL     1       1.903   6.066 -12.294  0.00  0.00    -0.023 A 
ATOM     13  C   UNL     1       3.146   6.421 -11.817  0.00  0.00    +0.034 A 
ATOM     14  C   UNL     1       3.440   6.275 -10.467  0.00  0.00    +0.153 A 
ATOM     15  C   UNL     1       2.500   5.820  -9.550  0.00  0.00    +0.107 A 
ATOM     16  C   UNL     1       1.316   5.346 -10.096  0.00  0.00    +0.015 A 
BRANCH  12  17
ATOM     17  C   UNL     1       1.400   6.435 -13.629  0.00  0.00    +0.025 C 
ATOM     18  C   UNL     1       0.458   7.576 -13.636  0.00  0.00    +0.023 C 
ATOM     19  C   UNL     1       0.787   8.691 -14.576  0.00  0.00    +0.089 C 
ATOM     20  N   UNL     1       1.052   8.076 -15.875  0.00  0.00    -0.218 NA
ATOM     21  C   UNL     1       2.347   7.444 -15.740  0.00  0.00    +0.089 C 
ATOM     22  C   UNL     1       2.398   6.368 -14.716  0.00  0.00    +0.023 C 
ENDBRANCH  12  17
BRANCH  14  23
ATOM     23  O   UNL     1       4.737   6.426  -9.987  0.00  0.00    -0.478 OA
BRANCH  23  24
ATOM     24  C   UNL     1       5.796   6.444 -10.939  0.00  0.00    +0.166 C 
ATOM     25  C   UNL     1       7.025   5.719 -10.404  0.00  0.00    +0.047 C 
ATOM     26  C   UNL     1       6.167   7.893 -11.168  0.00  0.00    +0.047 C 
ENDBRANCH  23  24
ENDBRANCH  14  23
ENDBRANCH   1  15
BRANCH   5  27
ATOM     27  C   UNL     1      -0.423   6.469  -3.145  0.00  0.00    +0.089 A 
ATOM     28  C   UNL     1       0.533   6.421  -2.139  0.00  0.00    +0.121 A 
ATOM     29  C   UNL     1       0.111   6.090  -0.859  0.00  0.00    +0.020 A 
ATOM     30  C   UNL     1      -1.203   5.782  -0.567  0.00  0.00    +0.001 A 
ATOM     31  C   UNL     1      -2.054   5.498  -1.627  0.00  0.00    +0.001 A 
ATOM     32  C   UNL     1      -1.704   6.045  -2.855  0.00  0.00    +0.018 A 
BRANCH  28  33
ATOM     33  S   UNL     1       2.205   6.282  -2.591  0.00  0.00    +0.008 S 
ATOM     34  O   UNL     1       2.336   5.150  -3.587  0.00  0.00    -0.169 OA
ATOM     35  O   UNL     1       2.716   7.513  -3.272  0.00  0.00    -0.169 OA
BRANCH  33  36
ATOM     36  C   UNL     1       3.228   5.929  -1.189  0.00  0.00    +0.134 C 
ATOM     37  C   UNL     1       3.759   4.522  -1.201  0.00  0.00    +0.026 C 
ATOM     38  C   UNL     1       4.377   6.898  -1.059  0.00  0.00    +0.026 C 
ENDBRANCH  33  36
ENDBRANCH  28  33
ENDBRANCH   5  27
TORSDOF 7
ENDMDL
MODEL 6
REMARK VINA RESULT:      -7.9      2.201      3.288
REMARK  Name = 
REMARK  7 active torsions:
REMARK  status: ('A' for Active; 'I' for Inactive)
REMARK    1  A    between atoms: C_4  and  N_5
REMARK    2  A    between atoms: N_12  and  C_13
REMARK    3  A    between atoms: C_18  and  S_19
REMARK    4  A    between atoms: S_19  and  C_22
REMARK    5  A    between atoms: C_26  and  O_27
REMARK    6  A    between atoms: O_27  and  C_28
REMARK    7  A    between atoms: C_32  and  C_33
REMARK                            x       y       z     vdW  Elec       q    Type
REMARK                         _______ _______ _______ _____ _____    ______ ____
ROOT
ATOM      1  N   UNL     1       1.898   6.750  -5.624  0.00  0.00    -0.175 NA
ATOM      2  C   UNL     1       2.406   6.074  -6.780  0.00  0.00    +0.242 A 
ATOM      3  N   UNL     1       2.588   6.780  -7.922  0.00  0.00    -0.194 NA
ATOM      4  C   UNL     1       3.619   6.454  -8.738  0.00  0.00    +0.167 A 
ATOM      5  N   UNL     1       3.732   6.974 -10.068  0.00  0.00    -0.192 NA
ATOM      6  C   UNL     1       4.551   5.486  -8.387  0.00  0.00    +0.110 A 
ATOM      7 CL   UNL     1       6.232   5.763  -8.826  0.00  0.00    -0.078 Cl
ATOM      8  C   UNL     1       4.190   4.621  -7.364  0.00  0.00    +0.116 A 
ATOM      9  N   UNL     1       3.053   4.889  -6.677  0.00  0.00    -0.210 NA
ENDROOT
BRANCH   1  15
ATOM     10  C   UNL     1       4.286   6.156  -1.384  0.00  0.00    +0.031 C 
ATOM     11  C   UNL     1       3.024   6.337  -2.165  0.00  0.00    -0.024 A 
ATOM     12  C   UNL     1       1.798   6.469  -1.553  0.00  0.00    -0.023 A 
ATOM     13  C   UNL     1       0.680   6.130  -2.281  0.00  0.00    +0.034 A 
ATOM     14  C   UNL     1       0.777   5.932  -3.654  0.00  0.00    +0.153 A 
ATOM     15  C   UNL     1       1.970   6.110  -4.343  0.00  0.00    +0.107 A 
ATOM     16  C   UNL     1       3.092   6.314  -3.552  0.00  0.00    +0.015 A 
BRANCH  12  17
ATOM     17  C   UNL     1       1.754   6.968  -0.167  0.00  0.00    +0.025 C 
ATOM     18  C   UNL     1       2.485   8.236   0.053  0.00  0.00    +0.023 C 
ATOM     19  C   UNL     1       1.713   9.330   0.717  0.00  0.00    +0.089 C 
ATOM     20  N   UNL     1       1.090   8.741   1.901  0.00  0.00    -0.218 NA
ATOM     21  C   UNL     1       0.013   7.918   1.395  0.00  0.00    +0.089 C 
ATOM     22  C   UNL     1       0.456   6.802   0.519  0.00  0.00    +0.023 C 
ENDBRANCH  12  17
BRANCH  14  23
ATOM     23  O   UNL     1      -0.275   5.392  -4.385  0.00  0.00    -0.478 OA
BRANCH  23  24
ATOM     24  C   UNL     1      -1.527   6.070  -4.342  0.00  0.00    +0.166 C 
ATOM     25  C   UNL     1      -2.537   5.302  -3.499  0.00  0.00    +0.047 C 
ATOM     26  C   UNL     1      -2.050   6.132  -5.761  0.00  0.00    +0.047 C 
ENDBRANCH  23  24
ENDBRANCH  14  23
ENDBRANCH   1  15
BRANCH   5  27
ATOM     27  C   UNL     1       3.601   6.141 -11.223  0.00  0.00    +0.089 A 
ATOM     28  C   UNL     1       2.436   6.280 -11.965  0.00  0.00    +0.121 A 
ATOM     29  C   UNL     1       2.464   5.890 -13.297  0.00  0.00    +0.020 A 
ATOM     30  C   UNL     1       3.588   5.348 -13.887  0.00  0.00    +0.001 A 
ATOM     31  C   UNL     1       4.606   4.900 -13.055  0.00  0.00    +0.001 A 
ATOM     32  C   UNL     1       4.673   5.490 -11.800  0.00  0.00    +0.018 A 
BRANCH  28  33
ATOM     33  S   UNL     1       0.928   6.448 -11.117  0.00  0.00    +0.008 S 
ATOM     34  O   UNL     1       1.034   7.640 -10.191  0.00  0.00    -0.169 OA
ATOM     35  O   UNL     1      -0.217   6.722 -12.040  0.00  0.00    -0.169 OA
BRANCH  33  36
ATOM     36  C   UNL     1       0.563   5.008 -10.153  0.00  0.00    +0.134 C 
ATOM     37  C   UNL     1      -0.311   5.313  -8.968  0.00  0.00    +0.026 C 
ATOM     38  C   UNL     1      -0.070   3.913 -10.975  0.00  0.00    +0.026 C 
ENDBRANCH  33  36
ENDBRANCH  28  33
ENDBRANCH   5  27
TORSDOF 7
ENDMDL
MODEL 7
REMARK VINA RESULT:      -7.9      3.165     10.612
REMARK  Name = 
REMARK  7 active torsions:
REMARK  status: ('A' for Active; 'I' for Inactive)
REMARK    1  A    between atoms: C_4  and  N_5
REMARK    2  A    between atoms: N_12  and  C_13
REMARK    3  A    between atoms: C_18  and  S_19
REMARK    4  A    between atoms: S_19  and  C_22
REMARK    5  A    between atoms: C_26  and  O_27
REMARK    6  A    between atoms: O_27  and  C_28
REMARK    7  A    between atoms: C_32  and  C_33
REMARK                            x       y       z     vdW  Elec       q    Type
REMARK                         _______ _______ _______ _____ _____    ______ ____
ROOT
ATOM      1  N   UNL     1       3.113   6.856  -8.281  0.00  0.00    -0.175 NA
ATOM      2  C   UNL     1       2.974   6.113  -7.063  0.00  0.00    +0.242 A 
ATOM      3  N   UNL     1       2.773   6.790  -5.907  0.00  0.00    -0.194 NA
ATOM      4  C   UNL     1       1.994   6.233  -4.948  0.00  0.00    +0.167 A 
ATOM      5  N   UNL     1       1.935   6.755  -3.616  0.00  0.00    -0.192 NA
ATOM      6  C   UNL     1       1.316   5.039  -5.159  0.00  0.00    +0.110 A 
ATOM      7 CL   UNL     1      -0.298   4.876  -4.479  0.00  0.00    -0.078 Cl
ATOM      8  C   UNL     1       1.748   4.262  -6.225  0.00  0.00    +0.116 A 
ATOM      9  N   UNL     1       2.661   4.796  -7.072  0.00  0.00    -0.210 NA
ENDROOT
BRANCH   1  15
ATOM     10  C   UNL     1       0.353   4.547 -11.611  0.00  0.00    +0.031 C 
ATOM     11  C   UNL     1       1.434   5.513 -11.244  0.00  0.00    -0.024 A 
ATOM     12  C   UNL     1       2.081   6.278 -12.188  0.00  0.00    -0.023 A 
ATOM     13  C   UNL     1       3.343   6.738 -11.883  0.00  0.00    +0.034 A 
ATOM     14  C   UNL     1       3.815   6.660 -10.578  0.00  0.00    +0.153 A 
ATOM     15  C   UNL     1       3.035   6.170  -9.538  0.00  0.00    +0.107 A 
ATOM     16  C   UNL     1       1.830   5.594  -9.916  0.00  0.00    +0.015 A 
BRANCH  12  17
ATOM     17  C   UNL     1       1.388   6.565 -13.456  0.00  0.00    +0.025 C 
ATOM     18  C   UNL     1       0.469   7.724 -13.406  0.00  0.00    +0.023 C 
ATOM     19  C   UNL     1       0.668   8.763 -14.463  0.00  0.00    +0.089 C 
ATOM     20  N   UNL     1       0.727   8.052 -15.739  0.00  0.00    -0.218 NA
ATOM     21  C   UNL     1       2.019   7.401 -15.753  0.00  0.00    +0.089 C 
ATOM     22  C   UNL     1       2.210   6.399 -14.673  0.00  0.00    +0.023 C 
ENDBRANCH  12  17
BRANCH  14  23
ATOM     23  O   UNL     1       5.146   6.919 -10.272  0.00  0.00    -0.478 OA
BRANCH  23  24
ATOM     24  C   UNL     1       6.094   5.884 -10.514  0.00  0.00    +0.166 C 
ATOM     25  C   UNL     1       6.900   5.575  -9.258  0.00  0.00    +0.047 C 
ATOM     26  C   UNL     1       7.049   6.390 -11.572  0.00  0.00    +0.047 C 
ENDBRANCH  23  24
ENDBRANCH  14  23
ENDBRANCH   1  15
BRANCH   5  27
ATOM     27  C   UNL     1       2.446   6.032  -2.493  0.00  0.00    +0.089 A 
ATOM     28  C   UNL     1       1.516   5.379  -1.695  0.00  0.00    +0.121 A 
ATOM     29  C   UNL     1       1.957   4.309  -0.928  0.00  0.00    +0.020 A 
ATOM     30  C   UNL     1       3.276   3.901  -0.912  0.00  0.00    +0.001 A 
ATOM     31  C   UNL     1       4.229   4.768  -1.430  0.00  0.00    +0.001 A 
ATOM     32  C   UNL     1       3.776   5.683  -2.371  0.00  0.00    +0.018 A 
BRANCH  28  33
ATOM     33  S   UNL     1       0.031   6.197  -1.314  0.00  0.00    +0.008 S 
ATOM     34  O   UNL     1      -0.275   7.171  -2.431  0.00  0.00    -0.169 OA
ATOM     35  O   UNL     1      -1.132   5.259  -1.232  0.00  0.00    -0.169 OA
BRANCH  33  36
ATOM     36  C   UNL     1       0.157   7.095   0.207  0.00  0.00    +0.134 C 
ATOM     37  C   UNL     1       1.489   7.776   0.367  0.00  0.00    +0.026 C 
ATOM     38  C   UNL     1      -0.947   8.109   0.368  0.00  0.00    +0.026 C 
ENDBRANCH  33  36
ENDBRANCH  28  33
ENDBRANCH   5  27
TORSDOF 7
ENDMDL
MODEL 8
REMARK VINA RESULT:      -7.8      2.175      3.601
REMARK  Name = 
REMARK  7 active torsions:
REMARK  status: ('A' for Active; 'I' for Inactive)
REMARK    1  A    between atoms: C_4  and  N_5
REMARK    2  A    between atoms: N_12  and  C_13
REMARK    3  A    between atoms: C_18  and  S_19
REMARK    4  A    between atoms: S_19  and  C_22
REMARK    5  A    between atoms: C_26  and  O_27
REMARK    6  A    between atoms: O_27  and  C_28
REMARK    7  A    between atoms: C_32  and  C_33
REMARK                            x       y       z     vdW  Elec       q    Type
REMARK                         _______ _______ _______ _____ _____    ______ ____
ROOT
ATOM      1  N   UNL     1       3.392   6.419  -6.462  0.00  0.00    -0.175 NA
ATOM      2  C   UNL     1       2.971   6.589  -7.820  0.00  0.00    +0.242 A 
ATOM      3  N   UNL     1       3.643   5.934  -8.798  0.00  0.00    -0.194 NA
ATOM      4  C   UNL     1       2.961   5.496  -9.883  0.00  0.00    +0.167 A 
ATOM      5  N   UNL     1       3.624   5.026 -11.062  0.00  0.00    -0.192 NA
ATOM      6  C   UNL     1       1.579   5.611  -9.973  0.00  0.00    +0.110 A 
ATOM      7 CL   UNL     1       0.690   4.293 -10.726  0.00  0.00    -0.078 Cl
ATOM      8  C   UNL     1       0.974   6.503  -9.100  0.00  0.00    +0.116 A 
ATOM      9  N   UNL     1       1.736   7.054  -8.124  0.00  0.00    -0.210 NA
ENDROOT
BRANCH   1  15
ATOM     10  C   UNL     1      -1.074   7.824  -5.009  0.00  0.00    +0.031 C 
ATOM     11  C   UNL     1       0.186   7.045  -4.808  0.00  0.00    -0.024 A 
ATOM     12  C   UNL     1       0.354   6.187  -3.745  0.00  0.00    -0.023 A 
ATOM     13  C   UNL     1       1.642   5.910  -3.344  0.00  0.00    +0.034 A 
ATOM     14  C   UNL     1       2.714   6.264  -4.154  0.00  0.00    +0.153 A 
ATOM     15  C   UNL     1       2.536   6.858  -5.398  0.00  0.00    +0.107 A 
ATOM     16  C   UNL     1       1.236   7.241  -5.695  0.00  0.00    +0.015 A 
BRANCH  12  17
ATOM     17  C   UNL     1      -0.845   5.613  -3.109  0.00  0.00    +0.025 C 
ATOM     18  C   UNL     1      -1.290   6.320  -1.887  0.00  0.00    +0.023 C 
ATOM     19  C   UNL     1      -2.725   6.736  -1.858  0.00  0.00    +0.089 C 
ATOM     20  N   UNL     1      -3.508   5.561  -2.234  0.00  0.00    -0.218 NA
ATOM     21  C   UNL     1      -3.300   5.404  -3.657  0.00  0.00    +0.089 C 
ATOM     22  C   UNL     1      -1.889   5.146  -4.044  0.00  0.00    +0.023 C 
ENDBRANCH  12  17
BRANCH  14  23
ATOM     23  O   UNL     1       4.025   6.190  -3.696  0.00  0.00    -0.478 OA
BRANCH  23  24
ATOM     24  C   UNL     1       4.671   7.409  -3.342  0.00  0.00    +0.166 C 
ATOM     25  C   UNL     1       6.064   7.488  -3.955  0.00  0.00    +0.047 C 
ATOM     26  C   UNL     1       4.820   7.415  -1.836  0.00  0.00    +0.047 C 
ENDBRANCH  23  24
ENDBRANCH  14  23
ENDBRANCH   1  15
BRANCH   5  27
ATOM     27  C   UNL     1       3.561   5.734 -12.303  0.00  0.00    +0.089 A 
ATOM     28  C   UNL     1       4.770   6.148 -12.847  0.00  0.00    +0.121 A 
ATOM     29  C   UNL     1       4.819   6.383 -14.214  0.00  0.00    +0.020 A 
ATOM     30  C   UNL     1       3.714   6.249 -15.030  0.00  0.00    +0.001 A 
ATOM     31  C   UNL     1       2.465   6.181 -14.426  0.00  0.00    +0.001 A 
ATOM     32  C   UNL     1       2.445   5.721 -13.115  0.00  0.00    +0.018 A 
BRANCH  28  33
ATOM     33  S   UNL     1       5.973   6.814 -11.784  0.00  0.00    +0.008 S 
ATOM     34  O   UNL     1       6.895   7.692 -12.601  0.00  0.00    -0.169 OA
ATOM     35  O   UNL     1       5.377   7.687 -10.724  0.00  0.00    -0.169 OA
BRANCH  33  36
ATOM     36  C   UNL     1       6.932   5.541 -11.012  0.00  0.00    +0.134 C 
ATOM     37  C   UNL     1       8.256   5.324 -11.692  0.00  0.00    +0.026 C 
ATOM     38  C   UNL     1       7.159   5.803  -9.544  0.00  0.00    +0.026 C 
ENDBRANCH  33  36
ENDBRANCH  28  33
ENDBRANCH   5  27
TORSDOF 7
ENDMDL
MODEL 9
REMARK VINA RESULT:      -7.7      3.414     10.330
REMARK  Name = 
REMARK  7 active torsions:
REMARK  status: ('A' for Active; 'I' for Inactive)
REMARK    1  A    between atoms: C_4  and  N_5
REMARK    2  A    between atoms: N_12  and  C_13
REMARK    3  A    between atoms: C_18  and  S_19
REMARK    4  A    between atoms: S_19  and  C_22
REMARK    5  A    between atoms: C_26  and  O_27
REMARK    6  A    between atoms: O_27  and  C_28
REMARK    7  A    between atoms: C_32  and  C_33
REMARK                            x       y       z     vdW  Elec       q    Type
REMARK                         _______ _______ _______ _____ _____    ______ ____
ROOT
ATOM      1  N   UNL     1       2.205   4.927  -8.868  0.00  0.00    -0.175 NA
ATOM      2  C   UNL     1       1.537   5.580  -7.782  0.00  0.00    +0.242 A 
ATOM      3  N   UNL     1       1.366   4.903  -6.621  0.00  0.00    -0.194 NA
ATOM      4  C   UNL     1       1.408   5.585  -5.452  0.00  0.00    +0.167 A 
ATOM      5  N   UNL     1       0.991   5.001  -4.213  0.00  0.00    -0.192 NA
ATOM      6  C   UNL     1       1.721   6.938  -5.405  0.00  0.00    +0.110 A 
ATOM      7 CL   UNL     1       2.705   7.511  -4.064  0.00  0.00    -0.078 Cl
ATOM      8  C   UNL     1       1.628   7.636  -6.601  0.00  0.00    +0.116 A 
ATOM      9  N   UNL     1       1.415   6.928  -7.736  0.00  0.00    -0.210 NA
ENDROOT
BRANCH   1  15
ATOM     10  C   UNL     1       5.831   7.411 -11.041  0.00  0.00    +0.031 C 
ATOM     11  C   UNL     1       4.689   6.446 -11.088  0.00  0.00    -0.024 A 
ATOM     12  C   UNL     1       4.351   5.769 -12.238  0.00  0.00    -0.023 A 
ATOM     13  C   UNL     1       3.056   5.318 -12.357  0.00  0.00    +0.034 A 
ATOM     14  C   UNL     1       2.218   5.309 -11.248  0.00  0.00    +0.153 A 
ATOM     15  C   UNL     1       2.654   5.702  -9.988  0.00  0.00    +0.107 A 
ATOM     16  C   UNL     1       3.917   6.276  -9.947  0.00  0.00    +0.015 A 
BRANCH  12  17
ATOM     17  C   UNL     1       5.390   5.561 -13.262  0.00  0.00    +0.025 C 
ATOM     18  C   UNL     1       5.259   6.426 -14.456  0.00  0.00    +0.023 C 
ATOM     19  C   UNL     1       6.479   7.200 -14.840  0.00  0.00    +0.089 C 
ATOM     20  N   UNL     1       7.586   6.246 -14.864  0.00  0.00    -0.218 NA
ATOM     21  C   UNL     1       7.873   5.961 -13.476  0.00  0.00    +0.089 C 
ATOM     22  C   UNL     1       6.751   5.326 -12.737  0.00  0.00    +0.023 C 
ENDBRANCH  12  17
BRANCH  14  23
ATOM     23  O   UNL     1       0.855   5.060 -11.371  0.00  0.00    -0.478 OA
BRANCH  23  24
ATOM     24  C   UNL     1       0.051   6.064 -11.982  0.00  0.00    +0.166 C 
ATOM     25  C   UNL     1       0.857   6.869 -12.994  0.00  0.00    +0.047 C 
ATOM     26  C   UNL     1      -0.398   7.005 -10.885  0.00  0.00    +0.047 C 
ENDBRANCH  23  24
ENDBRANCH  14  23
ENDBRANCH   1  15
BRANCH   5  27
ATOM     27  C   UNL     1      -0.170   5.453  -3.512  0.00  0.00    +0.089 A 
ATOM     28  C   UNL     1       0.039   6.049  -2.275  0.00  0.00    +0.121 A 
ATOM     29  C   UNL     1      -0.938   6.911  -1.797  0.00  0.00    +0.020 A 
ATOM     30  C   UNL     1      -2.106   7.165  -2.488  0.00  0.00    +0.001 A 
ATOM     31  C   UNL     1      -2.446   6.306  -3.525  0.00  0.00    +0.001 A 
ATOM     32  C   UNL     1      -1.394   5.628  -4.126  0.00  0.00    +0.018 A 
BRANCH  28  33
ATOM     33  S   UNL     1       1.208   5.342  -1.201  0.00  0.00    +0.008 S 
ATOM     34  O   UNL     1       0.896   5.799   0.207  0.00  0.00    -0.169 OA
ATOM     35  O   UNL     1       1.141   3.847  -1.191  0.00  0.00    -0.169 OA
BRANCH  33  36
ATOM     36  C   UNL     1       2.855   5.845  -1.613  0.00  0.00    +0.134 C 
ATOM     37  C   UNL     1       3.413   6.846  -0.640  0.00  0.00    +0.026 C 
ATOM     38  C   UNL     1       3.800   4.675  -1.726  0.00  0.00    +0.026 C 
ENDBRANCH  33  36
ENDBRANCH  28  33
ENDBRANCH   5  27
TORSDOF 7
ENDMDL
