MODEL 1
REMARK VINA RESULT:      -7.5      0.000      0.000
REMARK  Name = 
REMARK  6 active torsions:
REMARK  status: ('A' for Active; 'I' for Inactive)
REMARK    1  A    between atoms: O_2  and  C_3
REMARK    2  A    between atoms: C_3  and  C_5
REMARK    3  A    between atoms: C_11  and  C_12
REMARK    4  A    between atoms: C_12  and  O_14
REMARK    5  A    between atoms: O_14  and  C_15
REMARK    6  A    between atoms: C_18  and  C_19
REMARK                            x       y       z     vdW  Elec       q    Type
REMARK                         _______ _______ _______ _____ _____    ______ ____
ROOT
ATOM      1  C   UNL     1       0.077   5.688  -5.096  0.00  0.00    +0.073 C 
ATOM      2  C   UNL     1       1.223   6.781  -5.530  0.00  0.00    +0.083 C 
ATOM      3  C   UNL     1       1.513   6.114  -6.994  0.00  0.00    +0.073 C 
ATOM      4  C   UNL     1       0.479   5.723  -7.676  0.00  0.00    +0.051 C 
ATOM      5  C   UNL     1       0.827   4.950  -8.915  0.00  0.00    +0.049 C 
ATOM      6  N   UNL     1      -0.860   5.775  -7.206  0.00  0.00    -0.221 NA
ATOM      7  C   UNL     1      -1.025   5.936  -5.812  0.00  0.00    +0.051 C 
ATOM      8  C   UNL     1      -2.396   5.861  -5.267  0.00  0.00    +0.049 C 
ENDROOT
BRANCH   2   9
ATOM      9  C   UNL     1       2.391   5.924  -4.772  0.00  0.00    +0.009 A 
ATOM     10  C   UNL     1       3.486   6.709  -4.420  0.00  0.00    +0.140 A 
ATOM     11  C   UNL     1       4.671   6.074  -4.065  0.00  0.00    +0.143 A 
ATOM     12  N   UNL     1       5.614   7.042  -3.958  0.00  0.00    -0.048 NA
ATOM     13  O   UNL     1       5.010   8.183  -4.038  0.00  0.00    -0.242 OA
ATOM     14  C   UNL     1       4.870   4.753  -4.428  0.00  0.00    +0.024 A 
ATOM     15  C   UNL     1       3.730   4.010  -4.660  0.00  0.00    +0.001 A 
ATOM     16  N   UNL     1       3.865   7.992  -4.643  0.00  0.00    -0.049 NA
ATOM     17  C   UNL     1       2.692   4.697  -5.277  0.00  0.00    -0.002 A 
ENDBRANCH   2   9
BRANCH   1  18
ATOM     18  C   UNL     1      -0.174   5.710  -3.644  0.00  0.00    +0.339 C 
ATOM     19  O   UNL     1      -0.296   6.826  -3.075  0.00  0.00    -0.245 OA
BRANCH  18  21
ATOM     20  C   UNL     1       0.744   4.818  -1.546  0.00  0.00    +0.256 C 
ATOM     21  O   UNL     1       0.191   4.650  -2.813  0.00  0.00    -0.442 OA
ENDBRANCH  18  21
ENDBRANCH   1  18
BRANCH   3  22
ATOM     22  C   UNL     1       2.400   7.035  -7.733  0.00  0.00    +0.339 C 
ATOM     23  O   UNL     1       2.023   8.225  -7.853  0.00  0.00    -0.245 OA
BRANCH  22  24
ATOM     24  O   UNL     1       3.734   6.779  -7.975  0.00  0.00    -0.449 OA
BRANCH  24  25
ATOM     25  C   UNL     1       4.204   5.854  -8.952  0.00  0.00    +0.169 C 
ATOM     26  C   UNL     1       4.605   6.646 -10.185  0.00  0.00    +0.047 C 
ATOM     27  C   UNL     1       5.404   5.137  -8.344  0.00  0.00    +0.047 C 
ENDBRANCH  24  25
ENDBRANCH  22  24
ENDBRANCH   3  22
TORSDOF 6
ENDMDL
MODEL 2
REMARK VINA RESULT:      -7.2      2.462      5.649
REMARK  Name = 
REMARK  6 active torsions:
REMARK  status: ('A' for Active; 'I' for Inactive)
REMARK    1  A    between atoms: O_2  and  C_3
REMARK    2  A    between atoms: C_3  and  C_5
REMARK    3  A    between atoms: C_11  and  C_12
REMARK    4  A    between atoms: C_12  and  O_14
REMARK    5  A    between atoms: O_14  and  C_15
REMARK    6  A    between atoms: C_18  and  C_19
REMARK                            x       y       z     vdW  Elec       q    Type
REMARK                         _______ _______ _______ _____ _____    ______ ____
ROOT
ATOM      1  C   UNL     1       0.624   5.598  -5.714  0.00  0.00    +0.073 C 
ATOM      2  C   UNL     1       0.322   5.134  -4.169  0.00  0.00    +0.083 C 
ATOM      3  C   UNL     1      -0.484   6.496  -3.762  0.00  0.00    +0.073 C 
ATOM      4  C   UNL     1      -1.322   6.966  -4.638  0.00  0.00    +0.051 C 
ATOM      5  C   UNL     1      -1.877   8.314  -4.282  0.00  0.00    +0.049 C 
ATOM      6  N   UNL     1      -1.526   6.415  -5.930  0.00  0.00    -0.221 NA
ATOM      7  C   UNL     1      -0.524   5.536  -6.398  0.00  0.00    +0.051 C 
ATOM      8  C   UNL     1      -0.630   5.048  -7.788  0.00  0.00    +0.049 C 
ENDROOT
BRANCH   2   9
ATOM      9  C   UNL     1       1.773   5.695  -3.669  0.00  0.00    +0.009 A 
ATOM     10  C   UNL     1       2.165   5.152  -2.448  0.00  0.00    +0.140 A 
ATOM     11  C   UNL     1       3.203   5.761  -1.753  0.00  0.00    +0.143 A 
ATOM     12  N   UNL     1       3.256   5.167  -0.535  0.00  0.00    -0.048 NA
ATOM     13  O   UNL     1       2.460   4.149  -0.564  0.00  0.00    -0.242 OA
ATOM     14  C   UNL     1       3.554   7.065  -2.060  0.00  0.00    +0.024 A 
ATOM     15  C   UNL     1       3.223   7.499  -3.329  0.00  0.00    +0.001 A 
ATOM     16  N   UNL     1       1.590   4.345  -1.523  0.00  0.00    -0.049 NA
ATOM     17  C   UNL     1       2.011   7.027  -3.817  0.00  0.00    -0.002 A 
ENDBRANCH   2   9
BRANCH   1  18
ATOM     18  C   UNL     1       1.692   4.788  -6.327  0.00  0.00    +0.339 C 
ATOM     19  O   UNL     1       1.753   3.564  -6.040  0.00  0.00    -0.245 OA
BRANCH  18  21
ATOM     20  C   UNL     1       2.968   6.641  -7.316  0.00  0.00    +0.256 C 
ATOM     21  O   UNL     1       2.880   5.355  -6.789  0.00  0.00    -0.442 OA
ENDBRANCH  18  21
ENDBRANCH   1  18
BRANCH   3  22
ATOM     22  C   UNL     1      -1.076   6.281  -2.427  0.00  0.00    +0.339 C 
ATOM     23  O   UNL     1      -1.573   5.153  -2.193  0.00  0.00    -0.245 OA
BRANCH  22  24
ATOM     24  O   UNL     1      -0.804   7.077  -1.334  0.00  0.00    -0.449 OA
BRANCH  24  25
ATOM     25  C   UNL     1      -0.676   6.587  -0.002  0.00  0.00    +0.169 C 
ATOM     26  C   UNL     1       0.584   7.190   0.595  0.00  0.00    +0.047 C 
ATOM     27  C   UNL     1      -1.917   7.040   0.759  0.00  0.00    +0.047 C 
ENDBRANCH  24  25
ENDBRANCH  22  24
ENDBRANCH   3  22
TORSDOF 6
ENDMDL
MODEL 3
REMARK VINA RESULT:      -6.9      2.157      4.773
REMARK  Name = 
REMARK  6 active torsions:
REMARK  status: ('A' for Active; 'I' for Inactive)
REMARK    1  A    between atoms: O_2  and  C_3
REMARK    2  A    between atoms: C_3  and  C_5
REMARK    3  A    between atoms: C_11  and  C_12
REMARK    4  A    between atoms: C_12  and  O_14
REMARK    5  A    between atoms: O_14  and  C_15
REMARK    6  A    between atoms: C_18  and  C_19
REMARK                            x       y       z     vdW  Elec       q    Type
REMARK                         _______ _______ _______ _____ _____    ______ ____
ROOT
ATOM      1  C   UNL     1       2.517   5.986  -2.963  0.00  0.00    +0.073 C 
ATOM      2  C   UNL     1       1.865   6.860  -4.191  0.00  0.00    +0.083 C 
ATOM      3  C   UNL     1       0.376   6.198  -4.066  0.00  0.00    +0.073 C 
ATOM      4  C   UNL     1      -0.092   6.028  -2.866  0.00  0.00    +0.051 C 
ATOM      5  C   UNL     1      -1.371   5.244  -2.820  0.00  0.00    +0.049 C 
ATOM      6  N   UNL     1       0.627   6.314  -1.675  0.00  0.00    -0.221 NA
ATOM      7  C   UNL     1       2.026   6.458  -1.811  0.00  0.00    +0.051 C 
ATOM      8  C   UNL     1       2.825   6.621  -0.580  0.00  0.00    +0.049 C 
ENDROOT
BRANCH   2   9
ATOM      9  C   UNL     1       2.389   5.777  -5.298  0.00  0.00    +0.009 A 
ATOM     10  C   UNL     1       2.633   6.358  -6.540  0.00  0.00    +0.140 A 
ATOM     11  C   UNL     1       2.771   5.528  -7.646  0.00  0.00    +0.143 A 
ATOM     12  N   UNL     1       2.807   6.335  -8.735  0.00  0.00    -0.048 NA
ATOM     13  O   UNL     1       2.893   7.554  -8.314  0.00  0.00    -0.242 OA
ATOM     14  C   UNL     1       2.293   4.230  -7.585  0.00  0.00    +0.024 A 
ATOM     15  C   UNL     1       2.176   3.685  -6.322  0.00  0.00    +0.001 A 
ATOM     16  N   UNL     1       2.447   7.587  -7.083  0.00  0.00    -0.049 NA
ATOM     17  C   UNL     1       1.762   4.570  -5.333  0.00  0.00    -0.002 A 
ENDBRANCH   2   9
BRANCH   1  18
ATOM     18  C   UNL     1       3.990   6.008  -3.000  0.00  0.00    +0.339 C 
ATOM     19  O   UNL     1       4.614   5.011  -2.551  0.00  0.00    -0.245 OA
BRANCH  18  21
ATOM     20  C   UNL     1       5.485   7.603  -4.123  0.00  0.00    +0.256 C 
ATOM     21  O   UNL     1       4.713   7.201  -3.037  0.00  0.00    -0.442 OA
ENDBRANCH  18  21
ENDBRANCH   1  18
BRANCH   3  22
ATOM     22  C   UNL     1      -0.524   6.961  -4.954  0.00  0.00    +0.339 C 
ATOM     23  O   UNL     1      -0.863   8.109  -4.581  0.00  0.00    -0.245 OA
BRANCH  22  24
ATOM     24  O   UNL     1      -0.718   6.659  -6.286  0.00  0.00    -0.449 OA
BRANCH  24  25
ATOM     25  C   UNL     1      -1.214   5.408  -6.756  0.00  0.00    +0.169 C 
ATOM     26  C   UNL     1      -2.709   5.374  -6.492  0.00  0.00    +0.047 C 
ATOM     27  C   UNL     1      -0.917   5.346  -8.251  0.00  0.00    +0.047 C 
ENDBRANCH  24  25
ENDBRANCH  22  24
ENDBRANCH   3  22
TORSDOF 6
ENDMDL
MODEL 4
REMARK VINA RESULT:      -6.2      1.782      5.933
REMARK  Name = 
REMARK  6 active torsions:
REMARK  status: ('A' for Active; 'I' for Inactive)
REMARK    1  A    between atoms: O_2  and  C_3
REMARK    2  A    between atoms: C_3  and  C_5
REMARK    3  A    between atoms: C_11  and  C_12
REMARK    4  A    between atoms: C_12  and  O_14
REMARK    5  A    between atoms: O_14  and  C_15
REMARK    6  A    between atoms: C_18  and  C_19
REMARK                            x       y       z     vdW  Elec       q    Type
REMARK                         _______ _______ _______ _____ _____    ______ ____
ROOT
ATOM      1  C   UNL     1       2.228   6.020  -7.499  0.00  0.00    +0.073 C 
ATOM      2  C   UNL     1       1.754   6.951  -6.233  0.00  0.00    +0.083 C 
ATOM      3  C   UNL     1       2.228   5.888  -5.085  0.00  0.00    +0.073 C 
ATOM      4  C   UNL     1       3.373   5.302  -5.266  0.00  0.00    +0.051 C 
ATOM      5  C   UNL     1       3.654   4.204  -4.281  0.00  0.00    +0.049 C 
ATOM      6  N   UNL     1       4.192   5.474  -6.413  0.00  0.00    -0.221 NA
ATOM      7  C   UNL     1       3.564   6.034  -7.548  0.00  0.00    +0.051 C 
ATOM      8  C   UNL     1       4.343   6.105  -8.801  0.00  0.00    +0.049 C 
ENDROOT
BRANCH   2   9
ATOM      9  C   UNL     1       0.229   6.369  -6.317  0.00  0.00    +0.009 A 
ATOM     10  C   UNL     1      -0.689   7.175  -5.649  0.00  0.00    +0.140 A 
ATOM     11  C   UNL     1      -1.946   6.655  -5.365  0.00  0.00    +0.143 A 
ATOM     12  N   UNL     1      -2.565   7.553  -4.559  0.00  0.00    -0.048 NA
ATOM     13  O   UNL     1      -1.831   8.617  -4.526  0.00  0.00    -0.242 OA
ATOM     14  C   UNL     1      -2.135   5.284  -5.385  0.00  0.00    +0.024 A 
ATOM     15  C   UNL     1      -1.245   4.560  -6.154  0.00  0.00    +0.001 A 
ATOM     16  N   UNL     1      -0.611   8.275  -4.860  0.00  0.00    -0.049 NA
ATOM     17  C   UNL     1       0.063   5.029  -6.142  0.00  0.00    -0.002 A 
ENDBRANCH   2   9
BRANCH   1  18
ATOM     18  C   UNL     1       1.611   6.463  -8.762  0.00  0.00    +0.339 C 
ATOM     19  O   UNL     1       1.545   7.699  -8.993  0.00  0.00    -0.245 OA
BRANCH  18  21
ATOM     20  C   UNL     1       1.057   4.625 -10.297  0.00  0.00    +0.256 C 
ATOM     21  O   UNL     1       0.694   5.674  -9.456  0.00  0.00    -0.442 OA
ENDBRANCH  18  21
ENDBRANCH   1  18
BRANCH   3  22
ATOM     22  C   UNL     1       2.103   6.562  -3.777  0.00  0.00    +0.339 C 
ATOM     23  O   UNL     1       2.861   7.538  -3.558  0.00  0.00    -0.245 OA
BRANCH  22  24
ATOM     24  O   UNL     1       1.004   6.433  -2.954  0.00  0.00    -0.449 OA
BRANCH  24  25
ATOM     25  C   UNL     1       0.543   5.192  -2.428  0.00  0.00    +0.169 C 
ATOM     26  C   UNL     1       1.401   4.853  -1.220  0.00  0.00    +0.047 C 
ATOM     27  C   UNL     1      -0.915   5.392  -2.028  0.00  0.00    +0.047 C 
ENDBRANCH  24  25
ENDBRANCH  22  24
ENDBRANCH   3  22
TORSDOF 6
ENDMDL
MODEL 5
REMARK VINA RESULT:      -6.2      2.573      7.144
REMARK  Name = 
REMARK  6 active torsions:
REMARK  status: ('A' for Active; 'I' for Inactive)
REMARK    1  A    between atoms: O_2  and  C_3
REMARK    2  A    between atoms: C_3  and  C_5
REMARK    3  A    between atoms: C_11  and  C_12
REMARK    4  A    between atoms: C_12  and  O_14
REMARK    5  A    between atoms: O_14  and  C_15
REMARK    6  A    between atoms: C_18  and  C_19
REMARK                            x       y       z     vdW  Elec       q    Type
REMARK                         _______ _______ _______ _____ _____    ______ ____
ROOT
ATOM      1  C   UNL     1       4.331   5.537  -9.754  0.00  0.00    +0.073 C 
ATOM      2  C   UNL     1       3.088   6.530  -9.345  0.00  0.00    +0.083 C 
ATOM      3  C   UNL     1       2.702   5.724  -7.977  0.00  0.00    +0.073 C 
ATOM      4  C   UNL     1       3.690   5.326  -7.232  0.00  0.00    +0.051 C 
ATOM      5  C   UNL     1       3.273   4.431  -6.101  0.00  0.00    +0.049 C 
ATOM      6  N   UNL     1       5.061   5.486  -7.563  0.00  0.00    -0.221 NA
ATOM      7  C   UNL     1       5.346   5.776  -8.916  0.00  0.00    +0.051 C 
ATOM      8  C   UNL     1       6.763   5.817  -9.328  0.00  0.00    +0.049 C 
ENDROOT
BRANCH   2   9
ATOM      9  C   UNL     1       2.048   5.686 -10.282  0.00  0.00    +0.009 A 
ATOM     10  C   UNL     1       1.024   6.480 -10.793  0.00  0.00    +0.140 A 
ATOM     11  C   UNL     1      -0.094   5.856 -11.333  0.00  0.00    +0.143 A 
ATOM     12  N   UNL     1      -1.004   6.830 -11.576  0.00  0.00    -0.048 NA
ATOM     13  O   UNL     1      -0.415   7.967 -11.395  0.00  0.00    -0.242 OA
ATOM     14  C   UNL     1      -0.354   4.533 -11.015  0.00  0.00    +0.024 A 
ATOM     15  C   UNL     1       0.732   3.781 -10.615  0.00  0.00    +0.001 A 
ATOM     16  N   UNL     1       0.622   7.764 -10.621  0.00  0.00    -0.049 NA
ATOM     17  C   UNL     1       1.666   4.457  -9.839  0.00  0.00    -0.002 A 
ENDBRANCH   2   9
BRANCH   1  18
ATOM     18  C   UNL     1       4.715   5.699 -11.167  0.00  0.00    +0.339 C 
ATOM     19  O   UNL     1       4.821   6.865 -11.628  0.00  0.00    -0.245 OA
BRANCH  18  21
ATOM     20  C   UNL     1       4.421   4.935 -13.485  0.00  0.00    +0.256 C 
ATOM     21  O   UNL     1       4.493   4.699 -12.115  0.00  0.00    -0.442 OA
ENDBRANCH  18  21
ENDBRANCH   1  18
BRANCH   3  22
ATOM     22  C   UNL     1       1.698   6.530  -7.254  0.00  0.00    +0.339 C 
ATOM     23  O   UNL     1       2.030   7.691  -6.914  0.00  0.00    -0.245 OA
BRANCH  22  24
ATOM     24  O   UNL     1       0.349   6.244  -7.250  0.00  0.00    -0.449 OA
BRANCH  24  25
ATOM     25  C   UNL     1      -0.257   5.270  -6.405  0.00  0.00    +0.169 C 
ATOM     26  C   UNL     1       0.029   5.661  -4.965  0.00  0.00    +0.047 C 
ATOM     27  C   UNL     1      -1.753   5.297  -6.696  0.00  0.00    +0.047 C 
ENDBRANCH  24  25
ENDBRANCH  22  24
ENDBRANCH   3  22
TORSDOF 6
ENDMDL
MODEL 6
REMARK VINA RESULT:      -6.2      2.014      5.606
REMARK  Name = 
REMARK  6 active torsions:
REMARK  status: ('A' for Active; 'I' for Inactive)
REMARK    1  A    between atoms: O_2  and  C_3
REMARK    2  A    between atoms: C_3  and  C_5
REMARK    3  A    between atoms: C_11  and  C_12
REMARK    4  A    between atoms: C_12  and  O_14
REMARK    5  A    between atoms: O_14  and  C_15
REMARK    6  A    between atoms: C_18  and  C_19
REMARK                            x       y       z     vdW  Elec       q    Type
REMARK                         _______ _______ _______ _____ _____    ______ ____
ROOT
ATOM      1  C   UNL     1       3.338   6.501  -3.368  0.00  0.00    +0.073 C 
ATOM      2  C   UNL     1       2.157   7.108  -4.333  0.00  0.00    +0.083 C 
ATOM      3  C   UNL     1       0.958   6.214  -3.674  0.00  0.00    +0.073 C 
ATOM      4  C   UNL     1       0.956   6.097  -2.380  0.00  0.00    +0.051 C 
ATOM      5  C   UNL     1      -0.051   5.111  -1.862  0.00  0.00    +0.049 C 
ATOM      6  N   UNL     1       1.954   6.632  -1.524  0.00  0.00    -0.221 NA
ATOM      7  C   UNL     1       3.170   7.002  -2.139  0.00  0.00    +0.051 C 
ATOM      8  C   UNL     1       4.280   7.436  -1.267  0.00  0.00    +0.049 C 
ENDROOT
BRANCH   2   9
ATOM      9  C   UNL     1       2.492   6.020  -5.505  0.00  0.00    +0.009 A 
ATOM     10  C   UNL     1       2.502   6.589  -6.776  0.00  0.00    +0.140 A 
ATOM     11  C   UNL     1       2.455   5.747  -7.881  0.00  0.00    +0.143 A 
ATOM     12  N   UNL     1       2.283   6.540  -8.967  0.00  0.00    -0.048 NA
ATOM     13  O   UNL     1       2.423   7.766  -8.579  0.00  0.00    -0.242 OA
ATOM     14  C   UNL     1       2.017   4.443  -7.723  0.00  0.00    +0.024 A 
ATOM     15  C   UNL     1       2.136   3.912  -6.454  0.00  0.00    +0.001 A 
ATOM     16  N   UNL     1       2.202   7.808  -7.289  0.00  0.00    -0.049 NA
ATOM     17  C   UNL     1       1.890   4.803  -5.416  0.00  0.00    -0.002 A 
ENDBRANCH   2   9
BRANCH   1  18
ATOM     18  C   UNL     1       4.680   6.775  -3.912  0.00  0.00    +0.339 C 
ATOM     19  O   UNL     1       4.893   7.898  -4.441  0.00  0.00    -0.245 OA
BRANCH  18  21
ATOM     20  C   UNL     1       5.291   4.401  -4.091  0.00  0.00    +0.256 C 
ATOM     21  O   UNL     1       5.542   5.753  -4.310  0.00  0.00    -0.442 OA
ENDBRANCH  18  21
ENDBRANCH   1  18
BRANCH   3  22
ATOM     22  C   UNL     1      -0.319   6.706  -4.230  0.00  0.00    +0.339 C 
ATOM     23  O   UNL     1      -0.268   7.689  -5.007  0.00  0.00    -0.245 OA
BRANCH  22  24
ATOM     24  O   UNL     1      -1.481   5.963  -4.245  0.00  0.00    -0.449 OA
BRANCH  24  25
ATOM     25  C   UNL     1      -2.750   6.458  -3.826  0.00  0.00    +0.169 C 
ATOM     26  C   UNL     1      -3.552   5.284  -3.292  0.00  0.00    +0.047 C 
ATOM     27  C   UNL     1      -2.486   7.487  -2.732  0.00  0.00    +0.047 C 
ENDBRANCH  24  25
ENDBRANCH  22  24
ENDBRANCH   3  22
TORSDOF 6
ENDMDL
MODEL 7
REMARK VINA RESULT:      -6.2      1.761      2.424
REMARK  Name = 
REMARK  6 active torsions:
REMARK  status: ('A' for Active; 'I' for Inactive)
REMARK    1  A    between atoms: O_2  and  C_3
REMARK    2  A    between atoms: C_3  and  C_5
REMARK    3  A    between atoms: C_11  and  C_12
REMARK    4  A    between atoms: C_12  and  O_14
REMARK    5  A    between atoms: O_14  and  C_15
REMARK    6  A    between atoms: C_18  and  C_19
REMARK                            x       y       z     vdW  Elec       q    Type
REMARK                         _______ _______ _______ _____ _____    ______ ____
ROOT
ATOM      1  C   UNL     1      -0.305   5.971  -4.723  0.00  0.00    +0.073 C 
ATOM      2  C   UNL     1       1.170   6.690  -4.784  0.00  0.00    +0.083 C 
ATOM      3  C   UNL     1       1.964   5.350  -5.281  0.00  0.00    +0.073 C 
ATOM      4  C   UNL     1       1.384   4.629  -6.194  0.00  0.00    +0.051 C 
ATOM      5  C   UNL     1       2.072   3.322  -6.461  0.00  0.00    +0.049 C 
ATOM      6  N   UNL     1       0.094   4.892  -6.726  0.00  0.00    -0.221 NA
ATOM      7  C   UNL     1      -0.721   5.770  -5.978  0.00  0.00    +0.051 C 
ATOM      8  C   UNL     1      -2.116   5.964  -6.424  0.00  0.00    +0.049 C 
ENDROOT
BRANCH   2   9
ATOM      9  C   UNL     1       1.426   6.401  -3.196  0.00  0.00    +0.009 A 
ATOM     10  C   UNL     1       2.501   7.126  -2.687  0.00  0.00    +0.140 A 
ATOM     11  C   UNL     1       3.032   6.753  -1.458  0.00  0.00    +0.143 A 
ATOM     12  N   UNL     1       4.165   7.478  -1.288  0.00  0.00    -0.048 NA
ATOM     13  O   UNL     1       4.206   8.363  -2.230  0.00  0.00    -0.242 OA
ATOM     14  C   UNL     1       2.770   5.488  -0.960  0.00  0.00    +0.024 A 
ATOM     15  C   UNL     1       1.628   4.874  -1.435  0.00  0.00    +0.001 A 
ATOM     16  N   UNL     1       3.451   7.939  -3.213  0.00  0.00    -0.049 NA
ATOM     17  C   UNL     1       1.345   5.109  -2.775  0.00  0.00    -0.002 A 
ENDBRANCH   2   9
BRANCH   1  18
ATOM     18  C   UNL     1      -1.263   6.761  -3.928  0.00  0.00    +0.339 C 
ATOM     19  O   UNL     1      -1.268   8.012  -4.069  0.00  0.00    -0.245 OA
BRANCH  18  21
ATOM     20  C   UNL     1      -2.865   5.405  -2.649  0.00  0.00    +0.256 C 
ATOM     21  O   UNL     1      -1.794   6.291  -2.726  0.00  0.00    -0.442 OA
ENDBRANCH  18  21
ENDBRANCH   1  18
BRANCH   3  22
ATOM     22  C   UNL     1       3.342   5.754  -5.627  0.00  0.00    +0.339 C 
ATOM     23  O   UNL     1       4.279   5.159  -5.043  0.00  0.00    -0.245 OA
BRANCH  22  24
ATOM     24  O   UNL     1       3.668   6.453  -6.770  0.00  0.00    -0.449 OA
BRANCH  24  25
ATOM     25  C   UNL     1       3.742   5.870  -8.068  0.00  0.00    +0.169 C 
ATOM     26  C   UNL     1       3.305   6.920  -9.075  0.00  0.00    +0.047 C 
ATOM     27  C   UNL     1       5.195   5.465  -8.291  0.00  0.00    +0.047 C 
ENDBRANCH  24  25
ENDBRANCH  22  24
ENDBRANCH   3  22
TORSDOF 6
ENDMDL
MODEL 8
REMARK VINA RESULT:      -5.8      2.303      5.493
REMARK  Name = 
REMARK  6 active torsions:
REMARK  status: ('A' for Active; 'I' for Inactive)
REMARK    1  A    between atoms: O_2  and  C_3
REMARK    2  A    between atoms: C_3  and  C_5
REMARK    3  A    between atoms: C_11  and  C_12
REMARK    4  A    between atoms: C_12  and  O_14
REMARK    5  A    between atoms: O_14  and  C_15
REMARK    6  A    between atoms: C_18  and  C_19
REMARK                            x       y       z     vdW  Elec       q    Type
REMARK                         _______ _______ _______ _____ _____    ______ ____
ROOT
ATOM      1  C   UNL     1       2.538   5.665  -5.713  0.00  0.00    +0.073 C 
ATOM      2  C   UNL     1       2.091   5.147  -4.220  0.00  0.00    +0.083 C 
ATOM      3  C   UNL     1       0.931   6.279  -4.014  0.00  0.00    +0.073 C 
ATOM      4  C   UNL     1       0.170   6.533  -5.037  0.00  0.00    +0.051 C 
ATOM      5  C   UNL     1      -0.739   7.710  -4.838  0.00  0.00    +0.049 C 
ATOM      6  N   UNL     1       0.327   5.945  -6.320  0.00  0.00    -0.221 NA
ATOM      7  C   UNL     1       1.572   5.329  -6.575  0.00  0.00    +0.051 C 
ATOM      8  C   UNL     1       1.824   4.825  -7.941  0.00  0.00    +0.049 C 
ENDROOT
BRANCH   2   9
ATOM      9  C   UNL     1       3.262   6.041  -3.511  0.00  0.00    +0.009 A 
ATOM     10  C   UNL     1       3.654   5.527  -2.278  0.00  0.00    +0.140 A 
ATOM     11  C   UNL     1       4.396   6.336  -1.426  0.00  0.00    +0.143 A 
ATOM     12  N   UNL     1       4.479   5.681  -0.242  0.00  0.00    -0.048 NA
ATOM     13  O   UNL     1       4.010   4.490  -0.423  0.00  0.00    -0.242 OA
ATOM     14  C   UNL     1       4.398   7.707  -1.622  0.00  0.00    +0.024 A 
ATOM     15  C   UNL     1       4.100   8.137  -2.900  0.00  0.00    +0.001 A 
ATOM     16  N   UNL     1       3.231   4.519  -1.475  0.00  0.00    -0.049 NA
ATOM     17  C   UNL     1       3.130   7.394  -3.562  0.00  0.00    -0.002 A 
ENDBRANCH   2   9
BRANCH   1  18
ATOM     18  C   UNL     1       3.855   5.132  -6.103  0.00  0.00    +0.339 C 
ATOM     19  O   UNL     1       4.395   4.271  -5.361  0.00  0.00    -0.245 OA
BRANCH  18  21
ATOM     20  C   UNL     1       5.275   5.325  -8.100  0.00  0.00    +0.256 C 
ATOM     21  O   UNL     1       4.727   5.842  -6.929  0.00  0.00    -0.442 OA
ENDBRANCH  18  21
ENDBRANCH   1  18
BRANCH   3  22
ATOM     22  C   UNL     1       0.185   5.933  -2.788  0.00  0.00    +0.339 C 
ATOM     23  O   UNL     1       0.471   6.565  -1.743  0.00  0.00    -0.245 OA
BRANCH  22  24
ATOM     24  O   UNL     1      -1.011   5.248  -2.790  0.00  0.00    -0.449 OA
BRANCH  24  25
ATOM     25  C   UNL     1      -2.282   5.861  -2.588  0.00  0.00    +0.169 C 
ATOM     26  C   UNL     1      -3.291   5.138  -3.464  0.00  0.00    +0.047 C 
ATOM     27  C   UNL     1      -2.622   5.703  -1.110  0.00  0.00    +0.047 C 
ENDBRANCH  24  25
ENDBRANCH  22  24
ENDBRANCH   3  22
TORSDOF 6
ENDMDL
MODEL 9
REMARK VINA RESULT:      -5.7      2.230      5.528
REMARK  Name = 
REMARK  6 active torsions:
REMARK  status: ('A' for Active; 'I' for Inactive)
REMARK    1  A    between atoms: O_2  and  C_3
REMARK    2  A    between atoms: C_3  and  C_5
REMARK    3  A    between atoms: C_11  and  C_12
REMARK    4  A    between atoms: C_12  and  O_14
REMARK    5  A    between atoms: O_14  and  C_15
REMARK    6  A    between atoms: C_18  and  C_19
REMARK                            x       y       z     vdW  Elec       q    Type
REMARK                         _______ _______ _______ _____ _____    ______ ____
ROOT
ATOM      1  C   UNL     1       0.172   6.239  -5.093  0.00  0.00    +0.073 C 
ATOM      2  C   UNL     1       0.878   5.379  -3.885  0.00  0.00    +0.083 C 
ATOM      3  C   UNL     1       0.140   6.194  -2.676  0.00  0.00    +0.073 C 
ATOM      4  C   UNL     1      -1.120   6.468  -2.836  0.00  0.00    +0.051 C 
ATOM      5  C   UNL     1      -1.680   7.379  -1.782  0.00  0.00    +0.049 C 
ATOM      6  N   UNL     1      -1.865   6.167  -4.006  0.00  0.00    -0.221 NA
ATOM      7  C   UNL     1      -1.113   5.875  -5.166  0.00  0.00    +0.051 C 
ATOM      8  C   UNL     1      -1.847   5.690  -6.434  0.00  0.00    +0.049 C 
ENDROOT
BRANCH   2   9
ATOM      9  C   UNL     1       2.193   6.349  -3.903  0.00  0.00    +0.009 A 
ATOM     10  C   UNL     1       3.368   5.651  -4.174  0.00  0.00    +0.140 A 
ATOM     11  C   UNL     1       4.584   6.270  -3.911  0.00  0.00    +0.143 A 
ATOM     12  N   UNL     1       5.544   5.328  -4.076  0.00  0.00    -0.048 NA
ATOM     13  O   UNL     1       4.981   4.286  -4.596  0.00  0.00    -0.242 OA
ATOM     14  C   UNL     1       4.622   7.357  -3.053  0.00  0.00    +0.024 A 
ATOM     15  C   UNL     1       3.442   8.062  -2.915  0.00  0.00    +0.001 A 
ATOM     16  N   UNL     1       3.700   4.346  -4.329  0.00  0.00    -0.049 NA
ATOM     17  C   UNL     1       2.288   7.289  -2.923  0.00  0.00    -0.002 A 
ENDBRANCH   2   9
BRANCH   1  18
ATOM     18  C   UNL     1       0.883   6.066  -6.372  0.00  0.00    +0.339 C 
ATOM     19  O   UNL     1       1.261   4.909  -6.693  0.00  0.00    -0.245 OA
BRANCH  18  21
ATOM     20  C   UNL     1       2.641   6.930  -7.856  0.00  0.00    +0.256 C 
ATOM     21  O   UNL     1       1.570   7.114  -6.986  0.00  0.00    -0.442 OA
ENDBRANCH  18  21
ENDBRANCH   1  18
BRANCH   3  22
ATOM     22  C   UNL     1       0.441   5.486  -1.415  0.00  0.00    +0.339 C 
ATOM     23  O   UNL     1       0.256   4.245  -1.394  0.00  0.00    -0.245 OA
BRANCH  22  24
ATOM     24  O   UNL     1       1.229   6.012  -0.414  0.00  0.00    -0.449 OA
BRANCH  24  25
ATOM     25  C   UNL     1       0.981   7.265   0.220  0.00  0.00    +0.169 C 
ATOM     26  C   UNL     1       0.053   7.014   1.396  0.00  0.00    +0.047 C 
ATOM     27  C   UNL     1       2.330   7.800   0.688  0.00  0.00    +0.047 C 
ENDBRANCH  24  25
ENDBRANCH  22  24
ENDBRANCH   3  22
TORSDOF 6
ENDMDL
