MODEL 1
REMARK VINA RESULT:      -9.9      0.000      0.000
REMARK  Name = 
REMARK  4 active torsions:
REMARK  status: ('A' for Active; 'I' for Inactive)
REMARK    1  A    between atoms: C_2  and  C_3
REMARK    2  A    between atoms: C_3  and  N_4
REMARK    3  A    between atoms: C_3  and  C_14
REMARK    4  A    between atoms: N_25  and  C_26
REMARK                            x       y       z     vdW  Elec       q    Type
REMARK                         _______ _______ _______ _____ _____    ______ ____
ROOT
ATOM      1  C   UNL     1       1.295   5.146  -5.803  0.00  0.00    +0.146 A 
ATOM      2  N   UNL     1       1.579   5.259  -4.479  0.00  0.00    -0.261 N 
ATOM      3  C   UNL     1       0.549   5.183  -3.597  0.00  0.00    +0.269 A 
ATOM      4  O   UNL     1       0.786   5.215  -2.351  0.00  0.00    -0.266 OA
ATOM      5  C   UNL     1      -0.767   5.420  -3.985  0.00  0.00    +0.102 A 
ATOM      6  C   UNL     1      -0.955   5.767  -5.295  0.00  0.00    +0.089 A 
ATOM      7  C   UNL     1      -1.982   6.621  -5.684  0.00  0.00    +0.019 A 
ATOM      8  C   UNL     1      -2.854   7.121  -4.749  0.00  0.00    +0.004 A 
ATOM      9  C   UNL     1      -2.864   6.546  -3.488  0.00  0.00    +0.030 A 
ATOM     10  C   UNL     1      -1.737   5.848  -3.087  0.00  0.00    +0.146 A 
ATOM     11  F   UNL     1      -1.619   5.389  -1.823  0.00  0.00    -0.204 F 
ATOM     12  N   UNL     1       0.072   5.570  -6.135  0.00  0.00    -0.230 NA
ENDROOT
BRANCH   2  13
ATOM     13  C   UNL     1       2.817   5.739  -3.968  0.00  0.00    +0.068 A 
ATOM     14  C   UNL     1       3.981   5.025  -3.926  0.00  0.00    +0.018 A 
ATOM     15  C   UNL     1       5.227   5.556  -4.114  0.00  0.00    +0.001 A 
ATOM     16  C   UNL     1       5.373   6.917  -4.032  0.00  0.00    +0.000 A 
ATOM     17  C   UNL     1       4.254   7.693  -3.838  0.00  0.00    +0.001 A 
ATOM     18  C   UNL     1       3.017   7.094  -3.721  0.00  0.00    +0.018 A 
ENDBRANCH   2  13
BRANCH   1  19
ATOM     19  C   UNL     1       2.520   5.767  -6.697  0.00  0.00    +0.151 C 
BRANCH  19  20
ATOM     20  N   UNL     1       2.098   4.965  -8.010  0.00  0.00    -0.213 NA
ATOM     21  C   UNL     1       1.948   5.702  -9.186  0.00  0.00    +0.170 A 
ATOM     22  C   UNL     1       2.885   5.568 -10.201  0.00  0.00    +0.152 A 
ATOM     23  C   UNL     1       2.480   5.764 -11.516  0.00  0.00    +0.186 A 
ATOM     24  N   UNL     1       3.573   5.657 -12.307  0.00  0.00    -0.203 NA
ATOM     25  C   UNL     1       4.625   5.474 -11.473  0.00  0.00    +0.200 A 
ATOM     26  N   UNL     1       1.186   5.557 -11.863  0.00  0.00    -0.203 NA
ATOM     27  C   UNL     1       0.288   5.797 -10.880  0.00  0.00    +0.202 A 
ATOM     28  N   UNL     1       4.114   5.009 -10.307  0.00  0.00    -0.218 NA
ATOM     29  N   UNL     1       0.693   6.000  -9.603  0.00  0.00    -0.206 NA
ENDBRANCH  19  20
BRANCH  19  31
ATOM     30  C   UNL     1       1.903   7.660  -7.114  0.00  0.00    +0.002 C 
ATOM     31  C   UNL     1       1.691   7.124  -7.207  0.00  0.00    +0.029 C 
ENDBRANCH  19  31
ENDBRANCH   1  19
TORSDOF 4
ENDMDL
MODEL 2
REMARK VINA RESULT:      -9.6      3.405      7.944
REMARK  Name = 
REMARK  4 active torsions:
REMARK  status: ('A' for Active; 'I' for Inactive)
REMARK    1  A    between atoms: C_2  and  C_3
REMARK    2  A    between atoms: C_3  and  N_4
REMARK    3  A    between atoms: C_3  and  C_14
REMARK    4  A    between atoms: N_25  and  C_26
REMARK                            x       y       z     vdW  Elec       q    Type
REMARK                         _______ _______ _______ _____ _____    ______ ____
ROOT
ATOM      1  C   UNL     1       3.444   5.889  -4.639  0.00  0.00    +0.146 A 
ATOM      2  N   UNL     1       2.221   5.458  -5.049  0.00  0.00    -0.261 N 
ATOM      3  C   UNL     1       2.167   4.620  -6.117  0.00  0.00    +0.269 A 
ATOM      4  O   UNL     1       1.050   4.143  -6.483  0.00  0.00    -0.266 OA
ATOM      5  C   UNL     1       3.211   4.531  -7.033  0.00  0.00    +0.102 A 
ATOM      6  C   UNL     1       4.275   5.362  -6.815  0.00  0.00    +0.089 A 
ATOM      7  C   UNL     1       5.030   5.875  -7.866  0.00  0.00    +0.019 A 
ATOM      8  C   UNL     1       4.727   5.534  -9.161  0.00  0.00    +0.004 A 
ATOM      9  C   UNL     1       3.863   4.472  -9.375  0.00  0.00    +0.030 A 
ATOM     10  C   UNL     1       3.011   4.115  -8.343  0.00  0.00    +0.146 A 
ATOM     11  F   UNL     1       2.045   3.190  -8.531  0.00  0.00    -0.204 F 
ATOM     12  N   UNL     1       4.353   5.959  -5.616  0.00  0.00    -0.230 NA
ENDROOT
BRANCH   2  13
ATOM     13  C   UNL     1       0.992   6.042  -4.637  0.00  0.00    +0.068 A 
ATOM     14  C   UNL     1       0.296   6.989  -5.334  0.00  0.00    +0.018 A 
ATOM     15  C   UNL     1      -1.067   7.070  -5.390  0.00  0.00    +0.001 A 
ATOM     16  C   UNL     1      -1.798   6.372  -4.464  0.00  0.00    +0.000 A 
ATOM     17  C   UNL     1      -1.137   5.567  -3.566  0.00  0.00    +0.001 A 
ATOM     18  C   UNL     1       0.240   5.483  -3.607  0.00  0.00    +0.018 A 
ENDBRANCH   2  13
BRANCH   1  19
ATOM     19  C   UNL     1       3.287   7.242  -3.728  0.00  0.00    +0.151 C 
BRANCH  19  20
ATOM     20  N   UNL     1       3.476   6.457  -2.353  0.00  0.00    -0.213 NA
ATOM     21  C   UNL     1       3.516   7.219  -1.185  0.00  0.00    +0.170 A 
ATOM     22  C   UNL     1       2.446   7.176  -0.303  0.00  0.00    +0.152 A 
ATOM     23  C   UNL     1       2.683   7.386   1.051  0.00  0.00    +0.186 A 
ATOM     24  N   UNL     1       1.491   7.373   1.688  0.00  0.00    -0.203 NA
ATOM     25  C   UNL     1       0.550   7.230   0.724  0.00  0.00    +0.200 A 
ATOM     26  N   UNL     1       3.904   7.110   1.573  0.00  0.00    -0.203 NA
ATOM     27  C   UNL     1       4.938   7.263   0.716  0.00  0.00    +0.202 A 
ATOM     28  N   UNL     1       1.179   6.698  -0.352  0.00  0.00    -0.218 NA
ATOM     29  N   UNL     1       4.722   7.451  -0.609  0.00  0.00    -0.206 NA
ENDBRANCH  19  20
BRANCH  19  31
ATOM     30  C   UNL     1       5.096   8.096  -4.099  0.00  0.00    +0.002 C 
ATOM     31  C   UNL     1       4.904   7.661  -3.761  0.00  0.00    +0.029 C 
ENDBRANCH  19  31
ENDBRANCH   1  19
TORSDOF 4
ENDMDL
MODEL 3
REMARK VINA RESULT:      -9.5      0.584      1.021
REMARK  Name = 
REMARK  4 active torsions:
REMARK  status: ('A' for Active; 'I' for Inactive)
REMARK    1  A    between atoms: C_2  and  C_3
REMARK    2  A    between atoms: C_3  and  N_4
REMARK    3  A    between atoms: C_3  and  C_14
REMARK    4  A    between atoms: N_25  and  C_26
REMARK                            x       y       z     vdW  Elec       q    Type
REMARK                         _______ _______ _______ _____ _____    ______ ____
ROOT
ATOM      1  C   UNL     1       1.374   5.158  -5.713  0.00  0.00    +0.146 A 
ATOM      2  N   UNL     1       1.618   5.360  -4.391  0.00  0.00    -0.261 N 
ATOM      3  C   UNL     1       0.570   5.281  -3.531  0.00  0.00    +0.269 A 
ATOM      4  O   UNL     1       0.772   5.394  -2.283  0.00  0.00    -0.266 OA
ATOM      5  C   UNL     1      -0.745   5.426  -3.962  0.00  0.00    +0.102 A 
ATOM      6  C   UNL     1      -0.916   5.689  -5.294  0.00  0.00    +0.089 A 
ATOM      7  C   UNL     1      -1.975   6.464  -5.755  0.00  0.00    +0.019 A 
ATOM      8  C   UNL     1      -2.895   6.971  -4.871  0.00  0.00    +0.004 A 
ATOM      9  C   UNL     1      -2.909   6.468  -3.580  0.00  0.00    +0.030 A 
ATOM     10  C   UNL     1      -1.759   5.853  -3.113  0.00  0.00    +0.146 A 
ATOM     11  F   UNL     1      -1.651   5.473  -1.823  0.00  0.00    -0.204 F 
ATOM     12  N   UNL     1       0.140   5.498  -6.098  0.00  0.00    -0.230 NA
ENDROOT
BRANCH   2  13
ATOM     13  C   UNL     1       2.816   5.931  -3.881  0.00  0.00    +0.068 A 
ATOM     14  C   UNL     1       3.025   7.264  -3.668  0.00  0.00    +0.018 A 
ATOM     15  C   UNL     1       3.758   7.783  -2.636  0.00  0.00    +0.001 A 
ATOM     16  C   UNL     1       4.594   6.942  -1.947  0.00  0.00    +0.000 A 
ATOM     17  C   UNL     1       4.607   5.606  -2.272  0.00  0.00    +0.001 A 
ATOM     18  C   UNL     1       3.793   5.139  -3.283  0.00  0.00    +0.018 A 
ENDBRANCH   2  13
BRANCH   1  19
ATOM     19  C   UNL     1       2.589   5.789  -6.613  0.00  0.00    +0.151 C 
BRANCH  19  20
ATOM     20  N   UNL     1       2.210   4.933  -7.904  0.00  0.00    -0.213 NA
ATOM     21  C   UNL     1       2.016   5.630  -9.097  0.00  0.00    +0.170 A 
ATOM     22  C   UNL     1       2.957   5.524 -10.112  0.00  0.00    +0.152 A 
ATOM     23  C   UNL     1       2.539   5.664 -11.430  0.00  0.00    +0.186 A 
ATOM     24  N   UNL     1       3.633   5.600 -12.222  0.00  0.00    -0.203 NA
ATOM     25  C   UNL     1       4.696   5.496 -11.388  0.00  0.00    +0.200 A 
ATOM     26  N   UNL     1       1.257   5.377 -11.767  0.00  0.00    -0.203 NA
ATOM     27  C   UNL     1       0.350   5.590 -10.787  0.00  0.00    +0.202 A 
ATOM     28  N   UNL     1       4.216   5.033 -10.208  0.00  0.00    -0.218 NA
ATOM     29  N   UNL     1       0.745   5.847  -9.516  0.00  0.00    -0.206 NA
ENDBRANCH  19  20
BRANCH  19  31
ATOM     30  C   UNL     1       1.920   7.647  -7.105  0.00  0.00    +0.002 C 
ATOM     31  C   UNL     1       1.723   7.102  -7.176  0.00  0.00    +0.029 C 
ENDBRANCH  19  31
ENDBRANCH   1  19
TORSDOF 4
ENDMDL
MODEL 4
REMARK VINA RESULT:      -9.4      1.433      2.049
REMARK  Name = 
REMARK  4 active torsions:
REMARK  status: ('A' for Active; 'I' for Inactive)
REMARK    1  A    between atoms: C_2  and  C_3
REMARK    2  A    between atoms: C_3  and  N_4
REMARK    3  A    between atoms: C_3  and  C_14
REMARK    4  A    between atoms: N_25  and  C_26
REMARK                            x       y       z     vdW  Elec       q    Type
REMARK                         _______ _______ _______ _____ _____    ______ ____
ROOT
ATOM      1  C   UNL     1       2.117   5.619  -6.183  0.00  0.00    +0.146 A 
ATOM      2  N   UNL     1       2.225   5.692  -4.830  0.00  0.00    -0.261 N 
ATOM      3  C   UNL     1       1.152   5.320  -4.084  0.00  0.00    +0.269 A 
ATOM      4  O   UNL     1       1.241   5.309  -2.818  0.00  0.00    -0.266 OA
ATOM      5  C   UNL     1      -0.134   5.285  -4.616  0.00  0.00    +0.102 A 
ATOM      6  C   UNL     1      -0.256   5.680  -5.920  0.00  0.00    +0.089 A 
ATOM      7  C   UNL     1      -1.406   6.309  -6.389  0.00  0.00    +0.019 A 
ATOM      8  C   UNL     1      -2.464   6.529  -5.542  0.00  0.00    +0.004 A 
ATOM      9  C   UNL     1      -2.475   5.872  -4.322  0.00  0.00    +0.030 A 
ATOM     10  C   UNL     1      -1.266   5.416  -3.822  0.00  0.00    +0.146 A 
ATOM     11  F   UNL     1      -1.181   4.900  -2.578  0.00  0.00    -0.204 F 
ATOM     12  N   UNL     1       0.871   5.782  -6.639  0.00  0.00    -0.230 NA
ENDROOT
BRANCH   2  13
ATOM     13  C   UNL     1       3.257   6.396  -4.150  0.00  0.00    +0.068 A 
ATOM     14  C   UNL     1       3.152   7.666  -3.659  0.00  0.00    +0.018 A 
ATOM     15  C   UNL     1       3.740   8.107  -2.506  0.00  0.00    +0.001 A 
ATOM     16  C   UNL     1       4.744   7.349  -1.958  0.00  0.00    +0.000 A 
ATOM     17  C   UNL     1       5.066   6.149  -2.547  0.00  0.00    +0.001 A 
ATOM     18  C   UNL     1       4.386   5.735  -3.675  0.00  0.00    +0.018 A 
ENDBRANCH   2  13
BRANCH   1  19
ATOM     19  C   UNL     1       3.254   6.564  -6.890  0.00  0.00    +0.151 C 
BRANCH  19  20
ATOM     20  N   UNL     1       3.525   5.524  -8.069  0.00  0.00    -0.213 NA
ATOM     21  C   UNL     1       4.014   6.037  -9.271  0.00  0.00    +0.170 A 
ATOM     22  C   UNL     1       5.329   5.789  -9.636  0.00  0.00    +0.152 A 
ATOM     23  C   UNL     1       5.651   5.731 -10.987  0.00  0.00    +0.186 A 
ATOM     24  N   UNL     1       6.988   5.558 -11.089  0.00  0.00    -0.203 NA
ATOM     25  C   UNL     1       7.469   5.586  -9.822  0.00  0.00    +0.200 A 
ATOM     26  N   UNL     1       4.701   5.388 -11.893  0.00  0.00    -0.203 NA
ATOM     27  C   UNL     1       3.440   5.738 -11.555  0.00  0.00    +0.202 A 
ATOM     28  N   UNL     1       6.425   5.297  -9.008  0.00  0.00    -0.218 NA
ATOM     29  N   UNL     1       3.151   6.181 -10.307  0.00  0.00    -0.206 NA
ENDBRANCH  19  20
BRANCH  19  31
ATOM     30  C   UNL     1       2.119   8.006  -7.768  0.00  0.00    +0.002 C 
ATOM     31  C   UNL     1       2.189   7.431  -7.841  0.00  0.00    +0.029 C 
ENDBRANCH  19  31
ENDBRANCH   1  19
TORSDOF 4
ENDMDL
MODEL 5
REMARK VINA RESULT:      -9.1      2.956      6.806
REMARK  Name = 
REMARK  4 active torsions:
REMARK  status: ('A' for Active; 'I' for Inactive)
REMARK    1  A    between atoms: C_2  and  C_3
REMARK    2  A    between atoms: C_3  and  N_4
REMARK    3  A    between atoms: C_3  and  C_14
REMARK    4  A    between atoms: N_25  and  C_26
REMARK                            x       y       z     vdW  Elec       q    Type
REMARK                         _______ _______ _______ _____ _____    ______ ____
ROOT
ATOM      1  C   UNL     1       0.291   6.247  -6.815  0.00  0.00    +0.146 A 
ATOM      2  N   UNL     1       1.642   6.356  -6.716  0.00  0.00    -0.261 N 
ATOM      3  C   UNL     1       2.335   6.711  -7.829  0.00  0.00    +0.269 A 
ATOM      4  O   UNL     1       3.589   6.891  -7.756  0.00  0.00    -0.266 OA
ATOM      5  C   UNL     1       1.804   6.551  -9.106  0.00  0.00    +0.102 A 
ATOM      6  C   UNL     1       0.561   5.985  -9.173  0.00  0.00    +0.089 A 
ATOM      7  C   UNL     1       0.177   5.191 -10.250  0.00  0.00    +0.019 A 
ATOM      8  C   UNL     1       1.046   4.976 -11.291  0.00  0.00    +0.004 A 
ATOM      9  C   UNL     1       2.172   5.778 -11.382  0.00  0.00    +0.030 A 
ATOM     10  C   UNL     1       2.609   6.410 -10.229  0.00  0.00    +0.146 A 
ATOM     11  F   UNL     1       3.778   7.085 -10.210  0.00  0.00    -0.204 F 
ATOM     12  N   UNL     1      -0.140   5.905  -8.033  0.00  0.00    -0.230 NA
ENDROOT
BRANCH   2  13
ATOM     13  C   UNL     1       2.405   5.849  -5.628  0.00  0.00    +0.068 A 
ATOM     14  C   UNL     1       2.729   4.536  -5.438  0.00  0.00    +0.018 A 
ATOM     15  C   UNL     1       3.909   4.094  -4.908  0.00  0.00    +0.001 A 
ATOM     16  C   UNL     1       4.698   4.994  -4.238  0.00  0.00    +0.000 A 
ATOM     17  C   UNL     1       4.307   6.311  -4.190  0.00  0.00    +0.001 A 
ATOM     18  C   UNL     1       3.134   6.700  -4.802  0.00  0.00    +0.018 A 
ENDBRANCH   2  13
BRANCH   1  19
ATOM     19  C   UNL     1      -0.292   5.337  -5.583  0.00  0.00    +0.151 C 
BRANCH  19  20
ATOM     20  N   UNL     1      -0.236   6.541  -4.538  0.00  0.00    -0.213 NA
ATOM     21  C   UNL     1      -0.717   6.292  -3.252  0.00  0.00    +0.170 A 
ATOM     22  C   UNL     1       0.174   6.198  -2.193  0.00  0.00    +0.152 A 
ATOM     23  C   UNL     1      -0.255   6.561  -0.922  0.00  0.00    +0.186 A 
ATOM     24  N   UNL     1       0.755   6.313  -0.057  0.00  0.00    -0.203 NA
ATOM     25  C   UNL     1       1.745   5.744  -0.786  0.00  0.00    +0.200 A 
ATOM     26  N   UNL     1      -1.266   7.453  -0.778  0.00  0.00    -0.203 NA
ATOM     27  C   UNL     1      -2.177   7.446  -1.778  0.00  0.00    +0.202 A 
ATOM     28  N   UNL     1       1.520   6.091  -2.076  0.00  0.00    -0.218 NA
ATOM     29  N   UNL     1      -1.947   6.760  -2.924  0.00  0.00    -0.206 NA
ENDBRANCH  19  20
BRANCH  19  31
ATOM     30  C   UNL     1      -2.241   5.227  -6.154  0.00  0.00    +0.002 C 
ATOM     31  C   UNL     1      -1.906   5.631  -5.899  0.00  0.00    +0.029 C 
ENDBRANCH  19  31
ENDBRANCH   1  19
TORSDOF 4
ENDMDL
MODEL 6
REMARK VINA RESULT:      -9.0      2.730      5.609
REMARK  Name = 
REMARK  4 active torsions:
REMARK  status: ('A' for Active; 'I' for Inactive)
REMARK    1  A    between atoms: C_2  and  C_3
REMARK    2  A    between atoms: C_3  and  N_4
REMARK    3  A    between atoms: C_3  and  C_14
REMARK    4  A    between atoms: N_25  and  C_26
REMARK                            x       y       z     vdW  Elec       q    Type
REMARK                         _______ _______ _______ _____ _____    ______ ____
ROOT
ATOM      1  C   UNL     1       3.217   6.743  -8.581  0.00  0.00    +0.146 A 
ATOM      2  N   UNL     1       1.898   6.788  -8.255  0.00  0.00    -0.261 N 
ATOM      3  C   UNL     1       1.570   7.034  -6.961  0.00  0.00    +0.269 A 
ATOM      4  O   UNL     1       0.350   7.153  -6.634  0.00  0.00    -0.266 OA
ATOM      5  C   UNL     1       2.472   6.819  -5.923  0.00  0.00    +0.102 A 
ATOM      6  C   UNL     1       3.692   6.315  -6.280  0.00  0.00    +0.089 A 
ATOM      7  C   UNL     1       4.411   5.474  -5.436  0.00  0.00    +0.019 A 
ATOM      8  C   UNL     1       3.911   5.147  -4.200  0.00  0.00    +0.004 A 
ATOM      9  C   UNL     1       2.844   5.882  -3.709  0.00  0.00    +0.030 A 
ATOM     10  C   UNL     1       2.056   6.564  -4.622  0.00  0.00    +0.146 A 
ATOM     11  F   UNL     1       0.919   7.177  -4.232  0.00  0.00    -0.204 F 
ATOM     12  N   UNL     1       4.011   6.345  -7.583  0.00  0.00    -0.230 NA
ENDROOT
BRANCH   2  13
ATOM     13  C   UNL     1       0.853   6.314  -9.096  0.00  0.00    +0.068 A 
ATOM     14  C   UNL     1       0.340   6.985 -10.170  0.00  0.00    +0.018 A 
ATOM     15  C   UNL     1      -0.090   6.393 -11.324  0.00  0.00    +0.001 A 
ATOM     16  C   UNL     1      -0.322   5.041 -11.314  0.00  0.00    +0.000 A 
ATOM     17  C   UNL     1      -0.044   4.329 -10.171  0.00  0.00    +0.001 A 
ATOM     18  C   UNL     1       0.450   4.982  -9.061  0.00  0.00    +0.018 A 
ENDBRANCH   2  13
BRANCH   1  19
ATOM     19  C   UNL     1       3.420   5.946  -9.999  0.00  0.00    +0.151 C 
BRANCH  19  20
ATOM     20  N   UNL     1       4.849   6.598 -10.274  0.00  0.00    -0.213 NA
ATOM     21  C   UNL     1       5.889   5.733 -10.616  0.00  0.00    +0.170 A 
ATOM     22  C   UNL     1       6.373   5.725 -11.917  0.00  0.00    +0.152 A 
ATOM     23  C   UNL     1       7.703   5.387 -12.135  0.00  0.00    +0.186 A 
ATOM     24  N   UNL     1       7.915   5.375 -13.470  0.00  0.00    -0.203 NA
ATOM     25  C   UNL     1       6.715   5.630 -14.044  0.00  0.00    +0.200 A 
ATOM     26  N   UNL     1       8.620   5.581 -11.154  0.00  0.00    -0.203 NA
ATOM     27  C   UNL     1       8.136   5.479  -9.895  0.00  0.00    +0.202 A 
ATOM     28  N   UNL     1       5.958   6.240 -13.100  0.00  0.00    -0.218 NA
ATOM     29  N   UNL     1       6.802   5.417  -9.665  0.00  0.00    -0.206 NA
ENDBRANCH  19  20
BRANCH  19  31
ATOM     30  C   UNL     1       3.804   4.109  -9.214  0.00  0.00    +0.002 C 
ATOM     31  C   UNL     1       4.121   4.584  -9.333  0.00  0.00    +0.029 C 
ENDBRANCH  19  31
ENDBRANCH   1  19
TORSDOF 4
ENDMDL
MODEL 7
REMARK VINA RESULT:      -9.0      3.835      7.699
REMARK  Name = 
REMARK  4 active torsions:
REMARK  status: ('A' for Active; 'I' for Inactive)
REMARK    1  A    between atoms: C_2  and  C_3
REMARK    2  A    between atoms: C_3  and  N_4
REMARK    3  A    between atoms: C_3  and  C_14
REMARK    4  A    between atoms: N_25  and  C_26
REMARK                            x       y       z     vdW  Elec       q    Type
REMARK                         _______ _______ _______ _____ _____    ______ ____
ROOT
ATOM      1  C   UNL     1       3.416   6.461 -10.000  0.00  0.00    +0.146 A 
ATOM      2  N   UNL     1       4.281   6.472 -11.048  0.00  0.00    -0.261 N 
ATOM      3  C   UNL     1       3.764   6.573 -12.300  0.00  0.00    +0.269 A 
ATOM      4  O   UNL     1       4.545   6.656 -13.296  0.00  0.00    -0.266 OA
ATOM      5  C   UNL     1       2.440   6.244 -12.575  0.00  0.00    +0.102 A 
ATOM      6  C   UNL     1       1.704   5.780 -11.519  0.00  0.00    +0.089 A 
ATOM      7  C   UNL     1       0.683   4.850 -11.692  0.00  0.00    +0.019 A 
ATOM      8  C   UNL     1       0.378   4.389 -12.949  0.00  0.00    +0.004 A 
ATOM      9  C   UNL     1       0.898   5.066 -14.041  0.00  0.00    +0.030 A 
ATOM     10  C   UNL     1       2.024   5.846 -13.840  0.00  0.00    +0.146 A 
ATOM     11  F   UNL     1       2.668   6.414 -14.881  0.00  0.00    -0.204 F 
ATOM     12  N   UNL     1       2.214   5.954 -10.291  0.00  0.00    -0.230 NA
ENDROOT
BRANCH   2  13
ATOM     13  C   UNL     1       5.649   6.095 -10.955  0.00  0.00    +0.068 A 
ATOM     14  C   UNL     1       6.230   5.063 -11.636  0.00  0.00    +0.018 A 
ATOM     15  C   UNL     1       7.509   5.072 -12.120  0.00  0.00    +0.001 A 
ATOM     16  C   UNL     1       8.377   6.021 -11.646  0.00  0.00    +0.000 A 
ATOM     17  C   UNL     1       7.910   6.966 -10.762  0.00  0.00    +0.001 A 
ATOM     18  C   UNL     1       6.589   6.936 -10.364  0.00  0.00    +0.018 A 
ENDBRANCH   2  13
BRANCH   1  19
ATOM     19  C   UNL     1       4.143   5.827  -8.675  0.00  0.00    +0.151 C 
BRANCH  19  20
ATOM     20  N   UNL     1       3.040   6.399  -7.675  0.00  0.00    -0.213 NA
ATOM     21  C   UNL     1       2.965   5.816  -6.409  0.00  0.00    +0.170 A 
ATOM     22  C   UNL     1       3.394   6.532  -5.300  0.00  0.00    +0.152 A 
ATOM     23  C   UNL     1       2.802   6.278  -4.069  0.00  0.00    +0.186 A 
ATOM     24  N   UNL     1       3.434   7.033  -3.141  0.00  0.00    -0.203 NA
ATOM     25  C   UNL     1       4.435   7.671  -3.793  0.00  0.00    +0.200 A 
ATOM     26  N   UNL     1       1.538   5.788  -4.015  0.00  0.00    -0.203 NA
ATOM     27  C   UNL     1       1.186   5.008  -5.061  0.00  0.00    +0.202 A 
ATOM     28  N   UNL     1       4.100   7.672  -5.106  0.00  0.00    -0.218 NA
ATOM     29  N   UNL     1       1.966   4.932  -6.167  0.00  0.00    -0.206 NA
ENDBRANCH  19  20
BRANCH  19  31
ATOM     30  C   UNL     1       3.665   3.860  -8.881  0.00  0.00    +0.002 C 
ATOM     31  C   UNL     1       3.372   4.347  -8.748  0.00  0.00    +0.029 C 
ENDBRANCH  19  31
ENDBRANCH   1  19
TORSDOF 4
ENDMDL
MODEL 8
REMARK VINA RESULT:      -8.8      3.679      8.298
REMARK  Name = 
REMARK  4 active torsions:
REMARK  status: ('A' for Active; 'I' for Inactive)
REMARK    1  A    between atoms: C_2  and  C_3
REMARK    2  A    between atoms: C_3  and  N_4
REMARK    3  A    between atoms: C_3  and  C_14
REMARK    4  A    between atoms: N_25  and  C_26
REMARK                            x       y       z     vdW  Elec       q    Type
REMARK                         _______ _______ _______ _____ _____    ______ ____
ROOT
ATOM      1  C   UNL     1       3.497   4.975  -9.561  0.00  0.00    +0.146 A 
ATOM      2  N   UNL     1       3.172   5.044 -10.880  0.00  0.00    -0.261 N 
ATOM      3  C   UNL     1       4.183   5.032 -11.787  0.00  0.00    +0.269 A 
ATOM      4  O   UNL     1       3.914   5.024 -13.026  0.00  0.00    -0.266 OA
ATOM      5  C   UNL     1       5.486   5.375 -11.436  0.00  0.00    +0.102 A 
ATOM      6  C   UNL     1       5.678   5.758 -10.137  0.00  0.00    +0.089 A 
ATOM      7  C   UNL     1       6.646   6.695  -9.787  0.00  0.00    +0.019 A 
ATOM      8  C   UNL     1       7.453   7.245 -10.753  0.00  0.00    +0.004 A 
ATOM      9  C   UNL     1       7.477   6.651 -12.004  0.00  0.00    +0.030 A 
ATOM     10  C   UNL     1       6.397   5.862 -12.365  0.00  0.00    +0.146 A 
ATOM     11  F   UNL     1       6.284   5.374 -13.618  0.00  0.00    -0.204 F 
ATOM     12  N   UNL     1       4.691   5.498  -9.268  0.00  0.00    -0.230 NA
ENDROOT
BRANCH   2  13
ATOM     13  C   UNL     1       1.888   5.418 -11.365  0.00  0.00    +0.068 A 
ATOM     14  C   UNL     1       0.778   4.623 -11.349  0.00  0.00    +0.018 A 
ATOM     15  C   UNL     1      -0.497   5.070 -11.138  0.00  0.00    +0.001 A 
ATOM     16  C   UNL     1      -0.742   6.414 -11.256  0.00  0.00    +0.000 A 
ATOM     17  C   UNL     1       0.312   7.261 -11.508  0.00  0.00    +0.001 A 
ATOM     18  C   UNL     1       1.585   6.747 -11.647  0.00  0.00    +0.018 A 
ENDBRANCH   2  13
BRANCH   1  19
ATOM     19  C   UNL     1       2.250   5.515  -8.645  0.00  0.00    +0.151 C 
BRANCH  19  20
ATOM     20  N   UNL     1       2.744   4.740  -7.342  0.00  0.00    -0.213 NA
ATOM     21  C   UNL     1       2.979   5.502  -6.198  0.00  0.00    +0.170 A 
ATOM     22  C   UNL     1       2.108   5.409  -5.122  0.00  0.00    +0.152 A 
ATOM     23  C   UNL     1       2.599   5.631  -3.840  0.00  0.00    +0.186 A 
ATOM     24  N   UNL     1       1.559   5.561  -2.979  0.00  0.00    -0.203 NA
ATOM     25  C   UNL     1       0.453   5.374  -3.739  0.00  0.00    +0.200 A 
ATOM     26  N   UNL     1       3.910   5.412  -3.572  0.00  0.00    -0.203 NA
ATOM     27  C   UNL     1       4.746   5.613  -4.616  0.00  0.00    +0.202 A 
ATOM     28  N   UNL     1       0.880   4.872  -4.923  0.00  0.00    -0.218 NA
ATOM     29  N   UNL     1       4.263   5.791  -5.870  0.00  0.00    -0.206 NA
ENDBRANCH  19  20
BRANCH  19  31
ATOM     30  C   UNL     1       2.768   7.445  -8.261  0.00  0.00    +0.002 C 
ATOM     31  C   UNL     1       2.999   6.922  -8.145  0.00  0.00    +0.029 C 
ENDBRANCH  19  31
ENDBRANCH   1  19
TORSDOF 4
ENDMDL
MODEL 9
REMARK VINA RESULT:      -8.7      2.698      5.357
REMARK  Name = 
REMARK  4 active torsions:
REMARK  status: ('A' for Active; 'I' for Inactive)
REMARK    1  A    between atoms: C_2  and  C_3
REMARK    2  A    between atoms: C_3  and  N_4
REMARK    3  A    between atoms: C_3  and  C_14
REMARK    4  A    between atoms: N_25  and  C_26
REMARK                            x       y       z     vdW  Elec       q    Type
REMARK                         _______ _______ _______ _____ _____    ______ ____
ROOT
ATOM      1  C   UNL     1       4.268   6.204  -8.234  0.00  0.00    +0.146 A 
ATOM      2  N   UNL     1       2.919   6.339  -8.327  0.00  0.00    -0.261 N 
ATOM      3  C   UNL     1       2.245   6.771  -7.230  0.00  0.00    +0.269 A 
ATOM      4  O   UNL     1       0.994   6.975  -7.302  0.00  0.00    -0.266 OA
ATOM      5  C   UNL     1       2.785   6.672  -5.951  0.00  0.00    +0.102 A 
ATOM      6  C   UNL     1       4.016   6.082  -5.862  0.00  0.00    +0.089 A 
ATOM      7  C   UNL     1       4.393   5.342  -4.746  0.00  0.00    +0.019 A 
ATOM      8  C   UNL     1       3.531   5.205  -3.687  0.00  0.00    +0.004 A 
ATOM      9  C   UNL     1       2.423   6.036  -3.632  0.00  0.00    +0.030 A 
ATOM     10  C   UNL     1       1.989   6.612  -4.814  0.00  0.00    +0.146 A 
ATOM     11  F   UNL     1       0.835   7.311  -4.861  0.00  0.00    -0.204 F 
ATOM     12  N   UNL     1       4.704   5.922  -7.003  0.00  0.00    -0.230 NA
ENDROOT
BRANCH   2  13
ATOM     13  C   UNL     1       2.134   5.788  -9.378  0.00  0.00    +0.068 A 
ATOM     14  C   UNL     1       1.831   4.464  -9.525  0.00  0.00    +0.018 A 
ATOM     15  C   UNL     1       0.645   3.985 -10.006  0.00  0.00    +0.001 A 
ATOM     16  C   UNL     1      -0.182   4.852 -10.674  0.00  0.00    +0.000 A 
ATOM     17  C   UNL     1       0.180   6.175 -10.768  0.00  0.00    +0.001 A 
ATOM     18  C   UNL     1       1.363   6.603 -10.203  0.00  0.00    +0.018 A 
ENDBRANCH   2  13
BRANCH   1  19
ATOM     19  C   UNL     1       4.818   5.214  -9.418  0.00  0.00    +0.151 C 
BRANCH  19  20
ATOM     20  N   UNL     1       4.801   6.364 -10.523  0.00  0.00    -0.213 NA
ATOM     21  C   UNL     1       5.209   6.015 -11.811  0.00  0.00    +0.170 A 
ATOM     22  C   UNL     1       4.268   5.933 -12.828  0.00  0.00    +0.152 A 
ATOM     23  C   UNL     1       4.667   6.198 -14.133  0.00  0.00    +0.186 A 
ATOM     24  N   UNL     1       3.606   5.980 -14.943  0.00  0.00    -0.203 NA
ATOM     25  C   UNL     1       2.611   5.522 -14.146  0.00  0.00    +0.200 A 
ATOM     26  N   UNL     1       5.731   7.007 -14.364  0.00  0.00    -0.203 NA
ATOM     27  C   UNL     1       6.681   6.985 -13.402  0.00  0.00    +0.202 A 
ATOM     28  N   UNL     1       2.915   5.917 -12.886  0.00  0.00    -0.218 NA
ATOM     29  N   UNL     1       6.453   6.377 -12.212  0.00  0.00    -0.206 NA
ENDBRANCH  19  20
BRANCH  19  31
ATOM     30  C   UNL     1       6.810   5.020  -9.049  0.00  0.00    +0.002 C 
ATOM     31  C   UNL     1       6.441   5.468  -9.116  0.00  0.00    +0.029 C 
ENDBRANCH  19  31
ENDBRANCH   1  19
TORSDOF 4
ENDMDL
