MODEL 1
REMARK VINA RESULT:      -7.2      0.000      0.000
REMARK  Name = 
REMARK  5 active torsions:
REMARK  status: ('A' for Active; 'I' for Inactive)
REMARK    1  A    between atoms: C_2  and  O_3
REMARK    2  A    between atoms: C_2  and  C_13
REMARK    3  A    between atoms: O_3  and  O_4
REMARK    4  A    between atoms: O_4  and  C_5
REMARK    5  A    between atoms: C_5  and  C_7
REMARK                            x       y       z     vdW  Elec       q    Type
REMARK                         _______ _______ _______ _____ _____    ______ ____
ROOT
ATOM      1  O   UNL     1       1.936   6.254  -8.629  0.00  0.00    -0.241 OA
ENDROOT
BRANCH   1   3
ATOM      2  O   UNL     1       2.122   8.383  -7.887  0.00  0.00    -0.241 OA
ATOM      3  C   UNL     1       2.517   7.184  -7.762  0.00  0.00    +0.388 C 
BRANCH   3   4
ATOM      4  C   UNL     1       3.026   6.818  -6.442  0.00  0.00    +0.080 A 
ATOM      5  C   UNL     1       2.119   6.808  -5.401  0.00  0.00    +0.007 A 
ATOM      6  C   UNL     1       2.621   6.946  -4.114  0.00  0.00    +0.000 A 
ATOM      7  C   UNL     1       3.991   6.855  -3.922  0.00  0.00    +0.000 A 
ATOM      8  C   UNL     1       4.732   6.279  -4.925  0.00  0.00    +0.000 A 
ATOM      9  C   UNL     1       4.267   6.276  -6.228  0.00  0.00    +0.007 A 
ENDBRANCH   3   4
ENDBRANCH   1   3
BRANCH   1  10
ATOM     10  O   UNL     1       2.608   6.018  -9.793  0.00  0.00    -0.241 OA
BRANCH  10  11
ATOM     11  C   UNL     1       3.817   5.314  -9.808  0.00  0.00    +0.388 C 
ATOM     12  O   UNL     1       3.798   4.207  -9.192  0.00  0.00    -0.241 OA
BRANCH  11  13
ATOM     13  C   UNL     1       5.096   5.993 -10.039  0.00  0.00    +0.080 A 
ATOM     14  C   UNL     1       6.223   5.570  -9.351  0.00  0.00    +0.007 A 
ATOM     15  C   UNL     1       7.415   6.235  -9.609  0.00  0.00    +0.000 A 
ATOM     16  C   UNL     1       7.472   7.073 -10.712  0.00  0.00    +0.000 A 
ATOM     17  C   UNL     1       6.315   7.679 -11.186  0.00  0.00    +0.000 A 
ATOM     18  C   UNL     1       5.119   7.226 -10.681  0.00  0.00    +0.007 A 
ENDBRANCH  11  13
ENDBRANCH  10  11
ENDBRANCH   1  10
TORSDOF 5
ENDMDL
MODEL 2
REMARK VINA RESULT:      -7.2      2.333      3.204
REMARK  Name = 
REMARK  5 active torsions:
REMARK  status: ('A' for Active; 'I' for Inactive)
REMARK    1  A    between atoms: C_2  and  O_3
REMARK    2  A    between atoms: C_2  and  C_13
REMARK    3  A    between atoms: O_3  and  O_4
REMARK    4  A    between atoms: O_4  and  C_5
REMARK    5  A    between atoms: C_5  and  C_7
REMARK                            x       y       z     vdW  Elec       q    Type
REMARK                         _______ _______ _______ _____ _____    ______ ____
ROOT
ATOM      1  O   UNL     1       2.466   5.715  -7.291  0.00  0.00    -0.241 OA
ENDROOT
BRANCH   1   3
ATOM      2  O   UNL     1       1.642   3.892  -6.235  0.00  0.00    -0.241 OA
ATOM      3  C   UNL     1       1.370   4.976  -6.836  0.00  0.00    +0.388 C 
BRANCH   3   4
ATOM      4  C   UNL     1       0.096   5.597  -6.482  0.00  0.00    +0.080 A 
ATOM      5  C   UNL     1       0.148   6.728  -5.691  0.00  0.00    +0.007 A 
ATOM      6  C   UNL     1      -0.985   7.047  -4.957  0.00  0.00    +0.000 A 
ATOM      7  C   UNL     1      -2.163   6.365  -5.222  0.00  0.00    +0.000 A 
ATOM      8  C   UNL     1      -2.247   5.691  -6.416  0.00  0.00    +0.000 A 
ATOM      9  C   UNL     1      -1.100   5.263  -7.062  0.00  0.00    +0.007 A 
ENDBRANCH   3   4
ENDBRANCH   1   3
BRANCH   1  10
ATOM     10  O   UNL     1       2.656   5.735  -8.643  0.00  0.00    -0.241 OA
BRANCH  10  11
ATOM     11  C   UNL     1       3.736   5.074  -9.238  0.00  0.00    +0.388 C 
ATOM     12  O   UNL     1       3.823   3.840  -8.966  0.00  0.00    -0.241 OA
BRANCH  11  13
ATOM     13  C   UNL     1       4.927   5.803  -9.686  0.00  0.00    +0.080 A 
ATOM     14  C   UNL     1       6.166   5.469  -9.160  0.00  0.00    +0.007 A 
ATOM     15  C   UNL     1       7.267   6.178  -9.622  0.00  0.00    +0.000 A 
ATOM     16  C   UNL     1       7.113   6.965 -10.754  0.00  0.00    +0.000 A 
ATOM     17  C   UNL     1       5.867   7.490 -11.071  0.00  0.00    +0.000 A 
ATOM     18  C   UNL     1       4.786   7.004 -10.372  0.00  0.00    +0.007 A 
ENDBRANCH  11  13
ENDBRANCH  10  11
ENDBRANCH   1  10
TORSDOF 5
ENDMDL
MODEL 3
REMARK VINA RESULT:      -7.2      1.827      6.106
REMARK  Name = 
REMARK  5 active torsions:
REMARK  status: ('A' for Active; 'I' for Inactive)
REMARK    1  A    between atoms: C_2  and  O_3
REMARK    2  A    between atoms: C_2  and  C_13
REMARK    3  A    between atoms: O_3  and  O_4
REMARK    4  A    between atoms: O_4  and  C_5
REMARK    5  A    between atoms: C_5  and  C_7
REMARK                            x       y       z     vdW  Elec       q    Type
REMARK                         _______ _______ _______ _____ _____    ______ ____
ROOT
ATOM      1  O   UNL     1       3.582   5.234  -8.079  0.00  0.00    -0.241 OA
ENDROOT
BRANCH   1   3
ATOM      2  O   UNL     1       3.103   5.202 -10.289  0.00  0.00    -0.241 OA
ATOM      3  C   UNL     1       4.010   5.302  -9.408  0.00  0.00    +0.388 C 
BRANCH   3   4
ATOM      4  C   UNL     1       5.209   6.033  -9.811  0.00  0.00    +0.080 A 
ATOM      5  C   UNL     1       5.023   7.199 -10.528  0.00  0.00    +0.007 A 
ATOM      6  C   UNL     1       6.076   7.639 -11.317  0.00  0.00    +0.000 A 
ATOM      7  C   UNL     1       7.314   7.031 -11.173  0.00  0.00    +0.000 A 
ATOM      8  C   UNL     1       7.530   6.302 -10.029  0.00  0.00    +0.000 A 
ATOM      9  C   UNL     1       6.464   5.757  -9.334  0.00  0.00    +0.007 A 
ENDBRANCH   3   4
ENDBRANCH   1   3
BRANCH   1  10
ATOM     10  O   UNL     1       3.338   6.429  -7.465  0.00  0.00    -0.241 OA
BRANCH  10  11
ATOM     11  C   UNL     1       2.108   7.082  -7.601  0.00  0.00    +0.388 C 
ATOM     12  O   UNL     1       2.186   8.317  -7.875  0.00  0.00    -0.241 OA
BRANCH  11  13
ATOM     13  C   UNL     1       0.887   6.552  -6.987  0.00  0.00    +0.080 A 
ATOM     14  C   UNL     1       0.619   6.834  -5.656  0.00  0.00    +0.007 A 
ATOM     15  C   UNL     1      -0.554   6.320  -5.118  0.00  0.00    +0.000 A 
ATOM     16  C   UNL     1      -1.503   5.805  -5.989  0.00  0.00    +0.000 A 
ATOM     17  C   UNL     1      -1.112   5.288  -7.218  0.00  0.00    +0.000 A 
ATOM     18  C   UNL     1       0.182   5.533  -7.617  0.00  0.00    +0.007 A 
ENDBRANCH  11  13
ENDBRANCH  10  11
ENDBRANCH   1  10
TORSDOF 5
ENDMDL
MODEL 4
REMARK VINA RESULT:      -7.1      2.476      6.386
REMARK  Name = 
REMARK  5 active torsions:
REMARK  status: ('A' for Active; 'I' for Inactive)
REMARK    1  A    between atoms: C_2  and  O_3
REMARK    2  A    between atoms: C_2  and  C_13
REMARK    3  A    between atoms: O_3  and  O_4
REMARK    4  A    between atoms: O_4  and  C_5
REMARK    5  A    between atoms: C_5  and  C_7
REMARK                            x       y       z     vdW  Elec       q    Type
REMARK                         _______ _______ _______ _____ _____    ______ ____
ROOT
ATOM      1  O   UNL     1       3.027   5.191  -8.089  0.00  0.00    -0.241 OA
ENDROOT
BRANCH   1   3
ATOM      2  O   UNL     1       2.884   7.408  -8.517  0.00  0.00    -0.241 OA
ATOM      3  C   UNL     1       3.386   6.296  -8.867  0.00  0.00    +0.388 C 
BRANCH   3   4
ATOM      4  C   UNL     1       4.653   6.370  -9.589  0.00  0.00    +0.080 A 
ATOM      5  C   UNL     1       5.640   5.477  -9.220  0.00  0.00    +0.007 A 
ATOM      6  C   UNL     1       6.953   5.816  -9.515  0.00  0.00    +0.000 A 
ATOM      7  C   UNL     1       7.188   6.897 -10.351  0.00  0.00    +0.000 A 
ATOM      8  C   UNL     1       6.142   7.336 -11.124  0.00  0.00    +0.000 A 
ATOM      9  C   UNL     1       4.835   7.102 -10.735  0.00  0.00    +0.007 A 
ENDBRANCH   3   4
ENDBRANCH   1   3
BRANCH   1  10
ATOM     10  O   UNL     1       1.687   4.984  -7.924  0.00  0.00    -0.241 OA
BRANCH  10  11
ATOM     11  C   UNL     1       1.126   4.821  -6.653  0.00  0.00    +0.388 C 
ATOM     12  O   UNL     1       1.425   3.734  -6.073  0.00  0.00    -0.241 OA
BRANCH  11  13
ATOM     13  C   UNL     1      -0.079   5.550  -6.248  0.00  0.00    +0.080 A 
ATOM     14  C   UNL     1      -1.302   5.202  -6.802  0.00  0.00    +0.007 A 
ATOM     15  C   UNL     1      -2.419   5.913  -6.381  0.00  0.00    +0.000 A 
ATOM     16  C   UNL     1      -2.297   6.718  -5.258  0.00  0.00    +0.000 A 
ATOM     17  C   UNL     1      -1.063   7.255  -4.916  0.00  0.00    +0.000 A 
ATOM     18  C   UNL     1       0.039   6.763  -5.578  0.00  0.00    +0.007 A 
ENDBRANCH  11  13
ENDBRANCH  10  11
ENDBRANCH   1  10
TORSDOF 5
ENDMDL
MODEL 5
REMARK VINA RESULT:      -7.1      3.532      4.886
REMARK  Name = 
REMARK  5 active torsions:
REMARK  status: ('A' for Active; 'I' for Inactive)
REMARK    1  A    between atoms: C_2  and  O_3
REMARK    2  A    between atoms: C_2  and  C_13
REMARK    3  A    between atoms: O_3  and  O_4
REMARK    4  A    between atoms: O_4  and  C_5
REMARK    5  A    between atoms: C_5  and  C_7
REMARK                            x       y       z     vdW  Elec       q    Type
REMARK                         _______ _______ _______ _____ _____    ______ ____
ROOT
ATOM      1  O   UNL     1       1.730   3.854  -6.704  0.00  0.00    -0.241 OA
ENDROOT
BRANCH   1   3
ATOM      2  O   UNL     1       2.112   5.171  -4.906  0.00  0.00    -0.241 OA
ATOM      3  C   UNL     1       1.244   4.691  -5.696  0.00  0.00    +0.388 C 
BRANCH   3   4
ATOM      4  C   UNL     1       0.020   5.474  -5.846  0.00  0.00    +0.080 A 
ATOM      5  C   UNL     1      -0.012   6.713  -5.237  0.00  0.00    +0.007 A 
ATOM      6  C   UNL     1      -1.257   7.251  -4.946  0.00  0.00    +0.000 A 
ATOM      7  C   UNL     1      -2.385   6.642  -5.476  0.00  0.00    +0.000 A 
ATOM      8  C   UNL     1      -2.201   5.788  -6.536  0.00  0.00    +0.000 A 
ATOM      9  C   UNL     1      -0.984   5.156  -6.725  0.00  0.00    +0.007 A 
ENDBRANCH   3   4
ENDBRANCH   1   3
BRANCH   1  10
ATOM     10  O   UNL     1       2.811   4.317  -7.398  0.00  0.00    -0.241 OA
BRANCH  10  11
ATOM     11  C   UNL     1       2.816   4.363  -8.796  0.00  0.00    +0.388 C 
ATOM     12  O   UNL     1       3.962   4.268  -9.330  0.00  0.00    -0.241 OA
BRANCH  11  13
ATOM     13  C   UNL     1       1.716   4.975  -9.547  0.00  0.00    +0.080 A 
ATOM     14  C   UNL     1       1.467   6.332  -9.402  0.00  0.00    +0.007 A 
ATOM     15  C   UNL     1       0.421   6.871 -10.140  0.00  0.00    +0.000 A 
ATOM     16  C   UNL     1      -0.121   6.107 -11.163  0.00  0.00    +0.000 A 
ATOM     17  C   UNL     1      -0.064   4.721 -11.101  0.00  0.00    +0.000 A 
ATOM     18  C   UNL     1       0.748   4.170 -10.136  0.00  0.00    +0.007 A 
ENDBRANCH  11  13
ENDBRANCH  10  11
ENDBRANCH   1  10
TORSDOF 5
ENDMDL
MODEL 6
REMARK VINA RESULT:      -7.0      3.274      5.076
REMARK  Name = 
REMARK  5 active torsions:
REMARK  status: ('A' for Active; 'I' for Inactive)
REMARK    1  A    between atoms: C_2  and  O_3
REMARK    2  A    between atoms: C_2  and  C_13
REMARK    3  A    between atoms: O_3  and  O_4
REMARK    4  A    between atoms: O_4  and  C_5
REMARK    5  A    between atoms: C_5  and  C_7
REMARK                            x       y       z     vdW  Elec       q    Type
REMARK                         _______ _______ _______ _____ _____    ______ ____
ROOT
ATOM      1  O   UNL     1       2.140   5.444  -3.940  0.00  0.00    -0.241 OA
ENDROOT
BRANCH   1   3
ATOM      2  O   UNL     1       0.312   5.480  -2.608  0.00  0.00    -0.241 OA
ATOM      3  C   UNL     1       0.756   5.327  -3.787  0.00  0.00    +0.388 C 
BRANCH   3   4
ATOM      4  C   UNL     1      -0.183   5.637  -4.863  0.00  0.00    +0.080 A 
ATOM      5  C   UNL     1      -1.021   6.718  -4.673  0.00  0.00    +0.007 A 
ATOM      6  C   UNL     1      -2.201   6.748  -5.404  0.00  0.00    +0.000 A 
ATOM      7  C   UNL     1      -2.368   5.834  -6.434  0.00  0.00    +0.000 A 
ATOM      8  C   UNL     1      -1.243   5.209  -6.912  0.00  0.00    +0.000 A 
ATOM      9  C   UNL     1      -0.122   5.072  -6.111  0.00  0.00    +0.007 A 
ENDBRANCH   3   4
ENDBRANCH   1   3
BRANCH   1  10
ATOM     10  O   UNL     1       2.623   6.713  -4.082  0.00  0.00    -0.241 OA
BRANCH  10  11
ATOM     11  C   UNL     1       3.570   7.028  -5.062  0.00  0.00    +0.388 C 
ATOM     12  O   UNL     1       4.431   7.892  -4.716  0.00  0.00    -0.241 OA
BRANCH  11  13
ATOM     13  C   UNL     1       3.304   6.801  -6.486  0.00  0.00    +0.080 A 
ATOM     14  C   UNL     1       2.233   7.444  -7.088  0.00  0.00    +0.007 A 
ATOM     15  C   UNL     1       2.025   7.208  -8.441  0.00  0.00    +0.000 A 
ATOM     16  C   UNL     1       3.033   6.582  -9.159  0.00  0.00    +0.000 A 
ATOM     17  C   UNL     1       3.919   5.727  -8.515  0.00  0.00    +0.000 A 
ATOM     18  C   UNL     1       3.902   5.729  -7.140  0.00  0.00    +0.007 A 
ENDBRANCH  11  13
ENDBRANCH  10  11
ENDBRANCH   1  10
TORSDOF 5
ENDMDL
MODEL 7
REMARK VINA RESULT:      -7.0      1.005      5.313
REMARK  Name = 
REMARK  5 active torsions:
REMARK  status: ('A' for Active; 'I' for Inactive)
REMARK    1  A    between atoms: C_2  and  O_3
REMARK    2  A    between atoms: C_2  and  C_13
REMARK    3  A    between atoms: O_3  and  O_4
REMARK    4  A    between atoms: O_4  and  C_5
REMARK    5  A    between atoms: C_5  and  C_7
REMARK                            x       y       z     vdW  Elec       q    Type
REMARK                         _______ _______ _______ _____ _____    ______ ____
ROOT
ATOM      1  O   UNL     1       2.726   5.614  -9.599  0.00  0.00    -0.241 OA
ENDROOT
BRANCH   1   3
ATOM      2  O   UNL     1       3.127   6.444 -11.664  0.00  0.00    -0.241 OA
ATOM      3  C   UNL     1       3.631   5.951 -10.610  0.00  0.00    +0.388 C 
BRANCH   3   4
ATOM      4  C   UNL     1       5.016   6.324 -10.333  0.00  0.00    +0.080 A 
ATOM      5  C   UNL     1       5.455   7.530 -10.846  0.00  0.00    +0.007 A 
ATOM      6  C   UNL     1       6.822   7.687 -11.026  0.00  0.00    +0.000 A 
ATOM      7  C   UNL     1       7.678   6.742 -10.480  0.00  0.00    +0.000 A 
ATOM      8  C   UNL     1       7.172   5.925  -9.500  0.00  0.00    +0.000 A 
ATOM      9  C   UNL     1       5.813   5.675  -9.427  0.00  0.00    +0.007 A 
ENDBRANCH   3   4
ENDBRANCH   1   3
BRANCH   1  10
ATOM     10  O   UNL     1       1.901   6.616  -9.175  0.00  0.00    -0.241 OA
BRANCH  10  11
ATOM     11  C   UNL     1       2.049   7.198  -7.912  0.00  0.00    +0.388 C 
ATOM     12  O   UNL     1       2.175   8.459  -7.916  0.00  0.00    -0.241 OA
BRANCH  11  13
ATOM     13  C   UNL     1       2.536   6.426  -6.764  0.00  0.00    +0.080 A 
ATOM     14  C   UNL     1       1.621   5.827  -5.911  0.00  0.00    +0.007 A 
ATOM     15  C   UNL     1       2.127   5.097  -4.843  0.00  0.00    +0.000 A 
ATOM     16  C   UNL     1       3.478   4.781  -4.848  0.00  0.00    +0.000 A 
ATOM     17  C   UNL     1       4.381   5.596  -5.518  0.00  0.00    +0.000 A 
ATOM     18  C   UNL     1       3.858   6.555  -6.354  0.00  0.00    +0.007 A 
ENDBRANCH  11  13
ENDBRANCH  10  11
ENDBRANCH   1  10
TORSDOF 5
ENDMDL
MODEL 8
REMARK VINA RESULT:      -7.0      2.927      4.991
REMARK  Name = 
REMARK  5 active torsions:
REMARK  status: ('A' for Active; 'I' for Inactive)
REMARK    1  A    between atoms: C_2  and  O_3
REMARK    2  A    between atoms: C_2  and  C_13
REMARK    3  A    between atoms: O_3  and  O_4
REMARK    4  A    between atoms: O_4  and  C_5
REMARK    5  A    between atoms: C_5  and  C_7
REMARK                            x       y       z     vdW  Elec       q    Type
REMARK                         _______ _______ _______ _____ _____    ______ ____
ROOT
ATOM      1  O   UNL     1       1.814   5.114  -7.697  0.00  0.00    -0.241 OA
ENDROOT
BRANCH   1   3
ATOM      2  O   UNL     1       1.235   3.867  -5.900  0.00  0.00    -0.241 OA
ATOM      3  C   UNL     1       0.859   4.728  -6.752  0.00  0.00    +0.388 C 
BRANCH   3   4
ATOM      4  C   UNL     1      -0.227   5.609  -6.328  0.00  0.00    +0.080 A 
ATOM      5  C   UNL     1       0.129   6.781  -5.689  0.00  0.00    +0.007 A 
ATOM      6  C   UNL     1      -0.820   7.376  -4.870  0.00  0.00    +0.000 A 
ATOM      7  C   UNL     1      -2.124   6.907  -4.914  0.00  0.00    +0.000 A 
ATOM      8  C   UNL     1      -2.486   6.150  -6.001  0.00  0.00    +0.000 A 
ATOM      9  C   UNL     1      -1.531   5.454  -6.721  0.00  0.00    +0.007 A 
ENDBRANCH   3   4
ENDBRANCH   1   3
BRANCH   1  10
ATOM     10  O   UNL     1       3.068   4.600  -7.525  0.00  0.00    -0.241 OA
BRANCH  10  11
ATOM     11  C   UNL     1       4.137   5.405  -7.120  0.00  0.00    +0.388 C 
ATOM     12  O   UNL     1       5.159   5.353  -7.868  0.00  0.00    -0.241 OA
BRANCH  11  13
ATOM     13  C   UNL     1       4.279   5.847  -5.729  0.00  0.00    +0.080 A 
ATOM     14  C   UNL     1       4.425   4.899  -4.727  0.00  0.00    +0.007 A 
ATOM     15  C   UNL     1       4.567   5.363  -3.425  0.00  0.00    +0.000 A 
ATOM     16  C   UNL     1       4.829   6.712  -3.236  0.00  0.00    +0.000 A 
ATOM     17  C   UNL     1       4.407   7.642  -4.177  0.00  0.00    +0.000 A 
ATOM     18  C   UNL     1       3.955   7.153  -5.381  0.00  0.00    +0.007 A 
ENDBRANCH  11  13
ENDBRANCH  10  11
ENDBRANCH   1  10
TORSDOF 5
ENDMDL
MODEL 9
REMARK VINA RESULT:      -7.0      1.414      5.331
REMARK  Name = 
REMARK  5 active torsions:
REMARK  status: ('A' for Active; 'I' for Inactive)
REMARK    1  A    between atoms: C_2  and  O_3
REMARK    2  A    between atoms: C_2  and  C_13
REMARK    3  A    between atoms: O_3  and  O_4
REMARK    4  A    between atoms: O_4  and  C_5
REMARK    5  A    between atoms: C_5  and  C_7
REMARK                            x       y       z     vdW  Elec       q    Type
REMARK                         _______ _______ _______ _____ _____    ______ ____
ROOT
ATOM      1  O   UNL     1       3.584   4.088  -8.621  0.00  0.00    -0.241 OA
ENDROOT
BRANCH   1   3
ATOM      2  O   UNL     1       2.820   5.420 -10.281  0.00  0.00    -0.241 OA
ATOM      3  C   UNL     1       3.839   4.939  -9.699  0.00  0.00    +0.388 C 
BRANCH   3   4
ATOM      4  C   UNL     1       5.062   5.733  -9.802  0.00  0.00    +0.080 A 
ATOM      5  C   UNL     1       4.982   6.921 -10.502  0.00  0.00    +0.007 A 
ATOM      6  C   UNL     1       6.160   7.436 -11.025  0.00  0.00    +0.000 A 
ATOM      7  C   UNL     1       7.364   6.871 -10.632  0.00  0.00    +0.000 A 
ATOM      8  C   UNL     1       7.359   6.101  -9.495  0.00  0.00    +0.000 A 
ATOM      9  C   UNL     1       6.194   5.485  -9.070  0.00  0.00    +0.007 A 
ENDBRANCH   3   4
ENDBRANCH   1   3
BRANCH   1  10
ATOM     10  O   UNL     1       2.448   4.347  -7.908  0.00  0.00    -0.241 OA
BRANCH  10  11
ATOM     11  C   UNL     1       2.426   4.255  -6.513  0.00  0.00    +0.388 C 
ATOM     12  O   UNL     1       1.368   3.753  -6.027  0.00  0.00    -0.241 OA
BRANCH  11  13
ATOM     13  C   UNL     1       3.273   5.109  -5.675  0.00  0.00    +0.080 A 
ATOM     14  C   UNL     1       3.495   6.425  -6.052  0.00  0.00    +0.007 A 
ATOM     15  C   UNL     1       4.295   7.201  -5.223  0.00  0.00    +0.000 A 
ATOM     16  C   UNL     1       4.590   6.716  -3.957  0.00  0.00    +0.000 A 
ATOM     17  C   UNL     1       4.606   5.347  -3.722  0.00  0.00    +0.000 A 
ATOM     18  C   UNL     1       4.091   4.537  -4.707  0.00  0.00    +0.007 A 
ENDBRANCH  11  13
ENDBRANCH  10  11
ENDBRANCH   1  10
TORSDOF 5
ENDMDL
