MODEL 1
REMARK VINA RESULT:      -9.1      0.000      0.000
REMARK  Name = 
REMARK  1 active torsions:
REMARK  status: ('A' for Active; 'I' for Inactive)
REMARK    1  A    between atoms: C_2  and  C_3
REMARK                            x       y       z     vdW  Elec       q    Type
REMARK                         _______ _______ _______ _____ _____    ______ ____
ROOT
ATOM      1  O   UNL     1       3.638   5.059 -10.513  0.00  0.00    -0.275 OA
ATOM      2  C   UNL     1       4.173   5.089  -9.934  0.00  0.00    +0.226 C 
ATOM      3  N   UNL     1       3.905   4.367  -8.723  0.00  0.00    -0.269 N 
ATOM      4  C   UNL     1       2.507   4.176  -8.324  0.00  0.00    +0.118 C 
ATOM      5  C   UNL     1       1.820   5.666  -8.566  0.00  0.00    +0.117 C 
ATOM      6  N   UNL     1       2.851   6.458  -7.673  0.00  0.00    -0.274 N 
ATOM      7  C   UNL     1       2.302   7.711  -7.151  0.00  0.00    +0.098 C 
ATOM      8  C   UNL     1       1.757   7.220  -5.813  0.00  0.00    +0.048 C 
ATOM      9  C   UNL     1       0.934   6.021  -6.172  0.00  0.00    -0.023 A 
ATOM     10  C   UNL     1      -0.121   5.801  -5.284  0.00  0.00    -0.004 A 
ATOM     11  C   UNL     1      -1.413   5.553  -5.742  0.00  0.00    -0.000 A 
ATOM     12  C   UNL     1      -1.646   5.384  -7.103  0.00  0.00    -0.000 A 
ATOM     13  C   UNL     1      -0.501   5.200  -7.872  0.00  0.00    -0.003 A 
ATOM     14  C   UNL     1       3.840   5.842  -6.956  0.00  0.00    +0.246 C 
ATOM     15  O   UNL     1       4.241   6.297  -5.862  0.00  0.00    -0.273 OA
ATOM     16  C   UNL     1       0.771   5.442  -7.356  0.00  0.00    -0.007 A 
ATOM     17  C   UNL     1       4.709   4.786  -7.571  0.00  0.00    +0.179 C 
ENDROOT
BRANCH   2  18
ATOM     18  C   UNL     1       5.248   6.128 -10.011  0.00  0.00    +0.077 C 
ATOM     19  C   UNL     1       5.003   7.049 -11.160  0.00  0.00    +0.009 C 
ATOM     20  C   UNL     1       6.120   8.050 -11.272  0.00  0.00    +0.000 C 
ATOM     21  C   UNL     1       7.451   7.357 -11.419  0.00  0.00    +0.000 C 
ATOM     22  C   UNL     1       7.683   6.510 -10.174  0.00  0.00    +0.000 C 
ATOM     23  C   UNL     1       6.608   5.472 -10.035  0.00  0.00    +0.009 C 
ENDBRANCH   2  18
TORSDOF 1
ENDMDL
MODEL 2
REMARK VINA RESULT:      -8.7      2.714      4.599
REMARK  Name = 
REMARK  1 active torsions:
REMARK  status: ('A' for Active; 'I' for Inactive)
REMARK    1  A    between atoms: C_2  and  C_3
REMARK                            x       y       z     vdW  Elec       q    Type
REMARK                         _______ _______ _______ _____ _____    ______ ____
ROOT
ATOM      1  O   UNL     1       2.083   8.063  -7.832  0.00  0.00    -0.275 OA
ATOM      2  C   UNL     1       1.785   7.336  -7.902  0.00  0.00    +0.226 C 
ATOM      3  N   UNL     1       1.122   6.761  -6.767  0.00  0.00    -0.269 N 
ATOM      4  C   UNL     1       1.554   7.173  -5.428  0.00  0.00    +0.118 C 
ATOM      5  C   UNL     1       3.210   7.140  -5.520  0.00  0.00    +0.117 C 
ATOM      6  N   UNL     1       3.307   5.646  -6.014  0.00  0.00    -0.274 N 
ATOM      7  C   UNL     1       4.592   5.024  -5.689  0.00  0.00    +0.098 C 
ATOM      8  C   UNL     1       4.242   4.392  -4.344  0.00  0.00    +0.048 C 
ATOM      9  C   UNL     1       3.624   5.512  -3.566  0.00  0.00    -0.023 A 
ATOM     10  C   UNL     1       3.808   5.382  -2.187  0.00  0.00    -0.004 A 
ATOM     11  C   UNL     1       4.252   6.451  -1.412  0.00  0.00    -0.000 A 
ATOM     12  C   UNL     1       4.388   7.712  -1.982  0.00  0.00    -0.000 A 
ATOM     13  C   UNL     1       3.794   7.854  -3.232  0.00  0.00    -0.003 A 
ATOM     14  C   UNL     1       2.214   4.833  -6.143  0.00  0.00    +0.246 C 
ATOM     15  O   UNL     1       2.284   3.600  -5.943  0.00  0.00    -0.273 OA
ATOM     16  C   UNL     1       3.346   6.751  -3.957  0.00  0.00    -0.007 A 
ATOM     17  C   UNL     1       0.965   5.304  -6.824  0.00  0.00    +0.179 C 
ENDROOT
BRANCH   2  18
ATOM     18  C   UNL     1       2.204   6.506  -9.075  0.00  0.00    +0.077 C 
ATOM     19  C   UNL     1       3.615   6.811  -9.456  0.00  0.00    +0.009 C 
ATOM     20  C   UNL     1       4.007   6.022 -10.675  0.00  0.00    +0.000 C 
ATOM     21  C   UNL     1       3.073   6.305 -11.823  0.00  0.00    +0.000 C 
ATOM     22  C   UNL     1       1.670   5.883 -11.406  0.00  0.00    +0.000 C 
ATOM     23  C   UNL     1       1.218   6.667 -10.208  0.00  0.00    +0.009 C 
ENDBRANCH   2  18
TORSDOF 1
ENDMDL
MODEL 3
REMARK VINA RESULT:      -8.5      2.712      5.522
REMARK  Name = 
REMARK  1 active torsions:
REMARK  status: ('A' for Active; 'I' for Inactive)
REMARK    1  A    between atoms: C_2  and  C_3
REMARK                            x       y       z     vdW  Elec       q    Type
REMARK                         _______ _______ _______ _____ _____    ______ ____
ROOT
ATOM      1  O   UNL     1       0.962   4.191  -5.574  0.00  0.00    -0.275 OA
ATOM      2  C   UNL     1       1.066   4.960  -5.429  0.00  0.00    +0.226 C 
ATOM      3  N   UNL     1       0.273   5.904  -6.164  0.00  0.00    -0.269 N 
ATOM      4  C   UNL     1      -0.165   5.540  -7.514  0.00  0.00    +0.118 C 
ATOM      5  C   UNL     1       1.191   4.885  -8.208  0.00  0.00    +0.117 C 
ATOM      6  N   UNL     1       2.121   6.128  -7.931  0.00  0.00    -0.274 N 
ATOM      7  C   UNL     1       3.246   6.213  -8.865  0.00  0.00    +0.098 C 
ATOM      8  C   UNL     1       2.628   7.109  -9.934  0.00  0.00    +0.048 C 
ATOM      9  C   UNL     1       1.318   6.455 -10.246  0.00  0.00    -0.023 A 
ATOM     10  C   UNL     1       0.894   6.687 -11.557  0.00  0.00    -0.004 A 
ATOM     11  C   UNL     1       0.442   5.647 -12.366  0.00  0.00    -0.000 A 
ATOM     12  C   UNL     1       0.276   4.374 -11.832  0.00  0.00    -0.000 A 
ATOM     13  C   UNL     1       0.314   4.316 -10.442  0.00  0.00    -0.003 A 
ATOM     14  C   UNL     1       1.662   7.289  -7.370  0.00  0.00    +0.246 C 
ATOM     15  O   UNL     1       2.147   8.402  -7.672  0.00  0.00    -0.273 OA
ATOM     16  C   UNL     1       0.755   5.395  -9.678  0.00  0.00    -0.007 A 
ATOM     17  C   UNL     1       0.790   7.276  -6.151  0.00  0.00    +0.179 C 
ENDROOT
BRANCH   2  18
ATOM     18  C   UNL     1       2.276   5.380  -4.653  0.00  0.00    +0.077 C 
ATOM     19  C   UNL     1       3.425   4.471  -4.943  0.00  0.00    +0.009 C 
ATOM     20  C   UNL     1       4.617   4.858  -4.112  0.00  0.00    +0.000 C 
ATOM     21  C   UNL     1       4.278   4.838  -2.643  0.00  0.00    +0.000 C 
ATOM     22  C   UNL     1       3.169   5.853  -2.399  0.00  0.00    +0.000 C 
ATOM     23  C   UNL     1       1.942   5.492  -3.184  0.00  0.00    +0.009 C 
ENDBRANCH   2  18
TORSDOF 1
ENDMDL
MODEL 4
REMARK VINA RESULT:      -8.4      2.074      6.786
REMARK  Name = 
REMARK  1 active torsions:
REMARK  status: ('A' for Active; 'I' for Inactive)
REMARK    1  A    between atoms: C_2  and  C_3
REMARK                            x       y       z     vdW  Elec       q    Type
REMARK                         _______ _______ _______ _____ _____    ______ ____
ROOT
ATOM      1  O   UNL     1       1.096   5.105  -4.388  0.00  0.00    -0.275 OA
ATOM      2  C   UNL     1       0.502   5.004  -4.899  0.00  0.00    +0.226 C 
ATOM      3  N   UNL     1       0.727   4.171  -6.046  0.00  0.00    -0.269 N 
ATOM      4  C   UNL     1       2.086   4.088  -6.587  0.00  0.00    +0.118 C 
ATOM      5  C   UNL     1       2.606   5.662  -6.597  0.00  0.00    +0.117 C 
ATOM      6  N   UNL     1       1.395   6.218  -7.441  0.00  0.00    -0.274 N 
ATOM      7  C   UNL     1       1.726   7.450  -8.161  0.00  0.00    +0.098 C 
ATOM      8  C   UNL     1       2.180   6.859  -9.492  0.00  0.00    +0.048 C 
ATOM      9  C   UNL     1       3.179   5.813  -9.104  0.00  0.00    -0.023 A 
ATOM     10  C   UNL     1       4.153   5.602 -10.084  0.00  0.00    -0.004 A 
ATOM     11  C   UNL     1       5.507   5.556  -9.760  0.00  0.00    -0.000 A 
ATOM     12  C   UNL     1       5.903   5.584  -8.428  0.00  0.00    -0.000 A 
ATOM     13  C   UNL     1       4.879   5.373  -7.510  0.00  0.00    -0.003 A 
ATOM     14  C   UNL     1       0.419   5.413  -7.960  0.00  0.00    +0.246 C 
ATOM     15  O   UNL     1      -0.150   5.682  -9.041  0.00  0.00    -0.273 OA
ATOM     16  C   UNL     1       3.539   5.407  -7.892  0.00  0.00    -0.007 A 
ATOM     17  C   UNL     1      -0.242   4.353  -7.131  0.00  0.00    +0.179 C 
ENDROOT
BRANCH   2  18
ATOM     18  C   UNL     1      -0.678   5.920  -4.807  0.00  0.00    +0.077 C 
ATOM     19  C   UNL     1      -0.233   7.343  -4.742  0.00  0.00    +0.009 C 
ATOM     20  C   UNL     1      -1.420   8.253  -4.584  0.00  0.00    +0.000 C 
ATOM     21  C   UNL     1      -2.219   7.888  -3.359  0.00  0.00    +0.000 C 
ATOM     22  C   UNL     1      -2.724   6.461  -3.531  0.00  0.00    +0.000 C 
ATOM     23  C   UNL     1      -1.572   5.507  -3.662  0.00  0.00    +0.009 C 
ENDBRANCH   2  18
TORSDOF 1
ENDMDL
MODEL 5
REMARK VINA RESULT:      -8.2      1.460      6.481
REMARK  Name = 
REMARK  1 active torsions:
REMARK  status: ('A' for Active; 'I' for Inactive)
REMARK    1  A    between atoms: C_2  and  C_3
REMARK                            x       y       z     vdW  Elec       q    Type
REMARK                         _______ _______ _______ _____ _____    ______ ____
ROOT
ATOM      1  O   UNL     1       2.008   4.417  -6.377  0.00  0.00    -0.275 OA
ATOM      2  C   UNL     1       1.509   4.537  -6.977  0.00  0.00    +0.226 C 
ATOM      3  N   UNL     1       1.879   4.052  -8.276  0.00  0.00    -0.269 N 
ATOM      4  C   UNL     1       3.304   3.975  -8.608  0.00  0.00    +0.118 C 
ATOM      5  C   UNL     1       3.918   5.414  -8.059  0.00  0.00    +0.117 C 
ATOM      6  N   UNL     1       2.914   6.326  -8.864  0.00  0.00    -0.274 N 
ATOM      7  C   UNL     1       3.444   7.668  -9.116  0.00  0.00    +0.098 C 
ATOM      8  C   UNL     1       4.088   7.440 -10.481  0.00  0.00    +0.048 C 
ATOM      9  C   UNL     1       4.934   6.219 -10.286  0.00  0.00    -0.023 A 
ATOM     10  C   UNL     1       6.049   6.191 -11.126  0.00  0.00    -0.004 A 
ATOM     11  C   UNL     1       7.319   5.900 -10.634  0.00  0.00    -0.000 A 
ATOM     12  C   UNL     1       7.475   5.494  -9.312  0.00  0.00    -0.000 A 
ATOM     13  C   UNL     1       6.293   5.144  -8.667  0.00  0.00    -0.003 A 
ATOM     14  C   UNL     1       1.995   5.823  -9.744  0.00  0.00    +0.246 C 
ATOM     15  O   UNL     1       1.644   6.457 -10.764  0.00  0.00    -0.273 OA
ATOM     16  C   UNL     1       5.046   5.441  -9.216  0.00  0.00    -0.007 A 
ATOM     17  C   UNL     1       1.131   4.651  -9.387  0.00  0.00    +0.179 C 
ENDROOT
BRANCH   2  18
ATOM     18  C   UNL     1       0.392   5.515  -6.788  0.00  0.00    +0.077 C 
ATOM     19  C   UNL     1       0.649   6.380  -5.598  0.00  0.00    +0.009 C 
ATOM     20  C   UNL     1      -0.507   7.316  -5.376  0.00  0.00    +0.000 C 
ATOM     21  C   UNL     1      -1.795   6.551  -5.210  0.00  0.00    +0.000 C 
ATOM     22  C   UNL     1      -2.048   5.767  -6.492  0.00  0.00    +0.000 C 
ATOM     23  C   UNL     1      -0.934   4.793  -6.742  0.00  0.00    +0.009 C 
ENDBRANCH   2  18
TORSDOF 1
ENDMDL
MODEL 6
REMARK VINA RESULT:      -8.0      5.240      9.279
REMARK  Name = 
REMARK  1 active torsions:
REMARK  status: ('A' for Active; 'I' for Inactive)
REMARK    1  A    between atoms: C_2  and  C_3
REMARK                            x       y       z     vdW  Elec       q    Type
REMARK                         _______ _______ _______ _____ _____    ______ ____
ROOT
ATOM      1  O   UNL     1       0.541   6.652  -0.709  0.00  0.00    -0.275 OA
ATOM      2  C   UNL     1      -0.230   6.552  -0.572  0.00  0.00    +0.226 C 
ATOM      3  N   UNL     1      -0.912   5.496  -1.263  0.00  0.00    -0.269 N 
ATOM      4  C   UNL     1      -0.419   5.101  -2.586  0.00  0.00    +0.118 C 
ATOM      5  C   UNL     1      -0.141   6.544  -3.353  0.00  0.00    +0.117 C 
ATOM      6  N   UNL     1      -1.594   7.117  -3.132  0.00  0.00    -0.274 N 
ATOM      7  C   UNL     1      -1.962   8.126  -4.128  0.00  0.00    +0.098 C 
ATOM      8  C   UNL     1      -2.639   7.234  -5.164  0.00  0.00    +0.048 C 
ATOM      9  C   UNL     1      -1.650   6.134  -5.400  0.00  0.00    -0.023 A 
ATOM     10  C   UNL     1      -1.736   5.595  -6.686  0.00  0.00    -0.004 A 
ATOM     11  C   UNL     1      -0.598   5.398  -7.465  0.00  0.00    -0.000 A 
ATOM     12  C   UNL     1       0.663   5.610  -6.918  0.00  0.00    -0.000 A 
ATOM     13  C   UNL     1       0.683   5.737  -5.532  0.00  0.00    -0.003 A 
ATOM     14  C   UNL     1      -2.598   6.393  -2.550  0.00  0.00    +0.246 C 
ATOM     15  O   UNL     1      -3.795   6.542  -2.882  0.00  0.00    -0.273 OA
ATOM     16  C   UNL     1      -0.489   5.909  -4.798  0.00  0.00    -0.007 A 
ATOM     17  C   UNL     1      -2.373   5.623  -1.284  0.00  0.00    +0.179 C 
ENDROOT
BRANCH   2  18
ATOM     18  C   UNL     1      -0.974   7.643   0.133  0.00  0.00    +0.077 C 
ATOM     19  C   UNL     1      -0.024   8.659   0.676  0.00  0.00    +0.009 C 
ATOM     20  C   UNL     1      -0.773   9.717   1.439  0.00  0.00    +0.000 C 
ATOM     21  C   UNL     1      -1.589   9.105   2.548  0.00  0.00    +0.000 C 
ATOM     22  C   UNL     1      -2.600   8.153   1.923  0.00  0.00    +0.000 C 
ATOM     23  C   UNL     1      -1.899   7.057   1.174  0.00  0.00    +0.009 C 
ENDBRANCH   2  18
TORSDOF 1
ENDMDL
MODEL 7
REMARK VINA RESULT:      -8.0      2.454      4.216
REMARK  Name = 
REMARK  1 active torsions:
REMARK  status: ('A' for Active; 'I' for Inactive)
REMARK    1  A    between atoms: C_2  and  C_3
REMARK                            x       y       z     vdW  Elec       q    Type
REMARK                         _______ _______ _______ _____ _____    ______ ____
ROOT
ATOM      1  O   UNL     1       3.505   4.262  -9.431  0.00  0.00    -0.275 OA
ATOM      2  C   UNL     1       3.361   5.016  -9.616  0.00  0.00    +0.226 C 
ATOM      3  N   UNL     1       4.068   6.038  -8.899  0.00  0.00    -0.269 N 
ATOM      4  C   UNL     1       4.476   5.762  -7.518  0.00  0.00    +0.118 C 
ATOM      5  C   UNL     1       3.136   5.056  -6.843  0.00  0.00    +0.117 C 
ATOM      6  N   UNL     1       2.145   6.227  -7.209  0.00  0.00    -0.274 N 
ATOM      7  C   UNL     1       0.982   6.284  -6.321  0.00  0.00    +0.098 C 
ATOM      8  C   UNL     1       1.504   7.263  -5.273  0.00  0.00    +0.048 C 
ATOM      9  C   UNL     1       2.838   6.704  -4.885  0.00  0.00    -0.023 A 
ATOM     10  C   UNL     1       3.198   7.019  -3.572  0.00  0.00    -0.004 A 
ATOM     11  C   UNL     1       3.680   6.046  -2.700  0.00  0.00    -0.000 A 
ATOM     12  C   UNL     1       3.942   4.763  -3.169  0.00  0.00    -0.000 A 
ATOM     13  C   UNL     1       3.960   4.641  -4.555  0.00  0.00    -0.003 A 
ATOM     14  C   UNL     1       2.554   7.387  -7.807  0.00  0.00    +0.246 C 
ATOM     15  O   UNL     1       1.993   8.481  -7.574  0.00  0.00    -0.273 OA
ATOM     16  C   UNL     1       3.485   5.657  -5.383  0.00  0.00    -0.007 A 
ATOM     17  C   UNL     1       3.471   7.374  -8.993  0.00  0.00    +0.179 C 
ENDROOT
BRANCH   2  18
ATOM     18  C   UNL     1       2.159   5.326 -10.452  0.00  0.00    +0.077 C 
ATOM     19  C   UNL     1       1.085   4.315 -10.221  0.00  0.00    +0.009 C 
ATOM     20  C   UNL     1      -0.094   4.595 -11.112  0.00  0.00    +0.000 C 
ATOM     21  C   UNL     1       0.319   4.612 -12.561  0.00  0.00    +0.000 C 
ATOM     22  C   UNL     1       1.341   5.725 -12.749  0.00  0.00    +0.000 C 
ATOM     23  C   UNL     1       2.555   5.475 -11.902  0.00  0.00    +0.009 C 
ENDBRANCH   2  18
TORSDOF 1
ENDMDL
MODEL 8
REMARK VINA RESULT:      -7.9      2.973      5.520
REMARK  Name = 
REMARK  1 active torsions:
REMARK  status: ('A' for Active; 'I' for Inactive)
REMARK    1  A    between atoms: C_2  and  C_3
REMARK                            x       y       z     vdW  Elec       q    Type
REMARK                         _______ _______ _______ _____ _____    ______ ____
ROOT
ATOM      1  O   UNL     1       4.737   7.039  -5.259  0.00  0.00    -0.275 OA
ATOM      2  C   UNL     1       4.414   6.441  -4.857  0.00  0.00    +0.226 C 
ATOM      3  N   UNL     1       4.015   5.270  -5.584  0.00  0.00    -0.269 N 
ATOM      4  C   UNL     1       3.601   5.429  -6.981  0.00  0.00    +0.118 C 
ATOM      5  C   UNL     1       2.611   6.758  -6.952  0.00  0.00    +0.117 C 
ATOM      6  N   UNL     1       1.638   6.201  -5.843  0.00  0.00    -0.274 N 
ATOM      7  C   UNL     1       0.304   6.802  -5.906  0.00  0.00    +0.098 C 
ATOM      8  C   UNL     1      -0.395   5.788  -6.807  0.00  0.00    +0.048 C 
ATOM      9  C   UNL     1       0.525   5.648  -7.980  0.00  0.00    -0.023 A 
ATOM     10  C   UNL     1      -0.145   5.313  -9.159  0.00  0.00    -0.004 A 
ATOM     11  C   UNL     1       0.099   5.994 -10.349  0.00  0.00    -0.000 A 
ATOM     12  C   UNL     1       1.121   6.935 -10.413  0.00  0.00    -0.000 A 
ATOM     13  C   UNL     1       2.003   6.911  -9.338  0.00  0.00    -0.003 A 
ATOM     14  C   UNL     1       1.752   4.943  -5.318  0.00  0.00    +0.246 C 
ATOM     15  O   UNL     1       0.750   4.293  -4.944  0.00  0.00    -0.273 OA
ATOM     16  C   UNL     1       1.720   6.193  -8.177  0.00  0.00    -0.007 A 
ATOM     17  C   UNL     1       3.075   4.399  -4.872  0.00  0.00    +0.179 C 
ENDROOT
BRANCH   2  18
ATOM     18  C   UNL     1       3.957   6.692  -3.454  0.00  0.00    +0.077 C 
ATOM     19  C   UNL     1       4.242   8.102  -3.055  0.00  0.00    +0.009 C 
ATOM     20  C   UNL     1       3.840   8.329  -1.623  0.00  0.00    +0.000 C 
ATOM     21  C   UNL     1       4.546   7.363  -0.706  0.00  0.00    +0.000 C 
ATOM     22  C   UNL     1       4.139   5.950  -1.104  0.00  0.00    +0.000 C 
ATOM     23  C   UNL     1       4.547   5.663  -2.519  0.00  0.00    +0.009 C 
ENDBRANCH   2  18
TORSDOF 1
ENDMDL
MODEL 9
REMARK VINA RESULT:      -7.8      2.682      5.727
REMARK  Name = 
REMARK  1 active torsions:
REMARK  status: ('A' for Active; 'I' for Inactive)
REMARK    1  A    between atoms: C_2  and  C_3
REMARK                            x       y       z     vdW  Elec       q    Type
REMARK                         _______ _______ _______ _____ _____    ______ ____
ROOT
ATOM      1  O   UNL     1       4.500   4.636  -4.868  0.00  0.00    -0.275 OA
ATOM      2  C   UNL     1       3.749   4.757  -4.655  0.00  0.00    +0.226 C 
ATOM      3  N   UNL     1       2.713   4.218  -5.488  0.00  0.00    -0.269 N 
ATOM      4  C   UNL     1       2.980   4.072  -6.922  0.00  0.00    +0.118 C 
ATOM      5  C   UNL     1       3.711   5.501  -7.337  0.00  0.00    +0.117 C 
ATOM      6  N   UNL     1       2.560   6.428  -6.784  0.00  0.00    -0.274 N 
ATOM      7  C   UNL     1       2.525   7.738  -7.437  0.00  0.00    +0.098 C 
ATOM      8  C   UNL     1       1.535   7.442  -8.560  0.00  0.00    +0.048 C 
ATOM      9  C   UNL     1       2.066   6.194  -9.195  0.00  0.00    -0.023 A 
ATOM     10  C   UNL     1       1.743   6.095 -10.551  0.00  0.00    -0.004 A 
ATOM     11  C   UNL     1       2.706   5.767 -11.502  0.00  0.00    -0.000 A 
ATOM     12  C   UNL     1       3.984   5.397 -11.098  0.00  0.00    -0.000 A 
ATOM     13  C   UNL     1       4.107   5.116  -9.740  0.00  0.00    -0.003 A 
ATOM     14  C   UNL     1       1.392   5.935  -6.268  0.00  0.00    +0.246 C 
ATOM     15  O   UNL     1       0.310   6.551  -6.386  0.00  0.00    -0.273 OA
ATOM     16  C   UNL     1       3.101   5.445  -8.833  0.00  0.00    -0.007 A 
ATOM     17  C   UNL     1       1.389   4.811  -5.277  0.00  0.00    +0.179 C 
ENDROOT
BRANCH   2  18
ATOM     18  C   UNL     1       3.464   5.786  -3.606  0.00  0.00    +0.077 C 
ATOM     19  C   UNL     1       4.290   7.009  -3.834  0.00  0.00    +0.009 C 
ATOM     20  C   UNL     1       4.047   8.012  -2.740  0.00  0.00    +0.000 C 
ATOM     21  C   UNL     1       4.340   7.415  -1.387  0.00  0.00    +0.000 C 
ATOM     22  C   UNL     1       3.401   6.234  -1.177  0.00  0.00    +0.000 C 
ATOM     23  C   UNL     1       3.627   5.187  -2.229  0.00  0.00    +0.009 C 
ENDBRANCH   2  18
TORSDOF 1
ENDMDL
