MODEL 1
REMARK VINA RESULT:      -7.7      0.000      0.000
REMARK  Name = 
REMARK  4 active torsions:
REMARK  status: ('A' for Active; 'I' for Inactive)
REMARK    1  A    between atoms: C_5  and  C_6
REMARK    2  A    between atoms: C_14  and  C_15
REMARK    3  A    between atoms: N_17  and  CA_18
REMARK    4  A    between atoms: CA_27  and  C_28
REMARK                            x       y       z     vdW  Elec       q    Type
REMARK                         _______ _______ _______ _____ _____    ______ ____
ROOT
ATOM      1  C   UNL     1       1.910   4.506  -6.089  0.00  0.00    +0.270 C 
ATOM      2  N   UNL     1       2.502   4.933  -7.305  0.00  0.00    -0.191 NA
ATOM      3  O   UNL     1       1.134   3.515  -6.215  0.00  0.00    -0.268 OA
ENDROOT
BRANCH   2   4
ATOM      4  CA  UNL     1       1.345   5.440  -8.297  0.00  0.00    +0.200 C 
ATOM      5  C   UNL     1       2.345   6.292  -9.384  0.00  0.00    +0.153 C 
ATOM      6  S   UNL     1       3.851   6.762  -8.301  0.00  0.00    -0.118 S 
ATOM      7  C   UNL     1       5.001   5.704  -9.057  0.00  0.00    +0.068 C 
ATOM      8  CA  UNL     1       4.199   5.079 -10.392  0.00  0.00    +0.189 C 
ATOM      9  C   UNL     1       5.456   4.484  -8.317  0.00  0.00    +0.013 C 
ATOM     10  C   UNL     1       6.236   6.328  -9.634  0.00  0.00    +0.013 C 
ATOM     11  N   UNL     1       2.844   4.875  -9.581  0.00  0.00    -0.259 N 
ATOM     12  C   UNL     1       1.625   4.214  -9.346  0.00  0.00    +0.249 C 
ATOM     13  O   UNL     1       0.697   3.891 -10.153  0.00  0.00    -0.273 OA
BRANCH   8  14
ATOM     14  C   UNL     1       3.818   6.573 -10.996  0.00  0.00    +0.383 C 
ATOM     15  OXT UNL     1       4.941   7.199 -11.555  0.00  0.00    -0.244 OA
ATOM     16  O   UNL     1       2.955   6.311 -11.898  0.00  0.00    -0.244 OA
ENDBRANCH   8  14
ENDBRANCH   2   4
BRANCH   1  19
ATOM     17  C   UNL     1       4.718   5.078  -5.033  0.00  0.00    +0.076 C 
ATOM     18  C   UNL     1       3.552   5.149  -4.254  0.00  0.00    +0.159 A 
ATOM     19  C   UNL     1       2.276   4.974  -4.770  0.00  0.00    +0.109 A 
ATOM     20  C   UNL     1       1.438   5.587  -3.874  0.00  0.00    +0.129 A 
ATOM     21  N   UNL     1       2.161   5.693  -2.733  0.00  0.00    -0.077 NA
ATOM     22  O   UNL     1       3.409   5.390  -2.960  0.00  0.00    -0.358 OA
BRANCH  20  23
ATOM     23  C   UNL     1       0.051   6.040  -4.039  0.00  0.00    +0.042 A 
ATOM     24  C   UNL     1      -0.270   7.059  -4.931  0.00  0.00    +0.060 A 
ATOM     25 CL   UNL     1       0.995   7.844  -5.879  0.00  0.00    -0.082 Cl
ATOM     26  C   UNL     1      -1.519   7.664  -4.859  0.00  0.00    +0.011 A 
ATOM     27  C   UNL     1      -2.205   7.693  -3.649  0.00  0.00    +0.002 A 
ATOM     28  C   UNL     1      -1.930   6.672  -2.775  0.00  0.00    +0.011 A 
ATOM     29  C   UNL     1      -0.730   5.977  -2.888  0.00  0.00    +0.060 A 
ATOM     30 CL   UNL     1      -0.163   5.167  -1.431  0.00  0.00    -0.082 Cl
ENDBRANCH  20  23
ENDBRANCH   1  19
TORSDOF 4
ENDMDL
MODEL 2
REMARK VINA RESULT:      -7.6      3.096      7.219
REMARK  Name = 
REMARK  4 active torsions:
REMARK  status: ('A' for Active; 'I' for Inactive)
REMARK    1  A    between atoms: C_5  and  C_6
REMARK    2  A    between atoms: C_14  and  C_15
REMARK    3  A    between atoms: N_17  and  CA_18
REMARK    4  A    between atoms: CA_27  and  C_28
REMARK                            x       y       z     vdW  Elec       q    Type
REMARK                         _______ _______ _______ _____ _____    ______ ____
ROOT
ATOM      1  C   UNL     1       1.735   4.793  -5.803  0.00  0.00    +0.270 C 
ATOM      2  N   UNL     1       2.013   5.427  -4.565  0.00  0.00    -0.191 NA
ATOM      3  O   UNL     1       2.441   3.767  -6.025  0.00  0.00    -0.268 OA
ENDROOT
BRANCH   2   4
ATOM      4  CA  UNL     1       3.527   5.964  -4.583  0.00  0.00    +0.200 C 
ATOM      5  C   UNL     1       3.530   6.665  -3.028  0.00  0.00    +0.153 C 
ATOM      6  S   UNL     1       1.684   7.077  -2.742  0.00  0.00    -0.118 S 
ATOM      7  C   UNL     1       1.382   5.886  -1.515  0.00  0.00    +0.068 C 
ATOM      8  CA  UNL     1       2.892   5.248  -1.155  0.00  0.00    +0.189 C 
ATOM      9  C   UNL     1       0.565   4.680  -1.864  0.00  0.00    +0.013 C 
ATOM     10  C   UNL     1       0.869   6.372  -0.193  0.00  0.00    +0.013 C 
ATOM     11  N   UNL     1       3.325   5.203  -2.687  0.00  0.00    -0.259 N 
ATOM     12  C   UNL     1       4.063   4.658  -3.754  0.00  0.00    +0.249 C 
ATOM     13  O   UNL     1       5.297   4.362  -3.832  0.00  0.00    -0.273 OA
BRANCH   8  14
ATOM     14  C   UNL     1       3.558   6.728  -0.828  0.00  0.00    +0.383 C 
ATOM     15  OXT UNL     1       3.202   7.176   0.451  0.00  0.00    -0.244 OA
ATOM     16  O   UNL     1       4.813   6.503  -0.891  0.00  0.00    -0.244 OA
ENDBRANCH   8  14
ENDBRANCH   2   4
BRANCH   1  19
ATOM     17  C   UNL     1      -1.054   5.737  -4.992  0.00  0.00    +0.076 C 
ATOM     18  C   UNL     1      -0.670   5.451  -6.313  0.00  0.00    +0.159 A 
ATOM     19  C   UNL     1       0.625   5.110  -6.675  0.00  0.00    +0.109 A 
ATOM     20  C   UNL     1       0.711   5.395  -8.014  0.00  0.00    +0.129 A 
ATOM     21  N   UNL     1      -0.573   5.460  -8.442  0.00  0.00    -0.077 NA
ATOM     22  O   UNL     1      -1.389   5.450  -7.424  0.00  0.00    -0.358 OA
BRANCH  20  23
ATOM     23  C   UNL     1       1.894   5.583  -8.864  0.00  0.00    +0.042 A 
ATOM     24  C   UNL     1       2.717   6.695  -8.710  0.00  0.00    +0.060 A 
ATOM     25 CL   UNL     1       2.346   7.917  -7.492  0.00  0.00    -0.082 Cl
ATOM     26  C   UNL     1       3.645   7.001  -9.699  0.00  0.00    +0.011 A 
ATOM     27  C   UNL     1       3.411   6.609 -11.013  0.00  0.00    +0.002 A 
ATOM     28  C   UNL     1       2.634   5.490 -11.179  0.00  0.00    +0.011 A 
ATOM     29  C   UNL     1       1.770   5.098 -10.162  0.00  0.00    +0.060 A 
ATOM     30 CL   UNL     1       0.401   4.104 -10.649  0.00  0.00    -0.082 Cl
ENDBRANCH  20  23
ENDBRANCH   1  19
TORSDOF 4
ENDMDL
MODEL 3
REMARK VINA RESULT:      -7.6      2.233      3.741
REMARK  Name = 
REMARK  4 active torsions:
REMARK  status: ('A' for Active; 'I' for Inactive)
REMARK    1  A    between atoms: C_5  and  C_6
REMARK    2  A    between atoms: C_14  and  C_15
REMARK    3  A    between atoms: N_17  and  CA_18
REMARK    4  A    between atoms: CA_27  and  C_28
REMARK                            x       y       z     vdW  Elec       q    Type
REMARK                         _______ _______ _______ _____ _____    ______ ____
ROOT
ATOM      1  C   UNL     1       2.123   6.065  -3.728  0.00  0.00    +0.270 C 
ATOM      2  N   UNL     1       2.546   5.516  -4.966  0.00  0.00    -0.191 NA
ATOM      3  O   UNL     1       2.633   7.192  -3.465  0.00  0.00    -0.268 OA
ENDROOT
BRANCH   2   4
ATOM      4  CA  UNL     1       4.129   5.247  -4.903  0.00  0.00    +0.200 C 
ATOM      5  C   UNL     1       4.352   4.860  -6.548  0.00  0.00    +0.153 C 
ATOM      6  S   UNL     1       2.632   4.203  -7.070  0.00  0.00    -0.118 S 
ATOM      7  C   UNL     1       2.192   5.534  -8.094  0.00  0.00    +0.068 C 
ATOM      8  CA  UNL     1       3.579   6.473  -8.198  0.00  0.00    +0.189 C 
ATOM      9  C   UNL     1       1.150   6.499  -7.618  0.00  0.00    +0.013 C 
ATOM     10  C   UNL     1       1.856   5.224  -9.521  0.00  0.00    +0.013 C 
ATOM     11  N   UNL     1       3.905   6.304  -6.648  0.00  0.00    -0.259 N 
ATOM     12  C   UNL     1       4.466   6.757  -5.440  0.00  0.00    +0.249 C 
ATOM     13  O   UNL     1       5.619   7.236  -5.199  0.00  0.00    -0.273 OA
BRANCH   8  14
ATOM     14  C   UNL     1       4.522   5.214  -8.714  0.00  0.00    +0.383 C 
ATOM     15  OXT UNL     1       4.302   4.934 -10.070  0.00  0.00    -0.244 OA
ATOM     16  O   UNL     1       5.709   5.645  -8.532  0.00  0.00    -0.244 OA
ENDBRANCH   8  14
ENDBRANCH   2   4
BRANCH   1  19
ATOM     17  C   UNL     1       2.339   4.980  -0.881  0.00  0.00    +0.076 C 
ATOM     18  C   UNL     1       1.161   4.965  -1.644  0.00  0.00    +0.159 A 
ATOM     19  C   UNL     1       1.057   5.542  -2.902  0.00  0.00    +0.109 A 
ATOM     20  C   UNL     1      -0.285   5.761  -3.088  0.00  0.00    +0.129 A 
ATOM     21  N   UNL     1      -0.900   4.952  -2.192  0.00  0.00    -0.077 NA
ATOM     22  O   UNL     1      -0.026   4.450  -1.363  0.00  0.00    -0.358 OA
BRANCH  20  23
ATOM     23  C   UNL     1      -0.973   6.646  -4.037  0.00  0.00    +0.042 A 
ATOM     24  C   UNL     1      -1.818   7.657  -3.591  0.00  0.00    +0.060 A 
ATOM     25 CL   UNL     1      -2.094   7.891  -1.864  0.00  0.00    -0.082 Cl
ATOM     26  C   UNL     1      -2.673   8.281  -4.492  0.00  0.00    +0.011 A 
ATOM     27  C   UNL     1      -3.108   7.595  -5.622  0.00  0.00    +0.002 A 
ATOM     28  C   UNL     1      -2.265   6.622  -6.098  0.00  0.00    +0.011 A 
ATOM     29  C   UNL     1      -1.326   6.052  -5.246  0.00  0.00    +0.060 A 
ATOM     30 CL   UNL     1      -0.750   4.448  -5.689  0.00  0.00    -0.082 Cl
ENDBRANCH  20  23
ENDBRANCH   1  19
TORSDOF 4
ENDMDL
MODEL 4
REMARK VINA RESULT:      -7.5      2.856      7.107
REMARK  Name = 
REMARK  4 active torsions:
REMARK  status: ('A' for Active; 'I' for Inactive)
REMARK    1  A    between atoms: C_5  and  C_6
REMARK    2  A    between atoms: C_14  and  C_15
REMARK    3  A    between atoms: N_17  and  CA_18
REMARK    4  A    between atoms: CA_27  and  C_28
REMARK                            x       y       z     vdW  Elec       q    Type
REMARK                         _______ _______ _______ _____ _____    ______ ____
ROOT
ATOM      1  C   UNL     1       1.732   6.695  -8.585  0.00  0.00    +0.270 C 
ATOM      2  N   UNL     1       1.915   5.869  -7.446  0.00  0.00    -0.191 NA
ATOM      3  O   UNL     1       1.428   7.891  -8.308  0.00  0.00    -0.268 OA
ENDROOT
BRANCH   2   4
ATOM      4  CA  UNL     1       0.525   5.767  -6.647  0.00  0.00    +0.200 C 
ATOM      5  C   UNL     1       1.160   5.201  -5.170  0.00  0.00    +0.153 C 
ATOM      6  S   UNL     1       2.771   4.320  -5.707  0.00  0.00    -0.118 S 
ATOM      7  C   UNL     1       3.884   5.463  -5.023  0.00  0.00    +0.068 C 
ATOM      8  CA  UNL     1       2.927   6.513  -4.131  0.00  0.00    +0.189 C 
ATOM      9  C   UNL     1       4.641   6.372  -5.941  0.00  0.00    +0.013 C 
ATOM     10  C   UNL     1       4.880   4.946  -4.030  0.00  0.00    +0.013 C 
ATOM     11  N   UNL     1       1.802   6.571  -5.256  0.00  0.00    -0.259 N 
ATOM     12  C   UNL     1       0.757   7.223  -5.937  0.00  0.00    +0.249 C 
ATOM     13  O   UNL     1      -0.258   7.839  -5.484  0.00  0.00    -0.273 OA
BRANCH   8  14
ATOM     14  C   UNL     1       2.229   5.298  -3.249  0.00  0.00    +0.383 C 
ATOM     15  OXT UNL     1       3.070   4.874  -2.210  0.00  0.00    -0.244 OA
ATOM     16  O   UNL     1       1.177   5.846  -2.778  0.00  0.00    -0.244 OA
ENDBRANCH   8  14
ENDBRANCH   2   4
BRANCH   1  19
ATOM     17  C   UNL     1       0.024   7.128 -11.079  0.00  0.00    +0.076 C 
ATOM     18  C   UNL     1       1.246   6.436 -11.069  0.00  0.00    +0.159 A 
ATOM     19  C   UNL     1       2.052   6.326  -9.946  0.00  0.00    +0.109 A 
ATOM     20  C   UNL     1       3.306   6.047 -10.428  0.00  0.00    +0.129 A 
ATOM     21  N   UNL     1       3.104   5.595 -11.690  0.00  0.00    -0.077 NA
ATOM     22  O   UNL     1       1.865   5.792 -12.047  0.00  0.00    -0.358 OA
BRANCH  20  23
ATOM     23  C   UNL     1       4.616   6.171  -9.777  0.00  0.00    +0.042 A 
ATOM     24  C   UNL     1       5.635   6.923 -10.353  0.00  0.00    +0.060 A 
ATOM     25 CL   UNL     1       5.378   7.739 -11.897  0.00  0.00    -0.082 Cl
ATOM     26  C   UNL     1       6.936   6.790  -9.880  0.00  0.00    +0.011 A 
ATOM     27  C   UNL     1       7.337   5.597  -9.286  0.00  0.00    +0.002 A 
ATOM     28  C   UNL     1       6.349   4.864  -8.679  0.00  0.00    +0.011 A 
ATOM     29  C   UNL     1       5.025   5.051  -9.058  0.00  0.00    +0.060 A 
ATOM     30 CL   UNL     1       3.931   3.707  -8.743  0.00  0.00    -0.082 Cl
ENDBRANCH  20  23
ENDBRANCH   1  19
TORSDOF 4
ENDMDL
MODEL 5
REMARK VINA RESULT:      -7.5      3.224      5.315
REMARK  Name = 
REMARK  4 active torsions:
REMARK  status: ('A' for Active; 'I' for Inactive)
REMARK    1  A    between atoms: C_5  and  C_6
REMARK    2  A    between atoms: C_14  and  C_15
REMARK    3  A    between atoms: N_17  and  CA_18
REMARK    4  A    between atoms: CA_27  and  C_28
REMARK                            x       y       z     vdW  Elec       q    Type
REMARK                         _______ _______ _______ _____ _____    ______ ____
ROOT
ATOM      1  C   UNL     1       2.998   7.660  -1.518  0.00  0.00    +0.270 C 
ATOM      2  N   UNL     1       2.963   6.722  -2.581  0.00  0.00    -0.191 NA
ATOM      3  O   UNL     1       3.461   8.791  -1.846  0.00  0.00    -0.268 OA
ENDROOT
BRANCH   2   4
ATOM      4  CA  UNL     1       4.466   6.427  -3.066  0.00  0.00    +0.200 C 
ATOM      5  C   UNL     1       4.075   5.590  -4.499  0.00  0.00    +0.153 C 
ATOM      6  S   UNL     1       2.342   4.875  -4.117  0.00  0.00    -0.118 S 
ATOM      7  C   UNL     1       1.444   5.883  -5.207  0.00  0.00    +0.068 C 
ATOM      8  CA  UNL     1       2.609   6.708  -6.088  0.00  0.00    +0.189 C 
ATOM      9  C   UNL     1       0.590   6.977  -4.643  0.00  0.00    +0.013 C 
ATOM     10  C   UNL     1       0.614   5.201  -6.253  0.00  0.00    +0.013 C 
ATOM     11  N   UNL     1       3.513   6.965  -4.803  0.00  0.00    -0.259 N 
ATOM     12  C   UNL     1       4.456   7.715  -4.076  0.00  0.00    +0.249 C 
ATOM     13  O   UNL     1       5.573   8.202  -4.439  0.00  0.00    -0.273 OA
BRANCH   8  14
ATOM     14  C   UNL     1       3.379   5.324  -6.570  0.00  0.00    +0.383 C 
ATOM     15  OXT UNL     1       2.686   4.691  -7.612  0.00  0.00    -0.244 OA
ATOM     16  O   UNL     1       4.512   5.746  -6.977  0.00  0.00    -0.244 OA
ENDBRANCH   8  14
ENDBRANCH   2   4
BRANCH   1  19
ATOM     17  C   UNL     1       3.945   8.787   1.158  0.00  0.00    +0.076 C 
ATOM     18  C   UNL     1       2.860   7.909   1.011  0.00  0.00    +0.159 A 
ATOM     19  C   UNL     1       2.387   7.478  -0.220  0.00  0.00    +0.109 A 
ATOM     20  C   UNL     1       1.095   7.078   0.010  0.00  0.00    +0.129 A 
ATOM     21  N   UNL     1       1.021   6.886   1.350  0.00  0.00    -0.077 NA
ATOM     22  O   UNL     1       2.094   7.345   1.932  0.00  0.00    -0.358 OA
BRANCH  20  23
ATOM     23  C   UNL     1      -0.010   6.869  -0.934  0.00  0.00    +0.042 A 
ATOM     24  C   UNL     1      -1.191   7.597  -0.828  0.00  0.00    +0.060 A 
ATOM     25 CL   UNL     1      -1.394   8.784   0.462  0.00  0.00    -0.082 Cl
ATOM     26  C   UNL     1      -2.315   7.184  -1.535  0.00  0.00    +0.011 A 
ATOM     27  C   UNL     1      -2.468   5.842  -1.869  0.00  0.00    +0.002 A 
ATOM     28  C   UNL     1      -1.310   5.121  -2.017  0.00  0.00    +0.011 A 
ATOM     29  C   UNL     1      -0.143   5.566  -1.406  0.00  0.00    +0.060 A 
ATOM     30 CL   UNL     1       1.084   4.342  -1.094  0.00  0.00    -0.082 Cl
ENDBRANCH  20  23
ENDBRANCH   1  19
TORSDOF 4
ENDMDL
MODEL 6
REMARK VINA RESULT:      -7.2      2.961      7.071
REMARK  Name = 
REMARK  4 active torsions:
REMARK  status: ('A' for Active; 'I' for Inactive)
REMARK    1  A    between atoms: C_5  and  C_6
REMARK    2  A    between atoms: C_14  and  C_15
REMARK    3  A    between atoms: N_17  and  CA_18
REMARK    4  A    between atoms: CA_27  and  C_28
REMARK                            x       y       z     vdW  Elec       q    Type
REMARK                         _______ _______ _______ _____ _____    ______ ____
ROOT
ATOM      1  C   UNL     1       2.414   6.967  -7.448  0.00  0.00    +0.270 C 
ATOM      2  N   UNL     1       1.974   6.643  -6.139  0.00  0.00    -0.191 NA
ATOM      3  O   UNL     1       1.862   7.996  -7.935  0.00  0.00    -0.268 OA
ENDROOT
BRANCH   2   4
ATOM      4  CA  UNL     1       0.409   6.285  -6.189  0.00  0.00    +0.200 C 
ATOM      5  C   UNL     1       0.341   5.390  -4.740  0.00  0.00    +0.153 C 
ATOM      6  S   UNL     1       2.131   4.740  -4.555  0.00  0.00    -0.118 S 
ATOM      7  C   UNL     1       2.579   5.717  -3.192  0.00  0.00    +0.068 C 
ATOM      8  CA  UNL     1       1.156   6.467  -2.715  0.00  0.00    +0.189 C 
ATOM      9  C   UNL     1       3.525   6.859  -3.401  0.00  0.00    +0.013 C 
ATOM     10  C   UNL     1       3.046   5.006  -1.958  0.00  0.00    +0.013 C 
ATOM     11  N   UNL     1       0.715   6.762  -4.216  0.00  0.00    -0.259 N 
ATOM     12  C   UNL     1       0.034   7.522  -5.184  0.00  0.00    +0.249 C 
ATOM     13  O   UNL     1      -1.160   7.961  -5.193  0.00  0.00    -0.273 OA
BRANCH   8  14
ATOM     14  C   UNL     1       0.328   5.041  -2.567  0.00  0.00    +0.383 C 
ATOM     15  OXT UNL     1       0.614   4.409  -1.348  0.00  0.00    -0.244 OA
ATOM     16  O   UNL     1      -0.894   5.407  -2.605  0.00  0.00    -0.244 OA
ENDBRANCH   8  14
ENDBRANCH   2   4
BRANCH   1  19
ATOM     17  C   UNL     1       4.807   5.545  -6.193  0.00  0.00    +0.076 C 
ATOM     18  C   UNL     1       4.665   5.786  -7.569  0.00  0.00    +0.159 A 
ATOM     19  C   UNL     1       3.531   6.353  -8.132  0.00  0.00    +0.109 A 
ATOM     20  C   UNL     1       3.556   5.976  -9.451  0.00  0.00    +0.129 A 
ATOM     21  N   UNL     1       4.839   5.611  -9.686  0.00  0.00    -0.077 NA
ATOM     22  O   UNL     1       5.502   5.541  -8.565  0.00  0.00    -0.358 OA
BRANCH  20  23
ATOM     23  C   UNL     1       2.478   5.961 -10.448  0.00  0.00    +0.042 A 
ATOM     24  C   UNL     1       1.386   5.111 -10.310  0.00  0.00    +0.060 A 
ATOM     25 CL   UNL     1       1.279   4.013  -8.932  0.00  0.00    -0.082 Cl
ATOM     26  C   UNL     1       0.539   4.902 -11.393  0.00  0.00    +0.011 A 
ATOM     27  C   UNL     1       1.026   5.043 -12.689  0.00  0.00    +0.002 A 
ATOM     28  C   UNL     1       2.077   5.911 -12.847  0.00  0.00    +0.011 A 
ATOM     29  C   UNL     1       2.881   6.220 -11.755  0.00  0.00    +0.060 A 
ATOM     30 CL   UNL     1       4.508   6.782 -12.125  0.00  0.00    -0.082 Cl
ENDBRANCH  20  23
ENDBRANCH   1  19
TORSDOF 4
ENDMDL
MODEL 7
REMARK VINA RESULT:      -7.1      3.941      6.040
REMARK  Name = 
REMARK  4 active torsions:
REMARK  status: ('A' for Active; 'I' for Inactive)
REMARK    1  A    between atoms: C_5  and  C_6
REMARK    2  A    between atoms: C_14  and  C_15
REMARK    3  A    between atoms: N_17  and  CA_18
REMARK    4  A    between atoms: CA_27  and  C_28
REMARK                            x       y       z     vdW  Elec       q    Type
REMARK                         _______ _______ _______ _____ _____    ______ ____
ROOT
ATOM      1  C   UNL     1       2.686   6.860  -3.146  0.00  0.00    +0.270 C 
ATOM      2  N   UNL     1       1.426   6.542  -3.716  0.00  0.00    -0.191 NA
ATOM      3  O   UNL     1       3.311   7.772  -3.758  0.00  0.00    -0.268 OA
ENDROOT
BRANCH   2   4
ATOM      4  CA  UNL     1       1.657   5.961  -5.196  0.00  0.00    +0.200 C 
ATOM      5  C   UNL     1       0.087   5.340  -5.435  0.00  0.00    +0.153 C 
ATOM      6  S   UNL     1      -0.514   4.997  -3.651  0.00  0.00    -0.118 S 
ATOM      7  C   UNL     1      -1.705   6.257  -3.576  0.00  0.00    +0.068 C 
ATOM      8  CA  UNL     1      -1.783   6.869  -5.137  0.00  0.00    +0.189 C 
ATOM      9  C   UNL     1      -1.426   7.467  -2.738  0.00  0.00    +0.013 C 
ATOM     10  C   UNL     1      -3.117   5.854  -3.273  0.00  0.00    +0.013 C 
ATOM     11  N   UNL     1      -0.202   6.823  -5.318  0.00  0.00    -0.259 N 
ATOM     12  C   UNL     1       0.998   7.292  -5.885  0.00  0.00    +0.249 C 
ATOM     13  O   UNL     1       1.288   7.547  -7.096  0.00  0.00    -0.273 OA
BRANCH   8  14
ATOM     14  C   UNL     1      -2.080   5.389  -5.817  0.00  0.00    +0.383 C 
ATOM     15  OXT UNL     1      -3.419   5.008  -5.646  0.00  0.00    -0.244 OA
ATOM     16  O   UNL     1      -1.823   5.578  -7.052  0.00  0.00    -0.244 OA
ENDBRANCH   8  14
ENDBRANCH   2   4
BRANCH   1  19
ATOM     17  C   UNL     1       5.119   5.088  -2.634  0.00  0.00    +0.076 C 
ATOM     18  C   UNL     1       4.221   5.502  -1.637  0.00  0.00    +0.159 A 
ATOM     19  C   UNL     1       3.172   6.380  -1.871  0.00  0.00    +0.109 A 
ATOM     20  C   UNL     1       2.863   6.907  -0.643  0.00  0.00    +0.129 A 
ATOM     21  N   UNL     1       3.402   6.045   0.254  0.00  0.00    -0.077 NA
ATOM     22  O   UNL     1       4.175   5.187  -0.352  0.00  0.00    -0.358 OA
BRANCH  20  23
ATOM     23  C   UNL     1       2.109   8.119  -0.300  0.00  0.00    +0.042 A 
ATOM     24  C   UNL     1       2.748   9.236   0.229  0.00  0.00    +0.060 A 
ATOM     25 CL   UNL     1       4.490   9.214   0.514  0.00  0.00    -0.082 Cl
ATOM     26  C   UNL     1       1.991  10.246   0.811  0.00  0.00    +0.011 A 
ATOM     27  C   UNL     1       0.752   9.948   1.369  0.00  0.00    +0.002 A 
ATOM     28  C   UNL     1       0.091   8.874   0.830  0.00  0.00    +0.011 A 
ATOM     29  C   UNL     1       0.810   7.897   0.150  0.00  0.00    +0.060 A 
ATOM     30 CL   UNL     1       0.060   6.307   0.054  0.00  0.00    -0.082 Cl
ENDBRANCH  20  23
ENDBRANCH   1  19
TORSDOF 4
ENDMDL
MODEL 8
REMARK VINA RESULT:      -6.7      4.325      6.010
REMARK  Name = 
REMARK  4 active torsions:
REMARK  status: ('A' for Active; 'I' for Inactive)
REMARK    1  A    between atoms: C_5  and  C_6
REMARK    2  A    between atoms: C_14  and  C_15
REMARK    3  A    between atoms: N_17  and  CA_18
REMARK    4  A    between atoms: CA_27  and  C_28
REMARK                            x       y       z     vdW  Elec       q    Type
REMARK                         _______ _______ _______ _____ _____    ______ ____
ROOT
ATOM      1  C   UNL     1       2.712   7.215  -2.051  0.00  0.00    +0.270 C 
ATOM      2  N   UNL     1       2.453   6.576  -3.290  0.00  0.00    -0.191 NA
ATOM      3  O   UNL     1       3.534   8.173  -2.129  0.00  0.00    -0.268 OA
ENDROOT
BRANCH   2   4
ATOM      4  CA  UNL     1       3.812   5.908  -3.826  0.00  0.00    +0.200 C 
ATOM      5  C   UNL     1       3.166   5.191  -5.231  0.00  0.00    +0.153 C 
ATOM      6  S   UNL     1       1.325   4.938  -4.775  0.00  0.00    -0.118 S 
ATOM      7  C   UNL     1       0.669   6.136  -5.846  0.00  0.00    +0.068 C 
ATOM      8  CA  UNL     1       1.970   6.635  -6.782  0.00  0.00    +0.189 C 
ATOM      9  C   UNL     1       0.142   7.413  -5.267  0.00  0.00    +0.013 C 
ATOM     10  C   UNL     1      -0.347   5.681  -6.850  0.00  0.00    +0.013 C 
ATOM     11  N   UNL     1       2.959   6.661  -5.534  0.00  0.00    -0.259 N 
ATOM     12  C   UNL     1       4.088   7.152  -4.854  0.00  0.00    +0.249 C 
ATOM     13  O   UNL     1       5.277   7.339  -5.264  0.00  0.00    -0.273 OA
BRANCH   8  14
ATOM     14  C   UNL     1       2.345   5.099  -7.271  0.00  0.00    +0.383 C 
ATOM     15  OXT UNL     1       1.510   4.678  -8.316  0.00  0.00    -0.244 OA
ATOM     16  O   UNL     1       3.550   5.207  -7.676  0.00  0.00    -0.244 OA
ENDBRANCH   8  14
ENDBRANCH   2   4
BRANCH   1  19
ATOM     17  C   UNL     1       1.393   4.619  -1.129  0.00  0.00    +0.076 C 
ATOM     18  C   UNL     1       1.305   5.838  -0.437  0.00  0.00    +0.159 A 
ATOM     19  C   UNL     1       1.983   6.986  -0.822  0.00  0.00    +0.109 A 
ATOM     20  C   UNL     1       2.050   7.761   0.308  0.00  0.00    +0.129 A 
ATOM     21  N   UNL     1       1.088   7.270   1.127  0.00  0.00    -0.077 NA
ATOM     22  O   UNL     1       0.621   6.148   0.653  0.00  0.00    -0.358 OA
BRANCH  20  23
ATOM     23  C   UNL     1       2.929   8.894   0.623  0.00  0.00    +0.042 A 
ATOM     24  C   UNL     1       4.237   8.689   1.052  0.00  0.00    +0.060 A 
ATOM     25 CL   UNL     1       4.867   7.051   1.242  0.00  0.00    -0.082 Cl
ATOM     26  C   UNL     1       4.945   9.744   1.618  0.00  0.00    +0.011 A 
ATOM     27  C   UNL     1       4.260  10.771   2.259  0.00  0.00    +0.002 A 
ATOM     28  C   UNL     1       2.983  11.012   1.819  0.00  0.00    +0.011 A 
ATOM     29  C   UNL     1       2.286  10.008   1.155  0.00  0.00    +0.060 A 
ATOM     30 CL   UNL     1       0.530  10.131   1.191  0.00  0.00    -0.082 Cl
ENDBRANCH  20  23
ENDBRANCH   1  19
TORSDOF 4
ENDMDL
MODEL 9
REMARK VINA RESULT:      -6.5      3.460      4.338
REMARK  Name = 
REMARK  4 active torsions:
REMARK  status: ('A' for Active; 'I' for Inactive)
REMARK    1  A    between atoms: C_5  and  C_6
REMARK    2  A    between atoms: C_14  and  C_15
REMARK    3  A    between atoms: N_17  and  CA_18
REMARK    4  A    between atoms: CA_27  and  C_28
REMARK                            x       y       z     vdW  Elec       q    Type
REMARK                         _______ _______ _______ _____ _____    ______ ____
ROOT
ATOM      1  C   UNL     1       1.509   5.897  -2.331  0.00  0.00    +0.270 C 
ATOM      2  N   UNL     1       1.720   5.998  -3.730  0.00  0.00    -0.191 NA
ATOM      3  O   UNL     1       0.335   5.552  -2.013  0.00  0.00    -0.268 OA
ENDROOT
BRANCH   2   4
ATOM      4  CA  UNL     1       0.777   7.159  -4.317  0.00  0.00    +0.200 C 
ATOM      5  C   UNL     1       1.656   7.454  -5.748  0.00  0.00    +0.153 C 
ATOM      6  S   UNL     1       3.430   6.911  -5.280  0.00  0.00    -0.118 S 
ATOM      7  C   UNL     1       3.495   5.494  -6.281  0.00  0.00    +0.068 C 
ATOM      8  CA  UNL     1       2.098   5.558  -7.207  0.00  0.00    +0.189 C 
ATOM      9  C   UNL     1       3.425   4.146  -5.631  0.00  0.00    +0.013 C 
ATOM     10  C   UNL     1       4.598   5.415  -7.292  0.00  0.00    +0.013 C 
ATOM     11  N   UNL     1       1.206   6.025  -5.974  0.00  0.00    -0.259 N 
ATOM     12  C   UNL     1      -0.018   6.104  -5.285  0.00  0.00    +0.249 C 
ATOM     13  O   UNL     1      -1.175   6.428  -5.702  0.00  0.00    -0.273 OA
BRANCH   8  14
ATOM     14  C   UNL     1       2.417   7.078  -7.778  0.00  0.00    +0.383 C 
ATOM     15  OXT UNL     1       3.404   7.053  -8.774  0.00  0.00    -0.244 OA
ATOM     16  O   UNL     1       1.298   7.448  -8.266  0.00  0.00    -0.244 OA
ENDBRANCH   8  14
ENDBRANCH   2   4
BRANCH   1  19
ATOM     17  C   UNL     1       4.271   4.597  -2.416  0.00  0.00    +0.076 C 
ATOM     18  C   UNL     1       3.763   5.299  -1.312  0.00  0.00    +0.159 A 
ATOM     19  C   UNL     1       2.543   5.960  -1.322  0.00  0.00    +0.109 A 
ATOM     20  C   UNL     1       2.629   6.889  -0.316  0.00  0.00    +0.129 A 
ATOM     21  N   UNL     1       3.645   6.461   0.471  0.00  0.00    -0.077 NA
ATOM     22  O   UNL     1       4.288   5.487  -0.111  0.00  0.00    -0.358 OA
BRANCH  20  23
ATOM     23  C   UNL     1       1.823   8.093  -0.075  0.00  0.00    +0.042 A 
ATOM     24  C   UNL     1       2.428   9.325   0.159  0.00  0.00    +0.060 A 
ATOM     25 CL   UNL     1       4.187   9.464   0.185  0.00  0.00    -0.082 Cl
ATOM     26  C   UNL     1       1.670  10.373   0.669  0.00  0.00    +0.011 A 
ATOM     27  C   UNL     1       0.548  10.102   1.445  0.00  0.00    +0.002 A 
ATOM     28  C   UNL     1      -0.083   8.909   1.197  0.00  0.00    +0.011 A 
ATOM     29  C   UNL     1       0.621   7.874   0.592  0.00  0.00    +0.060 A 
ATOM     30 CL   UNL     1       0.007   6.248   0.876  0.00  0.00    -0.082 Cl
ENDBRANCH  20  23
ENDBRANCH   1  19
TORSDOF 4
ENDMDL
