MODEL 1
REMARK VINA RESULT:      -7.1      0.000      0.000
REMARK  Name = 
REMARK  2 active torsions:
REMARK  status: ('A' for Active; 'I' for Inactive)
REMARK    1  A    between atoms: C_2  and  C_3
REMARK    2  A    between atoms: C_3  and  C_4
REMARK                            x       y       z     vdW  Elec       q    Type
REMARK                         _______ _______ _______ _____ _____    ______ ____
ROOT
ATOM      1  C   UNL     1       1.479   5.740  -7.020  0.00  0.00    +0.159 C 
ATOM      2  C   UNL     1       2.205   7.021  -7.104  0.00  0.00    +0.254 C 
ATOM      3  O   UNL     1       1.714   7.909  -7.846  0.00  0.00    -0.272 OA
ATOM      4  N   UNL     1       3.233   7.307  -6.189  0.00  0.00    -0.181 NA
ATOM      5  C   UNL     1       3.976   6.273  -5.528  0.00  0.00    +0.229 C 
ATOM      6  N   UNL     1       3.291   5.018  -5.436  0.00  0.00    -0.181 NA
ATOM      7  C   UNL     1       2.231   4.688  -6.309  0.00  0.00    +0.254 C 
ATOM      8  O   UNL     1       1.634   3.600  -6.098  0.00  0.00    -0.272 OA
ENDROOT
BRANCH   1   9
ATOM      9  C   UNL     1       0.148   5.915  -6.361  0.00  0.00    -0.006 A 
ATOM     10  C   UNL     1       0.083   6.677  -5.200  0.00  0.00    -0.003 A 
ATOM     11  C   UNL     1      -1.091   7.376  -4.945  0.00  0.00    -0.000 A 
ATOM     12  C   UNL     1      -2.263   6.735  -5.328  0.00  0.00    -0.000 A 
ATOM     13  C   UNL     1      -2.209   5.799  -6.351  0.00  0.00    -0.000 A 
ATOM     14  C   UNL     1      -1.016   5.517  -6.994  0.00  0.00    -0.003 A 
ENDBRANCH   1   9
BRANCH   1  16
ATOM     15  C   UNL     1       2.406   4.800  -9.120  0.00  0.00    +0.001 C 
ATOM     16  C   UNL     1       1.171   5.337  -8.460  0.00  0.00    +0.022 C 
ENDBRANCH   1  16
TORSDOF 2
ENDMDL
MODEL 2
REMARK VINA RESULT:      -7.0      1.264      3.161
REMARK  Name = 
REMARK  2 active torsions:
REMARK  status: ('A' for Active; 'I' for Inactive)
REMARK    1  A    between atoms: C_2  and  C_3
REMARK    2  A    between atoms: C_3  and  C_4
REMARK                            x       y       z     vdW  Elec       q    Type
REMARK                         _______ _______ _______ _____ _____    ______ ____
ROOT
ATOM      1  C   UNL     1       2.022   6.229  -6.629  0.00  0.00    +0.159 C 
ATOM      2  C   UNL     1       2.446   4.824  -6.776  0.00  0.00    +0.254 C 
ATOM      3  O   UNL     1       2.291   4.073  -5.779  0.00  0.00    -0.272 OA
ATOM      4  N   UNL     1       2.748   4.310  -8.049  0.00  0.00    -0.181 NA
ATOM      5  C   UNL     1       3.178   5.151  -9.129  0.00  0.00    +0.229 C 
ATOM      6  N   UNL     1       2.779   6.522  -9.007  0.00  0.00    -0.181 NA
ATOM      7  C   UNL     1       2.436   7.085  -7.758  0.00  0.00    +0.254 C 
ATOM      8  O   UNL     1       2.016   8.271  -7.762  0.00  0.00    -0.272 OA
ENDROOT
BRANCH   1   9
ATOM      9  C   UNL     1       0.539   6.331  -6.461  0.00  0.00    -0.006 A 
ATOM     10  C   UNL     1      -0.275   5.643  -7.353  0.00  0.00    -0.003 A 
ATOM     11  C   UNL     1      -1.504   5.186  -6.894  0.00  0.00    -0.000 A 
ATOM     12  C   UNL     1      -2.149   6.017  -5.987  0.00  0.00    -0.000 A 
ATOM     13  C   UNL     1      -1.388   6.882  -5.215  0.00  0.00    -0.000 A 
ATOM     14  C   UNL     1      -0.009   6.911  -5.330  0.00  0.00    -0.003 A 
ENDBRANCH   1   9
BRANCH   1  16
ATOM     15  C   UNL     1       4.094   6.923  -5.457  0.00  0.00    +0.001 C 
ATOM     16  C   UNL     1       2.617   6.711  -5.309  0.00  0.00    +0.022 C 
ENDBRANCH   1  16
TORSDOF 2
ENDMDL
MODEL 3
REMARK VINA RESULT:      -6.7      1.380      2.953
REMARK  Name = 
REMARK  2 active torsions:
REMARK  status: ('A' for Active; 'I' for Inactive)
REMARK    1  A    between atoms: C_2  and  C_3
REMARK    2  A    between atoms: C_3  and  C_4
REMARK                            x       y       z     vdW  Elec       q    Type
REMARK                         _______ _______ _______ _____ _____    ______ ____
ROOT
ATOM      1  C   UNL     1       1.912   5.812  -6.819  0.00  0.00    +0.159 C 
ATOM      2  C   UNL     1       2.205   4.452  -7.310  0.00  0.00    +0.254 C 
ATOM      3  O   UNL     1       2.224   3.528  -6.458  0.00  0.00    -0.272 OA
ATOM      4  N   UNL     1       2.189   4.185  -8.690  0.00  0.00    -0.181 NA
ATOM      5  C   UNL     1       2.426   5.209  -9.668  0.00  0.00    +0.229 C 
ATOM      6  N   UNL     1       2.149   6.539  -9.212  0.00  0.00    -0.181 NA
ATOM      7  C   UNL     1       2.122   6.859  -7.837  0.00  0.00    +0.254 C 
ATOM      8  O   UNL     1       1.786   8.032  -7.530  0.00  0.00    -0.272 OA
ENDROOT
BRANCH   1   9
ATOM      9  C   UNL     1       0.510   5.909  -6.304  0.00  0.00    -0.006 A 
ATOM     10  C   UNL     1       0.287   6.615  -5.128  0.00  0.00    -0.003 A 
ATOM     11  C   UNL     1      -0.935   7.259  -4.976  0.00  0.00    -0.000 A 
ATOM     12  C   UNL     1      -2.030   6.594  -5.512  0.00  0.00    -0.000 A 
ATOM     13  C   UNL     1      -1.827   5.709  -6.561  0.00  0.00    -0.000 A 
ATOM     14  C   UNL     1      -0.561   5.499  -7.079  0.00  0.00    -0.003 A 
ENDBRANCH   1   9
BRANCH   1  16
ATOM     15  C   UNL     1       4.237   6.164  -6.034  0.00  0.00    +0.001 C 
ATOM     16  C   UNL     1       2.808   6.020  -5.601  0.00  0.00    +0.022 C 
ENDBRANCH   1  16
TORSDOF 2
ENDMDL
MODEL 4
REMARK VINA RESULT:      -6.6      2.348      5.150
REMARK  Name = 
REMARK  2 active torsions:
REMARK  status: ('A' for Active; 'I' for Inactive)
REMARK    1  A    between atoms: C_2  and  C_3
REMARK    2  A    between atoms: C_3  and  C_4
REMARK                            x       y       z     vdW  Elec       q    Type
REMARK                         _______ _______ _______ _____ _____    ______ ____
ROOT
ATOM      1  C   UNL     1       2.489   5.866  -8.431  0.00  0.00    +0.159 C 
ATOM      2  C   UNL     1       2.405   4.509  -7.860  0.00  0.00    +0.254 C 
ATOM      3  O   UNL     1       2.536   3.544  -8.655  0.00  0.00    -0.272 OA
ATOM      4  N   UNL     1       2.447   4.329  -6.467  0.00  0.00    -0.181 NA
ATOM      5  C   UNL     1       2.046   5.359  -5.552  0.00  0.00    +0.229 C 
ATOM      6  N   UNL     1       2.119   6.687  -6.086  0.00  0.00    -0.181 NA
ATOM      7  C   UNL     1       2.109   6.926  -7.478  0.00  0.00    +0.254 C 
ATOM      8  O   UNL     1       2.263   8.117  -7.854  0.00  0.00    -0.272 OA
ENDROOT
BRANCH   1   9
ATOM      9  C   UNL     1       3.864   6.149  -8.950  0.00  0.00    -0.006 A 
ATOM     10  C   UNL     1       4.952   5.721  -8.199  0.00  0.00    -0.003 A 
ATOM     11  C   UNL     1       6.116   5.378  -8.876  0.00  0.00    -0.000 A 
ATOM     12  C   UNL     1       6.405   6.148  -9.996  0.00  0.00    -0.000 A 
ATOM     13  C   UNL     1       5.362   6.774 -10.663  0.00  0.00    -0.000 A 
ATOM     14  C   UNL     1       4.054   6.626 -10.235  0.00  0.00    -0.003 A 
ENDBRANCH   1   9
BRANCH   1  16
ATOM     15  C   UNL     1       0.147   5.760  -9.239  0.00  0.00    +0.001 C 
ATOM     16  C   UNL     1       1.583   5.861  -9.660  0.00  0.00    +0.022 C 
ENDBRANCH   1  16
TORSDOF 2
ENDMDL
MODEL 5
REMARK VINA RESULT:      -6.6      2.933      5.513
REMARK  Name = 
REMARK  2 active torsions:
REMARK  status: ('A' for Active; 'I' for Inactive)
REMARK    1  A    between atoms: C_2  and  C_3
REMARK    2  A    between atoms: C_3  and  C_4
REMARK                            x       y       z     vdW  Elec       q    Type
REMARK                         _______ _______ _______ _____ _____    ______ ____
ROOT
ATOM      1  C   UNL     1       2.904   5.842  -8.396  0.00  0.00    +0.159 C 
ATOM      2  C   UNL     1       2.128   7.081  -8.589  0.00  0.00    +0.254 C 
ATOM      3  O   UNL     1       2.609   8.138  -8.109  0.00  0.00    -0.272 OA
ATOM      4  N   UNL     1       1.053   7.103  -9.494  0.00  0.00    -0.181 NA
ATOM      5  C   UNL     1       0.329   5.915  -9.849  0.00  0.00    +0.229 C 
ATOM      6  N   UNL     1       1.064   4.698  -9.668  0.00  0.00    -0.181 NA
ATOM      7  C   UNL     1       2.171   4.625  -8.794  0.00  0.00    +0.254 C 
ATOM      8  O   UNL     1       2.806   3.539  -8.766  0.00  0.00    -0.272 OA
ENDROOT
BRANCH   1   9
ATOM      9  C   UNL     1       4.199   5.895  -9.144  0.00  0.00    -0.006 A 
ATOM     10  C   UNL     1       4.213   6.496 -10.397  0.00  0.00    -0.003 A 
ATOM     11  C   UNL     1       5.384   7.125 -10.805  0.00  0.00    -0.000 A 
ATOM     12  C   UNL     1       6.563   6.509 -10.404  0.00  0.00    -0.000 A 
ATOM     13  C   UNL     1       6.550   5.718  -9.264  0.00  0.00    -0.000 A 
ATOM     14  C   UNL     1       5.390   5.554  -8.527  0.00  0.00    -0.003 A 
ENDBRANCH   1   9
BRANCH   1  16
ATOM     15  C   UNL     1       2.091   5.466  -6.085  0.00  0.00    +0.001 C 
ATOM     16  C   UNL     1       3.288   5.812  -6.919  0.00  0.00    +0.022 C 
ENDBRANCH   1  16
TORSDOF 2
ENDMDL
MODEL 6
REMARK VINA RESULT:      -6.4      1.789      3.601
REMARK  Name = 
REMARK  2 active torsions:
REMARK  status: ('A' for Active; 'I' for Inactive)
REMARK    1  A    between atoms: C_2  and  C_3
REMARK    2  A    between atoms: C_3  and  C_4
REMARK                            x       y       z     vdW  Elec       q    Type
REMARK                         _______ _______ _______ _____ _____    ______ ____
ROOT
ATOM      1  C   UNL     1       2.130   6.075  -6.885  0.00  0.00    +0.159 C 
ATOM      2  C   UNL     1       2.475   7.057  -7.931  0.00  0.00    +0.254 C 
ATOM      3  O   UNL     1       2.083   8.238  -7.758  0.00  0.00    -0.272 OA
ATOM      4  N   UNL     1       3.419   6.727  -8.919  0.00  0.00    -0.181 NA
ATOM      5  C   UNL     1       3.682   5.370  -9.301  0.00  0.00    +0.229 C 
ATOM      6  N   UNL     1       3.353   4.398  -8.300  0.00  0.00    -0.181 NA
ATOM      7  C   UNL     1       2.433   4.683  -7.267  0.00  0.00    +0.254 C 
ATOM      8  O   UNL     1       2.272   3.799  -6.386  0.00  0.00    -0.272 OA
ENDROOT
BRANCH   1   9
ATOM      9  C   UNL     1       2.827   6.389  -5.599  0.00  0.00    -0.006 A 
ATOM     10  C   UNL     1       4.207   6.553  -5.621  0.00  0.00    -0.003 A 
ATOM     11  C   UNL     1       4.774   7.425  -4.699  0.00  0.00    -0.000 A 
ATOM     12  C   UNL     1       4.171   7.447  -3.448  0.00  0.00    -0.000 A 
ATOM     13  C   UNL     1       2.836   7.084  -3.344  0.00  0.00    -0.000 A 
ATOM     14  C   UNL     1       2.109   6.720  -4.464  0.00  0.00    -0.003 A 
ENDBRANCH   1   9
BRANCH   1  16
ATOM     15  C   UNL     1      -0.177   5.578  -7.648  0.00  0.00    +0.001 C 
ATOM     16  C   UNL     1       0.643   6.271  -6.600  0.00  0.00    +0.022 C 
ENDBRANCH   1  16
TORSDOF 2
ENDMDL
MODEL 7
REMARK VINA RESULT:      -6.3      2.177      3.951
REMARK  Name = 
REMARK  2 active torsions:
REMARK  status: ('A' for Active; 'I' for Inactive)
REMARK    1  A    between atoms: C_2  and  C_3
REMARK    2  A    between atoms: C_3  and  C_4
REMARK                            x       y       z     vdW  Elec       q    Type
REMARK                         _______ _______ _______ _____ _____    ______ ____
ROOT
ATOM      1  C   UNL     1       2.404   5.913  -8.326  0.00  0.00    +0.159 C 
ATOM      2  C   UNL     1       1.935   7.030  -7.483  0.00  0.00    +0.254 C 
ATOM      3  O   UNL     1       2.252   8.191  -7.844  0.00  0.00    -0.272 OA
ATOM      4  N   UNL     1       0.965   6.802  -6.492  0.00  0.00    -0.181 NA
ATOM      5  C   UNL     1       0.778   5.514  -5.888  0.00  0.00    +0.229 C 
ATOM      6  N   UNL     1       1.227   4.414  -6.689  0.00  0.00    -0.181 NA
ATOM      7  C   UNL     1       2.179   4.588  -7.718  0.00  0.00    +0.254 C 
ATOM      8  O   UNL     1       2.448   3.581  -8.423  0.00  0.00    -0.272 OA
ENDROOT
BRANCH   1   9
ATOM      9  C   UNL     1       1.756   5.946  -9.674  0.00  0.00    -0.006 A 
ATOM     10  C   UNL     1       0.369   6.002  -9.737  0.00  0.00    -0.003 A 
ATOM     11  C   UNL     1      -0.208   6.657 -10.819  0.00  0.00    -0.000 A 
ATOM     12  C   UNL     1       0.459   6.510 -12.030  0.00  0.00    -0.000 A 
ATOM     13  C   UNL     1       1.820   6.239 -12.014  0.00  0.00    -0.000 A 
ATOM     14  C   UNL     1       2.510   6.132 -10.819  0.00  0.00    -0.003 A 
ENDBRANCH   1   9
BRANCH   1  16
ATOM     15  C   UNL     1       4.700   5.691  -7.416  0.00  0.00    +0.001 C 
ATOM     16  C   UNL     1       3.887   6.173  -8.580  0.00  0.00    +0.022 C 
ENDBRANCH   1  16
TORSDOF 2
ENDMDL
MODEL 8
REMARK VINA RESULT:      -6.2      1.004      3.987
REMARK  Name = 
REMARK  2 active torsions:
REMARK  status: ('A' for Active; 'I' for Inactive)
REMARK    1  A    between atoms: C_2  and  C_3
REMARK    2  A    between atoms: C_3  and  C_4
REMARK                            x       y       z     vdW  Elec       q    Type
REMARK                         _______ _______ _______ _____ _____    ______ ____
ROOT
ATOM      1  C   UNL     1       1.401   5.999  -6.893  0.00  0.00    +0.159 C 
ATOM      2  C   UNL     1       1.917   4.890  -6.067  0.00  0.00    +0.254 C 
ATOM      3  O   UNL     1       1.203   3.859  -5.984  0.00  0.00    -0.272 OA
ATOM      4  N   UNL     1       3.252   4.903  -5.630  0.00  0.00    -0.181 NA
ATOM      5  C   UNL     1       3.995   6.121  -5.478  0.00  0.00    +0.229 C 
ATOM      6  N   UNL     1       3.511   7.213  -6.270  0.00  0.00    -0.181 NA
ATOM      7  C   UNL     1       2.187   7.241  -6.761  0.00  0.00    +0.254 C 
ATOM      8  O   UNL     1       1.878   8.197  -7.518  0.00  0.00    -0.272 OA
ENDROOT
BRANCH   1   9
ATOM      9  C   UNL     1       1.342   5.613  -8.337  0.00  0.00    -0.006 A 
ATOM     10  C   UNL     1       0.102   5.601  -8.966  0.00  0.00    -0.003 A 
ATOM     11  C   UNL     1       0.058   5.889 -10.325  0.00  0.00    -0.000 A 
ATOM     12  C   UNL     1       1.132   5.418 -11.070  0.00  0.00    -0.000 A 
ATOM     13  C   UNL     1       2.348   5.211 -10.434  0.00  0.00    -0.000 A 
ATOM     14  C   UNL     1       2.499   5.482  -9.085  0.00  0.00    -0.003 A 
ENDBRANCH   1   9
BRANCH   1  16
ATOM     15  C   UNL     1      -0.103   6.926  -5.153  0.00  0.00    +0.001 C 
ATOM     16  C   UNL     1      -0.050   6.201  -6.465  0.00  0.00    +0.022 C 
ENDBRANCH   1  16
TORSDOF 2
ENDMDL
MODEL 9
REMARK VINA RESULT:      -6.1      2.059      4.544
REMARK  Name = 
REMARK  2 active torsions:
REMARK  status: ('A' for Active; 'I' for Inactive)
REMARK    1  A    between atoms: C_2  and  C_3
REMARK    2  A    between atoms: C_3  and  C_4
REMARK                            x       y       z     vdW  Elec       q    Type
REMARK                         _______ _______ _______ _____ _____    ______ ____
ROOT
ATOM      1  C   UNL     1       3.205   5.455  -5.952  0.00  0.00    +0.159 C 
ATOM      2  C   UNL     1       2.829   6.761  -5.377  0.00  0.00    +0.254 C 
ATOM      3  O   UNL     1       3.745   7.612  -5.244  0.00  0.00    -0.272 OA
ATOM      4  N   UNL     1       1.473   7.107  -5.247  0.00  0.00    -0.181 NA
ATOM      5  C   UNL     1       0.440   6.118  -5.139  0.00  0.00    +0.229 C 
ATOM      6  N   UNL     1       0.782   4.841  -5.690  0.00  0.00    -0.181 NA
ATOM      7  C   UNL     1       2.128   4.450  -5.871  0.00  0.00    +0.254 C 
ATOM      8  O   UNL     1       2.330   3.346  -6.440  0.00  0.00    -0.272 OA
ENDROOT
BRANCH   1   9
ATOM      9  C   UNL     1       3.631   5.596  -7.379  0.00  0.00    -0.006 A 
ATOM     10  C   UNL     1       2.773   6.240  -8.263  0.00  0.00    -0.003 A 
ATOM     11  C   UNL     1       3.337   6.938  -9.325  0.00  0.00    -0.000 A 
ATOM     12  C   UNL     1       4.475   6.366  -9.878  0.00  0.00    -0.000 A 
ATOM     13  C   UNL     1       5.258   5.536  -9.088  0.00  0.00    -0.000 A 
ATOM     14  C   UNL     1       4.924   5.291  -7.767  0.00  0.00    -0.003 A 
ENDBRANCH   1   9
BRANCH   1  16
ATOM     15  C   UNL     1       4.111   4.719  -3.764  0.00  0.00    +0.001 C 
ATOM     16  C   UNL     1       4.453   5.007  -5.196  0.00  0.00    +0.022 C 
ENDBRANCH   1  16
TORSDOF 2
ENDMDL
