MODEL 1
REMARK VINA RESULT:      -8.5      0.000      0.000
REMARK  Name = 
REMARK  7 active torsions:
REMARK  status: ('A' for Active; 'I' for Inactive)
REMARK    1  A    between atoms: N_2  and  C_3
REMARK    2  A    between atoms: C_3  and  C_5
REMARK    3  A    between atoms: C_10  and  O_11
REMARK    4  A    between atoms: O_11  and  C_12
REMARK    5  A    between atoms: C_15  and  O_16
REMARK    6  A    between atoms: O_16  and  C_17
REMARK    7  A    between atoms: C_23  and  N_24
REMARK                            x       y       z     vdW  Elec       q    Type
REMARK                         _______ _______ _______ _____ _____    ______ ____
ROOT
ATOM      1  C   UNL     1       3.354   5.160 -10.387  0.00  0.00    +0.168 C 
ATOM      2  C   UNL     1       2.279   6.452 -10.734  0.00  0.00    +0.123 C 
ATOM      3  N   UNL     1       1.094   5.423 -10.995  0.00  0.00    -0.130 NA
ATOM      4  C   UNL     1       1.658   7.019  -9.438  0.00  0.00    +0.043 C 
ATOM      5  C   UNL     1       1.507   6.457  -7.998  0.00  0.00    +0.123 C 
ATOM      6  N   UNL     1       0.929   5.051  -8.393  0.00  0.00    -0.130 NA
ATOM      7  C   UNL     1       3.200   6.162  -8.009  0.00  0.00    +0.168 C 
ATOM      8  C   UNL     1       2.893   4.711  -8.831  0.00  0.00    +0.209 C 
ATOM      9  O   UNL     1       4.258   4.170  -8.510  0.00  0.00    -0.218 OA
ENDROOT
BRANCH   1  10
ATOM     10  O   UNL     1       4.544   5.996 -10.073  0.00  0.00    -0.328 OA
BRANCH  10  13
ATOM     11  C   UNL     1       6.373   5.936 -12.978  0.00  0.00    +0.134 C 
ATOM     12  O   UNL     1       5.695   6.775 -11.922  0.00  0.00    -0.331 OA
ATOM     13  C   UNL     1       5.639   5.531 -11.034  0.00  0.00    +0.253 C 
ATOM     14  C   UNL     1       7.012   5.917 -10.060  0.00  0.00    +0.148 C 
ATOM     15  N   UNL     1       7.205   7.426 -10.361  0.00  0.00    -0.128 NA
ATOM     16  C   UNL     1       8.024   5.497 -11.271  0.00  0.00    +0.027 C 
ATOM     17  C   UNL     1       7.836   6.446 -12.443  0.00  0.00    +0.033 C 
BRANCH  11  18
ATOM     18  C   UNL     1       6.226   7.041 -14.281  0.00  0.00    +0.100 C 
ATOM     19  C   UNL     1       7.113   6.110 -15.282  0.00  0.00    +0.021 C 
BRANCH  18  21
ATOM     20  C   UNL     1       4.811   7.217 -16.094  0.00  0.00    +0.107 C 
ATOM     21  N   UNL     1       4.877   6.525 -14.856  0.00  0.00    -0.215 NA
ENDBRANCH  18  21
ENDBRANCH  11  18
ENDBRANCH  10  13
ENDBRANCH   1  10
BRANCH   7  22
ATOM     22  O   UNL     1       3.315   5.379  -6.776  0.00  0.00    -0.327 OA
BRANCH  22  23
ATOM     23  C   UNL     1       3.590   6.142  -5.529  0.00  0.00    +0.268 C 
ATOM     24  C   UNL     1       3.669   4.664  -4.627  0.00  0.00    +0.226 C 
ATOM     25  O   UNL     1       5.148   4.537  -4.491  0.00  0.00    -0.216 OA
ATOM     26  C   UNL     1       3.561   5.396  -3.091  0.00  0.00    +0.138 C 
ATOM     27  C   UNL     1       3.980   6.908  -3.490  0.00  0.00    +0.171 C 
ATOM     28  O   UNL     1       2.936   7.698  -3.650  0.00  0.00    -0.222 OA
ATOM     29  C   UNL     1       4.533   7.255  -2.091  0.00  0.00    +0.037 C 
ATOM     30  C   UNL     1       5.127   6.989  -4.378  0.00  0.00    +0.176 C 
ATOM     31  O   UNL     1       5.096   6.343  -5.629  0.00  0.00    -0.326 OA
BRANCH  26  32
ATOM     32  N   UNL     1       2.016   5.616  -3.260  0.00  0.00    -0.213 NA
ATOM     33  C   UNL     1       1.422   5.237  -1.982  0.00  0.00    +0.108 C 
ENDBRANCH  26  32
ENDBRANCH  22  23
ENDBRANCH   7  22
TORSDOF 7
ENDMDL
MODEL 2
REMARK VINA RESULT:      -8.4      2.856      9.839
REMARK  Name = 
REMARK  7 active torsions:
REMARK  status: ('A' for Active; 'I' for Inactive)
REMARK    1  A    between atoms: N_2  and  C_3
REMARK    2  A    between atoms: C_3  and  C_5
REMARK    3  A    between atoms: C_10  and  O_11
REMARK    4  A    between atoms: O_11  and  C_12
REMARK    5  A    between atoms: C_15  and  O_16
REMARK    6  A    between atoms: O_16  and  C_17
REMARK    7  A    between atoms: C_23  and  N_24
REMARK                            x       y       z     vdW  Elec       q    Type
REMARK                         _______ _______ _______ _____ _____    ______ ____
ROOT
ATOM      1  C   UNL     1       2.131   5.564  -2.848  0.00  0.00    +0.168 C 
ATOM      2  C   UNL     1       2.844   7.052  -2.376  0.00  0.00    +0.123 C 
ATOM      3  N   UNL     1       4.075   6.280  -1.729  0.00  0.00    -0.130 NA
ATOM      4  C   UNL     1       3.677   7.656  -3.527  0.00  0.00    +0.043 C 
ATOM      5  C   UNL     1       4.293   7.058  -4.822  0.00  0.00    +0.123 C 
ATOM      6  N   UNL     1       4.976   5.809  -4.159  0.00  0.00    -0.130 NA
ATOM      7  C   UNL     1       2.731   6.450  -5.201  0.00  0.00    +0.168 C 
ATOM      8  C   UNL     1       3.052   5.128  -4.189  0.00  0.00    +0.209 C 
ATOM      9  O   UNL     1       1.931   4.323  -4.783  0.00  0.00    -0.218 OA
ENDROOT
BRANCH   1  10
ATOM     10  O   UNL     1       0.941   6.142  -3.528  0.00  0.00    -0.328 OA
BRANCH  10  13
ATOM     11  C   UNL     1      -1.429   6.341  -1.053  0.00  0.00    +0.134 C 
ATOM     12  O   UNL     1      -0.653   7.062  -2.129  0.00  0.00    -0.331 OA
ATOM     13  C   UNL     1      -0.264   5.697  -2.699  0.00  0.00    +0.253 C 
ATOM     14  C   UNL     1      -1.442   5.663  -3.962  0.00  0.00    +0.148 C 
ATOM     15  N   UNL     1      -1.875   7.150  -4.037  0.00  0.00    -0.128 NA
ATOM     16  C   UNL     1      -2.624   5.324  -2.887  0.00  0.00    +0.027 C 
ATOM     17  C   UNL     1      -2.800   6.497  -1.937  0.00  0.00    +0.033 C 
BRANCH  11  18
ATOM     18  C   UNL     1      -1.690   7.683  -0.018  0.00  0.00    +0.100 C 
ATOM     19  C   UNL     1      -2.005   6.737   1.271  0.00  0.00    +0.021 C 
BRANCH  18  21
ATOM     20  C   UNL     1      -0.348   9.025   1.294  0.00  0.00    +0.107 C 
ATOM     21  N   UNL     1      -0.214   7.922   0.409  0.00  0.00    -0.215 NA
ENDBRANCH  18  21
ENDBRANCH  11  18
ENDBRANCH  10  13
ENDBRANCH   1  10
BRANCH   7  22
ATOM     22  O   UNL     1       3.077   5.595  -6.340  0.00  0.00    -0.327 OA
BRANCH  22  23
ATOM     23  C   UNL     1       2.396   5.899  -7.627  0.00  0.00    +0.268 C 
ATOM     24  C   UNL     1       3.579   4.968  -8.487  0.00  0.00    +0.226 C 
ATOM     25  O   UNL     1       2.787   3.730  -8.733  0.00  0.00    -0.216 OA
ATOM     26  C   UNL     1       3.178   5.567 -10.031  0.00  0.00    +0.138 C 
ATOM     27  C   UNL     1       1.700   6.148  -9.713  0.00  0.00    +0.171 C 
ATOM     28  O   UNL     1       1.702   7.449  -9.498  0.00  0.00    -0.222 OA
ATOM     29  C   UNL     1       1.190   5.984 -11.161  0.00  0.00    +0.037 C 
ATOM     30  C   UNL     1       0.873   5.255  -8.920  0.00  0.00    +0.176 C 
ATOM     31  O   UNL     1       1.311   4.831  -7.652  0.00  0.00    -0.326 OA
BRANCH  26  32
ATOM     32  N   UNL     1       3.934   6.914  -9.751  0.00  0.00    -0.213 NA
ATOM     33  C   UNL     1       4.896   7.060 -10.839  0.00  0.00    +0.108 C 
ENDBRANCH  26  32
ENDBRANCH  22  23
ENDBRANCH   7  22
TORSDOF 7
ENDMDL
MODEL 3
REMARK VINA RESULT:      -8.3      4.501      7.791
REMARK  Name = 
REMARK  7 active torsions:
REMARK  status: ('A' for Active; 'I' for Inactive)
REMARK    1  A    between atoms: N_2  and  C_3
REMARK    2  A    between atoms: C_3  and  C_5
REMARK    3  A    between atoms: C_10  and  O_11
REMARK    4  A    between atoms: O_11  and  C_12
REMARK    5  A    between atoms: C_15  and  O_16
REMARK    6  A    between atoms: O_16  and  C_17
REMARK    7  A    between atoms: C_23  and  N_24
REMARK                            x       y       z     vdW  Elec       q    Type
REMARK                         _______ _______ _______ _____ _____    ______ ____
ROOT
ATOM      1  C   UNL     1      -0.379   5.354  -3.787  0.00  0.00    +0.168 C 
ATOM      2  C   UNL     1      -1.111   6.403  -4.931  0.00  0.00    +0.123 C 
ATOM      3  N   UNL     1      -2.245   5.326  -5.223  0.00  0.00    -0.130 NA
ATOM      4  C   UNL     1      -2.069   7.397  -4.238  0.00  0.00    +0.043 C 
ATOM      5  C   UNL     1      -2.771   7.406  -2.852  0.00  0.00    +0.123 C 
ATOM      6  N   UNL     1      -3.337   5.943  -2.907  0.00  0.00    -0.130 NA
ATOM      7  C   UNL     1      -1.224   7.163  -2.144  0.00  0.00    +0.168 C 
ATOM      8  C   UNL     1      -1.396   5.505  -2.453  0.00  0.00    +0.209 C 
ATOM      9  O   UNL     1      -0.298   5.149  -1.490  0.00  0.00    -0.218 OA
ENDROOT
BRANCH   1  10
ATOM     10  O   UNL     1       0.720   6.271  -3.379  0.00  0.00    -0.328 OA
BRANCH  10  13
ATOM     11  C   UNL     1       3.249   5.656  -5.616  0.00  0.00    +0.134 C 
ATOM     12  O   UNL     1       2.357   6.682  -4.959  0.00  0.00    -0.331 OA
ATOM     13  C   UNL     1       2.005   5.632  -3.903  0.00  0.00    +0.253 C 
ATOM     14  C   UNL     1       3.088   6.202  -2.684  0.00  0.00    +0.148 C 
ATOM     15  N   UNL     1       3.429   7.625  -3.197  0.00  0.00    -0.128 NA
ATOM     16  C   UNL     1       4.363   5.559  -3.476  0.00  0.00    +0.027 C 
ATOM     17  C   UNL     1       4.541   6.264  -4.811  0.00  0.00    +0.033 C 
BRANCH  11  18
ATOM     18  C   UNL     1       3.509   6.490  -7.093  0.00  0.00    +0.100 C 
ATOM     19  C   UNL     1       4.466   5.312  -7.687  0.00  0.00    +0.021 C 
BRANCH  18  21
ATOM     20  C   UNL     1       1.892   7.124  -8.610  0.00  0.00    +0.107 C 
ATOM     21  N   UNL     1       2.256   5.976  -7.858  0.00  0.00    -0.215 NA
ENDBRANCH  18  21
ENDBRANCH  11  18
ENDBRANCH  10  13
ENDBRANCH   1  10
BRANCH   7  22
ATOM     22  O   UNL     1      -1.632   6.895  -0.763  0.00  0.00    -0.327 OA
BRANCH  22  23
ATOM     23  C   UNL     1      -1.386   7.981   0.224  0.00  0.00    +0.268 C 
ATOM     24  C   UNL     1      -1.398   6.826   1.517  0.00  0.00    +0.226 C 
ATOM     25  O   UNL     1       0.069   6.714   1.760  0.00  0.00    -0.216 OA
ATOM     26  C   UNL     1      -1.548   7.974   2.768  0.00  0.00    +0.138 C 
ATOM     27  C   UNL     1      -1.060   9.297   1.973  0.00  0.00    +0.171 C 
ATOM     28  O   UNL     1      -2.068  10.028   1.538  0.00  0.00    -0.222 OA
ATOM     29  C   UNL     1      -0.558  10.023   3.239  0.00  0.00    +0.037 C 
ATOM     30  C   UNL     1       0.127   9.094   1.160  0.00  0.00    +0.176 C 
ATOM     31  O   UNL     1       0.129   8.115   0.149  0.00  0.00    -0.326 OA
BRANCH  26  32
ATOM     32  N   UNL     1      -3.075   8.167   2.463  0.00  0.00    -0.213 NA
ATOM     33  C   UNL     1      -3.753   8.046   3.750  0.00  0.00    +0.108 C 
ENDBRANCH  26  32
ENDBRANCH  22  23
ENDBRANCH   7  22
TORSDOF 7
ENDMDL
MODEL 4
REMARK VINA RESULT:      -8.2      3.254      5.270
REMARK  Name = 
REMARK  7 active torsions:
REMARK  status: ('A' for Active; 'I' for Inactive)
REMARK    1  A    between atoms: N_2  and  C_3
REMARK    2  A    between atoms: C_3  and  C_5
REMARK    3  A    between atoms: C_10  and  O_11
REMARK    4  A    between atoms: O_11  and  C_12
REMARK    5  A    between atoms: C_15  and  O_16
REMARK    6  A    between atoms: O_16  and  C_17
REMARK    7  A    between atoms: C_23  and  N_24
REMARK                            x       y       z     vdW  Elec       q    Type
REMARK                         _______ _______ _______ _____ _____    ______ ____
ROOT
ATOM      1  C   UNL     1       2.886   6.390  -8.144  0.00  0.00    +0.168 C 
ATOM      2  C   UNL     1       3.489   4.806  -7.876  0.00  0.00    +0.123 C 
ATOM      3  N   UNL     1       4.818   5.399  -7.235  0.00  0.00    -0.130 NA
ATOM      4  C   UNL     1       2.963   4.230  -6.543  0.00  0.00    +0.043 C 
ATOM      5  C   UNL     1       2.347   4.881  -5.274  0.00  0.00    +0.123 C 
ATOM      6  N   UNL     1       3.434   5.997  -5.076  0.00  0.00    -0.130 NA
ATOM      7  C   UNL     1       1.218   5.664  -6.307  0.00  0.00    +0.168 C 
ATOM      8  C   UNL     1       2.388   6.854  -6.604  0.00  0.00    +0.209 C 
ATOM      9  O   UNL     1       1.364   7.811  -7.149  0.00  0.00    -0.218 OA
ENDROOT
BRANCH   1  10
ATOM     10  O   UNL     1       1.577   5.988  -8.728  0.00  0.00    -0.328 OA
BRANCH  10  13
ATOM     11  C   UNL     1       2.426   6.237 -12.045  0.00  0.00    +0.134 C 
ATOM     12  O   UNL     1       2.055   5.333 -10.894  0.00  0.00    -0.331 OA
ATOM     13  C   UNL     1       1.561   6.570 -10.142  0.00  0.00    +0.253 C 
ATOM     14  C   UNL     1      -0.118   6.356 -10.485  0.00  0.00    +0.148 C 
ATOM     15  N   UNL     1      -0.165   4.878 -10.950  0.00  0.00    -0.128 NA
ATOM     16  C   UNL     1       0.100   6.881 -12.016  0.00  0.00    +0.027 C 
ATOM     17  C   UNL     1       0.992   5.906 -12.766  0.00  0.00    +0.033 C 
BRANCH  11  18
ATOM     18  C   UNL     1       3.372   5.110 -12.927  0.00  0.00    +0.100 C 
ATOM     19  C   UNL     1       3.666   6.170 -14.130  0.00  0.00    +0.021 C 
BRANCH  18  21
ATOM     20  C   UNL     1       5.621   5.400 -13.349  0.00  0.00    +0.107 C 
ATOM     21  N   UNL     1       4.739   5.382 -12.237  0.00  0.00    -0.215 NA
ENDBRANCH  18  21
ENDBRANCH  11  18
ENDBRANCH  10  13
ENDBRANCH   1  10
BRANCH   7  22
ATOM     22  O   UNL     1       0.605   6.580  -5.342  0.00  0.00    -0.327 OA
BRANCH  22  23
ATOM     23  C   UNL     1      -0.613   6.089  -4.643  0.00  0.00    +0.268 C 
ATOM     24  C   UNL     1      -1.071   7.719  -4.271  0.00  0.00    +0.226 C 
ATOM     25  O   UNL     1      -2.134   7.917  -5.298  0.00  0.00    -0.216 OA
ATOM     26  C   UNL     1      -2.239   7.305  -3.100  0.00  0.00    +0.138 C 
ATOM     27  C   UNL     1      -2.483   5.757  -3.509  0.00  0.00    +0.171 C 
ATOM     28  O   UNL     1      -1.806   4.919  -2.748  0.00  0.00    -0.222 OA
ATOM     29  C   UNL     1      -3.927   5.713  -2.962  0.00  0.00    +0.037 C 
ATOM     30  C   UNL     1      -2.616   5.537  -4.938  0.00  0.00    +0.176 C 
ATOM     31  O   UNL     1      -1.578   5.919  -5.808  0.00  0.00    -0.326 OA
BRANCH  26  32
ATOM     32  N   UNL     1      -1.125   7.007  -2.035  0.00  0.00    -0.213 NA
ATOM     33  C   UNL     1      -1.581   7.638  -0.801  0.00  0.00    +0.108 C 
ENDBRANCH  26  32
ENDBRANCH  22  23
ENDBRANCH   7  22
TORSDOF 7
ENDMDL
MODEL 5
REMARK VINA RESULT:      -8.2      2.394      8.117
REMARK  Name = 
REMARK  7 active torsions:
REMARK  status: ('A' for Active; 'I' for Inactive)
REMARK    1  A    between atoms: N_2  and  C_3
REMARK    2  A    between atoms: C_3  and  C_5
REMARK    3  A    between atoms: C_10  and  O_11
REMARK    4  A    between atoms: O_11  and  C_12
REMARK    5  A    between atoms: C_15  and  O_16
REMARK    6  A    between atoms: O_16  and  C_17
REMARK    7  A    between atoms: C_23  and  N_24
REMARK                            x       y       z     vdW  Elec       q    Type
REMARK                         _______ _______ _______ _____ _____    ______ ____
ROOT
ATOM      1  C   UNL     1       1.067   6.293  -9.173  0.00  0.00    +0.168 C 
ATOM      2  C   UNL     1       0.323   5.054 -10.098  0.00  0.00    +0.123 C 
ATOM      3  N   UNL     1      -0.626   6.121 -10.800  0.00  0.00    -0.130 NA
ATOM      4  C   UNL     1       1.133   4.758 -11.380  0.00  0.00    +0.043 C 
ATOM      5  C   UNL     1       2.209   5.557 -12.166  0.00  0.00    +0.123 C 
ATOM      6  N   UNL     1       1.436   6.923 -12.229  0.00  0.00    -0.130 NA
ATOM      7  C   UNL     1       3.077   5.707 -10.690  0.00  0.00    +0.168 C 
ATOM      8  C   UNL     1       2.086   7.025 -10.297  0.00  0.00    +0.209 C 
ATOM      9  O   UNL     1       3.034   7.498  -9.231  0.00  0.00    -0.218 OA
ENDROOT
BRANCH   1  10
ATOM     10  O   UNL     1       2.046   5.425  -8.464  0.00  0.00    -0.328 OA
BRANCH  10  13
ATOM     11  C   UNL     1       0.636   6.210  -5.434  0.00  0.00    +0.134 C 
ATOM     12  O   UNL     1       0.672   5.264  -6.611  0.00  0.00    -0.331 OA
ATOM     13  C   UNL     1       2.017   5.878  -7.004  0.00  0.00    +0.253 C 
ATOM     14  C   UNL     1       3.009   4.634  -6.333  0.00  0.00    +0.148 C 
ATOM     15  N   UNL     1       1.990   3.482  -6.134  0.00  0.00    -0.128 NA
ATOM     16  C   UNL     1       2.740   5.196  -4.823  0.00  0.00    +0.027 C 
ATOM     17  C   UNL     1       1.269   5.040  -4.477  0.00  0.00    +0.033 C 
BRANCH  11  18
ATOM     18  C   UNL     1      -1.006   5.974  -5.000  0.00  0.00    +0.100 C 
ATOM     19  C   UNL     1      -1.217   7.543  -4.612  0.00  0.00    +0.021 C 
BRANCH  18  21
ATOM     20  C   UNL     1      -2.837   5.405  -6.283  0.00  0.00    +0.107 C 
ATOM     21  N   UNL     1      -1.634   6.149  -6.411  0.00  0.00    -0.215 NA
ENDBRANCH  18  21
ENDBRANCH  11  18
ENDBRANCH  10  13
ENDBRANCH   1  10
BRANCH   7  22
ATOM     22  O   UNL     1       4.100   6.668 -11.110  0.00  0.00    -0.327 OA
BRANCH  22  23
ATOM     23  C   UNL     1       5.451   6.115 -11.396  0.00  0.00    +0.268 C 
ATOM     24  C   UNL     1       5.935   7.625 -12.095  0.00  0.00    +0.226 C 
ATOM     25  O   UNL     1       6.750   8.168 -10.970  0.00  0.00    -0.216 OA
ATOM     26  C   UNL     1       7.335   7.020 -12.856  0.00  0.00    +0.138 C 
ATOM     27  C   UNL     1       7.528   5.656 -12.007  0.00  0.00    +0.171 C 
ATOM     28  O   UNL     1       7.049   4.597 -12.631  0.00  0.00    -0.222 OA
ATOM     29  C   UNL     1       9.054   5.591 -12.225  0.00  0.00    +0.037 C 
ATOM     30  C   UNL     1       7.360   5.823 -10.573  0.00  0.00    +0.176 C 
ATOM     31  O   UNL     1       6.151   6.331 -10.061  0.00  0.00    -0.326 OA
BRANCH  26  32
ATOM     32  N   UNL     1       6.480   6.368 -14.000  0.00  0.00    -0.213 NA
ATOM     33  C   UNL     1       7.091   6.809 -15.250  0.00  0.00    +0.108 C 
ENDBRANCH  26  32
ENDBRANCH  22  23
ENDBRANCH   7  22
TORSDOF 7
ENDMDL
MODEL 6
REMARK VINA RESULT:      -7.8      3.524      4.880
REMARK  Name = 
REMARK  7 active torsions:
REMARK  status: ('A' for Active; 'I' for Inactive)
REMARK    1  A    between atoms: N_2  and  C_3
REMARK    2  A    between atoms: C_3  and  C_5
REMARK    3  A    between atoms: C_10  and  O_11
REMARK    4  A    between atoms: O_11  and  C_12
REMARK    5  A    between atoms: C_15  and  O_16
REMARK    6  A    between atoms: O_16  and  C_17
REMARK    7  A    between atoms: C_23  and  N_24
REMARK                            x       y       z     vdW  Elec       q    Type
REMARK                         _______ _______ _______ _____ _____    ______ ____
ROOT
ATOM      1  C   UNL     1      -0.376   5.163  -6.369  0.00  0.00    +0.168 C 
ATOM      2  C   UNL     1      -1.432   6.516  -6.373  0.00  0.00    +0.123 C 
ATOM      3  N   UNL     1      -2.659   5.585  -5.978  0.00  0.00    -0.130 NA
ATOM      4  C   UNL     1      -1.398   7.249  -5.014  0.00  0.00    +0.043 C 
ATOM      5  C   UNL     1      -0.934   6.830  -3.592  0.00  0.00    +0.123 C 
ATOM      6  N   UNL     1      -1.692   5.456  -3.531  0.00  0.00    -0.130 NA
ATOM      7  C   UNL     1       0.569   6.377  -4.291  0.00  0.00    +0.168 C 
ATOM      8  C   UNL     1      -0.134   4.896  -4.724  0.00  0.00    +0.209 C 
ATOM      9  O   UNL     1       1.207   4.258  -4.956  0.00  0.00    -0.218 OA
ENDROOT
BRANCH   1  10
ATOM     10  O   UNL     1       0.871   5.907  -6.696  0.00  0.00    -0.328 OA
BRANCH  10  13
ATOM     11  C   UNL     1       1.537   5.282 -10.005  0.00  0.00    +0.134 C 
ATOM     12  O   UNL     1       1.395   6.314  -8.911  0.00  0.00    -0.331 OA
ATOM     13  C   UNL     1       1.484   5.177  -7.892  0.00  0.00    +0.253 C 
ATOM     14  C   UNL     1       3.150   5.394  -7.494  0.00  0.00    +0.148 C 
ATOM     15  N   UNL     1       3.431   6.814  -8.049  0.00  0.00    -0.128 NA
ATOM     16  C   UNL     1       3.605   4.702  -8.902  0.00  0.00    +0.027 C 
ATOM     17  C   UNL     1       3.150   5.569 -10.064  0.00  0.00    +0.033 C 
BRANCH  11  18
ATOM     18  C   UNL     1       1.096   6.285 -11.325  0.00  0.00    +0.100 C 
ATOM     19  C   UNL     1       0.718   5.014 -12.274  0.00  0.00    +0.021 C 
BRANCH  18  21
ATOM     20  C   UNL     1      -0.690   7.703 -11.672  0.00  0.00    +0.107 C 
ATOM     21  N   UNL     1      -0.386   6.535 -10.925  0.00  0.00    -0.215 NA
ENDBRANCH  18  21
ENDBRANCH  11  18
ENDBRANCH  10  13
ENDBRANCH   1  10
BRANCH   7  22
ATOM     22  O   UNL     1       1.172   5.696  -3.142  0.00  0.00    -0.327 OA
BRANCH  22  23
ATOM     23  C   UNL     1       2.344   6.364  -2.516  0.00  0.00    +0.268 C 
ATOM     24  C   UNL     1       1.921   5.691  -0.976  0.00  0.00    +0.226 C 
ATOM     25  O   UNL     1       2.921   4.588  -0.905  0.00  0.00    -0.216 OA
ATOM     26  C   UNL     1       2.936   6.710  -0.060  0.00  0.00    +0.138 C 
ATOM     27  C   UNL     1       3.938   7.205  -1.231  0.00  0.00    +0.171 C 
ATOM     28  O   UNL     1       3.615   8.392  -1.707  0.00  0.00    -0.222 OA
ATOM     29  C   UNL     1       5.122   7.466  -0.276  0.00  0.00    +0.037 C 
ATOM     30  C   UNL     1       4.392   6.141  -2.110  0.00  0.00    +0.176 C 
ATOM     31  O   UNL     1       3.454   5.367  -2.820  0.00  0.00    -0.326 OA
BRANCH  26  32
ATOM     32  N   UNL     1       1.931   7.907  -0.203  0.00  0.00    -0.213 NA
ATOM     33  C   UNL     1       1.745   8.429   1.147  0.00  0.00    +0.108 C 
ENDBRANCH  26  32
ENDBRANCH  22  23
ENDBRANCH   7  22
TORSDOF 7
ENDMDL
MODEL 7
REMARK VINA RESULT:      -7.5      3.738     10.867
REMARK  Name = 
REMARK  7 active torsions:
REMARK  status: ('A' for Active; 'I' for Inactive)
REMARK    1  A    between atoms: N_2  and  C_3
REMARK    2  A    between atoms: C_3  and  C_5
REMARK    3  A    between atoms: C_10  and  O_11
REMARK    4  A    between atoms: O_11  and  C_12
REMARK    5  A    between atoms: C_15  and  O_16
REMARK    6  A    between atoms: O_16  and  C_17
REMARK    7  A    between atoms: C_23  and  N_24
REMARK                            x       y       z     vdW  Elec       q    Type
REMARK                         _______ _______ _______ _____ _____    ______ ____
ROOT
ATOM      1  C   UNL     1       2.557   6.544  -0.713  0.00  0.00    +0.168 C 
ATOM      2  C   UNL     1       3.311   8.084  -0.769  0.00  0.00    +0.123 C 
ATOM      3  N   UNL     1       4.695   7.444  -0.313  0.00  0.00    -0.130 NA
ATOM      4  C   UNL     1       3.799   8.410  -2.198  0.00  0.00    +0.043 C 
ATOM      5  C   UNL     1       4.083   7.536  -3.450  0.00  0.00    +0.123 C 
ATOM      6  N   UNL     1       4.959   6.445  -2.736  0.00  0.00    -0.130 NA
ATOM      7  C   UNL     1       2.499   6.891  -3.274  0.00  0.00    +0.168 C 
ATOM      8  C   UNL     1       3.118   5.812  -2.122  0.00  0.00    +0.209 C 
ATOM      9  O   UNL     1       1.912   4.920  -2.221  0.00  0.00    -0.218 OA
ENDROOT
BRANCH   1  10
ATOM     10  O   UNL     1       1.211   6.986  -1.170  0.00  0.00    -0.328 OA
BRANCH  10  13
ATOM     11  C   UNL     1      -0.482   8.203   1.558  0.00  0.00    +0.134 C 
ATOM     12  O   UNL     1      -0.096   8.399   0.110  0.00  0.00    -0.331 OA
ATOM     13  C   UNL     1       0.316   6.927   0.069  0.00  0.00    +0.253 C 
ATOM     14  C   UNL     1      -1.121   6.337  -0.685  0.00  0.00    +0.148 C 
ATOM     15  N   UNL     1      -1.751   7.640  -1.242  0.00  0.00    -0.128 NA
ATOM     16  C   UNL     1      -1.948   6.479   0.716  0.00  0.00    +0.027 C 
ATOM     17  C   UNL     1      -2.036   7.945   1.108  0.00  0.00    +0.033 C 
BRANCH  11  18
ATOM     18  C   UNL     1      -0.654   9.857   1.976  0.00  0.00    +0.100 C 
ATOM     19  C   UNL     1      -0.806   9.526   3.565  0.00  0.00    +0.021 C 
BRANCH  18  21
ATOM     20  C   UNL     1       0.906  10.769   3.410  0.00  0.00    +0.107 C 
ATOM     21  N   UNL     1       0.855  10.209   2.106  0.00  0.00    -0.215 NA
ENDBRANCH  18  21
ENDBRANCH  11  18
ENDBRANCH  10  13
ENDBRANCH   1  10
BRANCH   7  22
ATOM     22  O   UNL     1       2.572   5.805  -4.255  0.00  0.00    -0.327 OA
BRANCH  22  23
ATOM     23  C   UNL     1       1.894   6.042  -5.558  0.00  0.00    +0.268 C 
ATOM     24  C   UNL     1       2.370   4.468  -6.106  0.00  0.00    +0.226 C 
ATOM     25  O   UNL     1       1.078   3.745  -5.932  0.00  0.00    -0.216 OA
ATOM     26  C   UNL     1       2.026   4.749  -7.751  0.00  0.00    +0.138 C 
ATOM     27  C   UNL     1       1.043   6.027  -7.600  0.00  0.00    +0.171 C 
ATOM     28  O   UNL     1       1.664   7.172  -7.805  0.00  0.00    -0.222 OA
ATOM     29  C   UNL     1       0.277   5.748  -8.911  0.00  0.00    +0.037 C 
ATOM     30  C   UNL     1       0.050   5.887  -6.549  0.00  0.00    +0.176 C 
ATOM     31  O   UNL     1       0.459   5.661  -5.221  0.00  0.00    -0.326 OA
BRANCH  26  32
ATOM     32  N   UNL     1       3.341   5.588  -7.925  0.00  0.00    -0.213 NA
ATOM     33  C   UNL     1       4.028   5.011  -9.075  0.00  0.00    +0.108 C 
ENDBRANCH  26  32
ENDBRANCH  22  23
ENDBRANCH   7  22
TORSDOF 7
ENDMDL
MODEL 8
REMARK VINA RESULT:      -7.5      3.340      9.697
REMARK  Name = 
REMARK  7 active torsions:
REMARK  status: ('A' for Active; 'I' for Inactive)
REMARK    1  A    between atoms: N_2  and  C_3
REMARK    2  A    between atoms: C_3  and  C_5
REMARK    3  A    between atoms: C_10  and  O_11
REMARK    4  A    between atoms: O_11  and  C_12
REMARK    5  A    between atoms: C_15  and  O_16
REMARK    6  A    between atoms: O_16  and  C_17
REMARK    7  A    between atoms: C_23  and  N_24
REMARK                            x       y       z     vdW  Elec       q    Type
REMARK                         _______ _______ _______ _____ _____    ______ ____
ROOT
ATOM      1  C   UNL     1       1.625   5.281  -5.301  0.00  0.00    +0.168 C 
ATOM      2  C   UNL     1       2.616   6.656  -5.030  0.00  0.00    +0.123 C 
ATOM      3  N   UNL     1       3.879   5.721  -4.782  0.00  0.00    -0.130 NA
ATOM      4  C   UNL     1       3.151   7.224  -6.362  0.00  0.00    +0.043 C 
ATOM      5  C   UNL     1       3.293   6.630  -7.791  0.00  0.00    +0.123 C 
ATOM      6  N   UNL     1       3.983   5.281  -7.377  0.00  0.00    -0.130 NA
ATOM      7  C   UNL     1       1.627   6.217  -7.711  0.00  0.00    +0.168 C 
ATOM      8  C   UNL     1       2.064   4.818  -6.859  0.00  0.00    +0.209 C 
ATOM      9  O   UNL     1       0.731   4.172  -7.116  0.00  0.00    -0.218 OA
ENDROOT
BRANCH   1  10
ATOM     10  O   UNL     1       0.368   6.021  -5.596  0.00  0.00    -0.328 OA
BRANCH  10  13
ATOM     11  C   UNL     1      -1.244   5.958  -2.565  0.00  0.00    +0.134 C 
ATOM     12  O   UNL     1      -0.661   6.799  -3.676  0.00  0.00    -0.331 OA
ATOM     13  C   UNL     1      -0.644   5.545  -4.553  0.00  0.00    +0.253 C 
ATOM     14  C   UNL     1      -2.092   5.893  -5.428  0.00  0.00    +0.148 C 
ATOM     15  N   UNL     1      -2.294   7.401  -5.130  0.00  0.00    -0.128 NA
ATOM     16  C   UNL     1      -3.004   5.467  -4.142  0.00  0.00    +0.027 C 
ATOM     17  C   UNL     1      -2.751   6.434  -2.997  0.00  0.00    +0.033 C 
BRANCH  11  18
ATOM     18  C   UNL     1      -1.025   7.082  -1.288  0.00  0.00    +0.100 C 
ATOM     19  C   UNL     1      -1.713   6.095  -0.188  0.00  0.00    +0.021 C 
BRANCH  18  21
ATOM     20  C   UNL     1       0.446   7.052   0.489  0.00  0.00    +0.107 C 
ATOM     21  N   UNL     1       0.418   6.672  -0.879  0.00  0.00    -0.215 NA
ENDBRANCH  18  21
ENDBRANCH  11  18
ENDBRANCH  10  13
ENDBRANCH   1  10
BRANCH   7  22
ATOM     22  O   UNL     1       1.527   5.390  -8.916  0.00  0.00    -0.327 OA
BRANCH  22  23
ATOM     23  C   UNL     1       1.192   6.098 -10.180  0.00  0.00    +0.268 C 
ATOM     24  C   UNL     1       1.042   4.581 -11.005  0.00  0.00    +0.226 C 
ATOM     25  O   UNL     1      -0.445   4.473 -11.052  0.00  0.00    -0.216 OA
ATOM     26  C   UNL     1       1.073   5.239 -12.578  0.00  0.00    +0.138 C 
ATOM     27  C   UNL     1       0.699   6.774 -12.228  0.00  0.00    +0.171 C 
ATOM     28  O   UNL     1       1.761   7.554 -12.165  0.00  0.00    -0.222 OA
ATOM     29  C   UNL     1       0.073   7.065 -13.609  0.00  0.00    +0.037 C 
ATOM     30  C   UNL     1      -0.395   6.916 -11.283  0.00  0.00    +0.176 C 
ATOM     31  O   UNL     1      -0.302   6.329 -10.007  0.00  0.00    -0.326 OA
BRANCH  26  32
ATOM     32  N   UNL     1       2.628   5.441 -12.506  0.00  0.00    -0.213 NA
ATOM     33  C   UNL     1       3.135   5.063 -13.821  0.00  0.00    +0.108 C 
ENDBRANCH  26  32
ENDBRANCH  22  23
ENDBRANCH   7  22
TORSDOF 7
ENDMDL
MODEL 9
REMARK VINA RESULT:      -7.4      1.624      2.035
REMARK  Name = 
REMARK  7 active torsions:
REMARK  status: ('A' for Active; 'I' for Inactive)
REMARK    1  A    between atoms: N_2  and  C_3
REMARK    2  A    between atoms: C_3  and  C_5
REMARK    3  A    between atoms: C_10  and  O_11
REMARK    4  A    between atoms: O_11  and  C_12
REMARK    5  A    between atoms: C_15  and  O_16
REMARK    6  A    between atoms: O_16  and  C_17
REMARK    7  A    between atoms: C_23  and  N_24
REMARK                            x       y       z     vdW  Elec       q    Type
REMARK                         _______ _______ _______ _____ _____    ______ ____
ROOT
ATOM      1  C   UNL     1       2.570   5.197 -11.740  0.00  0.00    +0.168 C 
ATOM      2  C   UNL     1       1.749   6.557 -12.389  0.00  0.00    +0.123 C 
ATOM      3  N   UNL     1       0.692   5.604 -13.101  0.00  0.00    -0.130 NA
ATOM      4  C   UNL     1       0.731   7.125 -11.377  0.00  0.00    +0.043 C 
ATOM      5  C   UNL     1       0.048   6.536 -10.111  0.00  0.00    +0.123 C 
ATOM      6  N   UNL     1      -0.411   5.177 -10.748  0.00  0.00    -0.130 NA
ATOM      7  C   UNL     1       1.618   6.145  -9.531  0.00  0.00    +0.168 C 
ATOM      8  C   UNL     1       1.562   4.736 -10.472  0.00  0.00    +0.209 C 
ATOM      9  O   UNL     1       2.696   4.109  -9.709  0.00  0.00    -0.218 OA
ENDROOT
BRANCH   1  10
ATOM     10  O   UNL     1       3.605   5.955 -10.985  0.00  0.00    -0.328 OA
BRANCH  10  13
ATOM     11  C   UNL     1       6.174   6.031 -13.260  0.00  0.00    +0.134 C 
ATOM     12  O   UNL     1       5.192   6.820 -12.427  0.00  0.00    -0.331 OA
ATOM     13  C   UNL     1       4.943   5.553 -11.605  0.00  0.00    +0.253 C 
ATOM     14  C   UNL     1       5.971   5.968 -10.281  0.00  0.00    +0.148 C 
ATOM     15  N   UNL     1       6.176   7.489 -10.497  0.00  0.00    -0.128 NA
ATOM     16  C   UNL     1       7.298   5.614 -11.164  0.00  0.00    +0.027 C 
ATOM     17  C   UNL     1       7.405   6.583 -12.330  0.00  0.00    +0.033 C 
BRANCH  11  18
ATOM     18  C   UNL     1       6.351   7.160 -14.538  0.00  0.00    +0.100 C 
ATOM     19  C   UNL     1       7.196   6.114 -15.459  0.00  0.00    +0.021 C 
BRANCH  18  21
ATOM     20  C   UNL     1       5.350   7.202 -16.616  0.00  0.00    +0.107 C 
ATOM     21  N   UNL     1       5.015   6.865 -15.278  0.00  0.00    -0.215 NA
ENDBRANCH  18  21
ENDBRANCH  11  18
ENDBRANCH  10  13
ENDBRANCH   1  10
BRANCH   7  22
ATOM     22  O   UNL     1       1.248   5.325  -8.374  0.00  0.00    -0.327 OA
BRANCH  22  23
ATOM     23  C   UNL     1       1.756   5.779  -7.051  0.00  0.00    +0.268 C 
ATOM     24  C   UNL     1       1.039   4.396  -6.289  0.00  0.00    +0.226 C 
ATOM     25  O   UNL     1       2.258   3.557  -6.106  0.00  0.00    -0.216 OA
ATOM     26  C   UNL     1       1.174   4.991  -4.697  0.00  0.00    +0.138 C 
ATOM     27  C   UNL     1       2.301   6.129  -4.935  0.00  0.00    +0.171 C 
ATOM     28  O   UNL     1       1.784   7.336  -5.062  0.00  0.00    -0.222 OA
ATOM     29  C   UNL     1       2.837   6.075  -3.489  0.00  0.00    +0.037 C 
ATOM     30  C   UNL     1       3.413   5.696  -5.764  0.00  0.00    +0.176 C 
ATOM     31  O   UNL     1       3.175   5.227  -7.070  0.00  0.00    -0.326 OA
BRANCH  26  32
ATOM     32  N   UNL     1      -0.054   5.946  -4.906  0.00  0.00    -0.213 NA
ATOM     33  C   UNL     1      -0.948   5.690  -3.782  0.00  0.00    +0.108 C 
ENDBRANCH  26  32
ENDBRANCH  22  23
ENDBRANCH   7  22
TORSDOF 7
ENDMDL
