MODEL 1
REMARK VINA RESULT:      -4.8      0.000      0.000
REMARK  Name = 
REMARK  8 active torsions:
REMARK  status: ('A' for Active; 'I' for Inactive)
REMARK    1  A    between atoms: C_2  and  C_3
REMARK    2  A    between atoms: C_9  and  O_10
REMARK    3  A    between atoms: O_10  and  C_11
REMARK    4  A    between atoms: C_13  and  O_15
REMARK    5  A    between atoms: C_24  and  O_25
REMARK    6  A    between atoms: O_25  and  C_26
REMARK    7  A    between atoms: C_31  and  N_32
REMARK    8  A    between atoms: C_37  and  O_39
REMARK                            x       y       z     vdW  Elec       q    Type
REMARK                         _______ _______ _______ _____ _____    ______ ____
ROOT
ATOM      1  C   UNL     1      -0.021   4.828  -6.472  0.00  0.00    +0.199 C 
ATOM      2  C   UNL     1       0.113   5.302  -8.016  0.00  0.00    +0.191 C 
ATOM      3  O   UNL     1      -1.197   5.802  -8.144  0.00  0.00    -0.219 OA
ATOM      4  C   UNL     1       0.571   4.292  -8.900  0.00  0.00    +0.039 C 
ATOM      5  C   UNL     1       0.901   6.704  -8.120  0.00  0.00    +0.190 C 
ATOM      6  O   UNL     1       0.853   6.625  -9.630  0.00  0.00    -0.220 OA
ATOM      7  C   UNL     1       2.468   6.037  -7.893  0.00  0.00    +0.091 C 
ATOM      8  C   UNL     1       3.091   6.376  -9.351  0.00  0.00    +0.010 C 
ATOM      9  C   UNL     1       2.996   7.383  -7.257  0.00  0.00    +0.152 C 
ATOM     10  O   UNL     1       2.754   8.424  -7.754  0.00  0.00    -0.296 OA
ATOM     11  C   UNL     1       4.175   7.317  -6.185  0.00  0.00    +0.060 C 
ATOM     12  C   UNL     1       4.641   5.786  -6.508  0.00  0.00    +0.008 C 
ATOM     13  C   UNL     1       3.167   6.934  -4.962  0.00  0.00    +0.037 C 
ATOM     14  C   UNL     1       3.763   7.032  -3.686  0.00  0.00    +0.118 C 
ATOM     15  C   UNL     1       4.198   5.693  -3.200  0.00  0.00    +0.032 C 
ATOM     16  C   UNL     1       2.856   7.722  -2.505  0.00  0.00    +0.145 C 
ATOM     17  C   UNL     1       2.127   6.299  -1.938  0.00  0.00    +0.057 C 
ATOM     18  C   UNL     1       1.835   6.963  -0.496  0.00  0.00    +0.005 C 
ATOM     19  C   UNL     1       0.513   6.561  -2.365  0.00  0.00    +0.131 C 
ATOM     20  C   UNL     1       0.635   5.493  -3.697  0.00  0.00    +0.126 C 
ATOM     21  C   UNL     1      -0.686   4.589  -3.433  0.00  0.00    +0.014 C 
ATOM     22  C   UNL     1      -0.170   6.403  -4.740  0.00  0.00    +0.319 C 
ATOM     23  O   UNL     1      -0.085   7.665  -4.600  0.00  0.00    -0.250 OA
ATOM     24  O   UNL     1       0.623   6.087  -5.874  0.00  0.00    -0.450 OA
ENDROOT
BRANCH   1  26
ATOM     25  C   UNL     1       1.699   3.656  -6.086  0.00  0.00    +0.004 C 
ATOM     26  C   UNL     1       1.389   3.975  -6.529  0.00  0.00    +0.046 C 
ENDBRANCH   1  26
BRANCH  14  27
ATOM     27  O   UNL     1       4.795   7.954  -3.837  0.00  0.00    -0.353 OA
ATOM     28  C   UNL     1       6.064   7.362  -3.661  0.00  0.00    +0.174 C 
ENDBRANCH  14  27
BRANCH  16  29
ATOM     29  O   UNL     1       3.967   7.478  -1.518  0.00  0.00    -0.329 OA
BRANCH  29  30
ATOM     30  C   UNL     1       3.497   7.874  -0.132  0.00  0.00    +0.268 C 
ATOM     31  C   UNL     1       5.152   7.821   0.369  0.00  0.00    +0.222 C 
ATOM     32  O   UNL     1       5.053   6.328   0.462  0.00  0.00    -0.216 OA
ATOM     33  C   UNL     1       4.832   7.908   2.041  0.00  0.00    +0.096 C 
ATOM     34  C   UNL     1       3.632   8.920   1.976  0.00  0.00    +0.048 C 
ATOM     35  C   UNL     1       3.486  10.077   0.870  0.00  0.00    +0.119 C 
ATOM     36  C   UNL     1       5.088  10.530   0.695  0.00  0.00    +0.032 C 
ATOM     37  O   UNL     1       3.577   9.325  -0.438  0.00  0.00    -0.331 OA
BRANCH  33  38
ATOM     38  N   UNL     1       5.973   8.951   2.385  0.00  0.00    -0.269 NA
ATOM     39  C   UNL     1       5.578   9.432   3.718  0.00  0.00    +0.090 C 
ATOM     40  C   UNL     1       7.117   8.123   2.747  0.00  0.00    +0.090 C 
ENDBRANCH  33  38
ENDBRANCH  29  30
ENDBRANCH  16  29
BRANCH  19  41
ATOM     41  O   UNL     1       0.162   5.444  -1.453  0.00  0.00    -0.332 OA
BRANCH  41  42
ATOM     42  C   UNL     1      -1.201   5.746  -0.860  0.00  0.00    +0.238 C 
ATOM     43  O   UNL     1      -0.881   7.210  -1.116  0.00  0.00    -0.330 OA
ATOM     44  C   UNL     1      -2.165   7.953  -0.976  0.00  0.00    +0.150 C 
ATOM     45  C   UNL     1      -3.055   6.828  -1.773  0.00  0.00    +0.035 C 
ATOM     46  C   UNL     1      -2.664   7.327   0.550  0.00  0.00    +0.204 C 
ATOM     47  O   UNL     1      -2.820   8.740   1.068  0.00  0.00    -0.218 OA
ATOM     48  C   UNL     1      -1.182   7.160   1.211  0.00  0.00    +0.128 C 
ATOM     49  C   UNL     1      -1.618   7.067   2.655  0.00  0.00    +0.033 C 
ATOM     50  C   UNL     1      -0.645   5.874   0.705  0.00  0.00    +0.091 C 
BRANCH  48  51
ATOM     51  O   UNL     1      -0.455   8.271   0.954  0.00  0.00    -0.353 OA
ATOM     52  C   UNL     1       0.147   8.835   2.074  0.00  0.00    +0.174 C 
ENDBRANCH  48  51
ENDBRANCH  41  42
ENDBRANCH  19  41
TORSDOF 8
ENDMDL
MODEL 2
REMARK VINA RESULT:      -3.5      5.116     11.895
REMARK  Name = 
REMARK  8 active torsions:
REMARK  status: ('A' for Active; 'I' for Inactive)
REMARK    1  A    between atoms: C_2  and  C_3
REMARK    2  A    between atoms: C_9  and  O_10
REMARK    3  A    between atoms: O_10  and  C_11
REMARK    4  A    between atoms: C_13  and  O_15
REMARK    5  A    between atoms: C_24  and  O_25
REMARK    6  A    between atoms: O_25  and  C_26
REMARK    7  A    between atoms: C_31  and  N_32
REMARK    8  A    between atoms: C_37  and  O_39
REMARK                            x       y       z     vdW  Elec       q    Type
REMARK                         _______ _______ _______ _____ _____    ______ ____
ROOT
ATOM      1  C   UNL     1       3.291   5.147  -6.016  0.00  0.00    +0.199 C 
ATOM      2  C   UNL     1       2.488   5.646  -4.698  0.00  0.00    +0.191 C 
ATOM      3  O   UNL     1       3.445   6.589  -4.277  0.00  0.00    -0.219 OA
ATOM      4  C   UNL     1       2.094   4.603  -3.824  0.00  0.00    +0.039 C 
ATOM      5  C   UNL     1       1.317   6.678  -5.097  0.00  0.00    +0.190 C 
ATOM      6  O   UNL     1       0.860   6.726  -3.656  0.00  0.00    -0.220 OA
ATOM      7  C   UNL     1       0.219   5.481  -5.658  0.00  0.00    +0.091 C 
ATOM      8  C   UNL     1      -0.944   5.675  -4.545  0.00  0.00    +0.010 C 
ATOM      9  C   UNL     1      -0.450   6.503  -6.661  0.00  0.00    +0.152 C 
ATOM     10  O   UNL     1      -0.735   7.594  -6.315  0.00  0.00    -0.296 OA
ATOM     11  C   UNL     1      -1.100   5.947  -8.007  0.00  0.00    +0.060 C 
ATOM     12  C   UNL     1      -1.144   4.377  -7.563  0.00  0.00    +0.008 C 
ATOM     13  C   UNL     1       0.334   5.867  -8.777  0.00  0.00    +0.037 C 
ATOM     14  C   UNL     1       0.219   5.658 -10.168  0.00  0.00    +0.118 C 
ATOM     15  C   UNL     1       0.423   4.222 -10.507  0.00  0.00    +0.032 C 
ATOM     16  C   UNL     1       1.214   6.544 -11.127  0.00  0.00    +0.145 C 
ATOM     17  C   UNL     1       2.501   5.440 -11.176  0.00  0.00    +0.057 C 
ATOM     18  C   UNL     1       3.051   6.063 -12.559  0.00  0.00    +0.005 C 
ATOM     19  C   UNL     1       3.698   6.289 -10.338  0.00  0.00    +0.131 C 
ATOM     20  C   UNL     1       3.464   5.343  -8.932  0.00  0.00    +0.126 C 
ATOM     21  C   UNL     1       5.006   4.954  -8.614  0.00  0.00    +0.014 C 
ATOM     22  C   UNL     1       3.528   6.549  -7.881  0.00  0.00    +0.319 C 
ATOM     23  O   UNL     1       3.106   7.685  -8.270  0.00  0.00    -0.250 OA
ATOM     24  O   UNL     1       2.533   6.049  -7.001  0.00  0.00    -0.450 OA
ENDROOT
BRANCH   1  26
ATOM     25  C   UNL     1       2.246   3.437  -6.698  0.00  0.00    +0.004 C 
ATOM     26  C   UNL     1       2.291   3.853  -6.229  0.00  0.00    +0.046 C 
ENDBRANCH   1  26
BRANCH  14  27
ATOM     27  O   UNL     1      -1.034   6.158 -10.507  0.00  0.00    -0.353 OA
ATOM     28  C   UNL     1      -0.962   7.478 -11.003  0.00  0.00    +0.174 C 
ENDBRANCH  14  27
BRANCH  16  29
ATOM     29  O   UNL     1       0.650   5.852 -12.340  0.00  0.00    -0.329 OA
BRANCH  29  30
ATOM     30  C   UNL     1       1.333   6.390 -13.582  0.00  0.00    +0.268 C 
ATOM     31  C   UNL     1      -0.188   6.250 -14.395  0.00  0.00    +0.222 C 
ATOM     32  O   UNL     1       0.061   4.781 -14.561  0.00  0.00    -0.216 OA
ATOM     33  C   UNL     1       0.430   6.492 -15.965  0.00  0.00    +0.096 C 
ATOM     34  C   UNL     1       1.500   7.585 -15.607  0.00  0.00    +0.048 C 
ATOM     35  C   UNL     1       1.332   8.659 -14.423  0.00  0.00    +0.119 C 
ATOM     36  C   UNL     1      -0.309   8.973 -14.532  0.00  0.00    +0.032 C 
ATOM     37  O   UNL     1       1.067   7.802 -13.207  0.00  0.00    -0.331 OA
BRANCH  33  38
ATOM     38  N   UNL     1      -0.717   7.469 -16.456  0.00  0.00    -0.269 NA
ATOM     39  C   UNL     1      -0.108   8.115 -17.629  0.00  0.00    +0.090 C 
ATOM     40  C   UNL     1      -1.673   6.591 -17.123  0.00  0.00    +0.090 C 
ENDBRANCH  33  38
ENDBRANCH  29  30
ENDBRANCH  16  29
BRANCH  19  41
ATOM     41  O   UNL     1       4.674   5.311 -10.880  0.00  0.00    -0.332 OA
BRANCH  41  42
ATOM     42  C   UNL     1       5.626   6.069 -11.787  0.00  0.00    +0.238 C 
ATOM     43  O   UNL     1       6.479   4.810 -11.783  0.00  0.00    -0.330 OA
ATOM     44  C   UNL     1       7.464   4.964 -12.890  0.00  0.00    +0.150 C 
ATOM     45  C   UNL     1       6.377   5.598 -13.944  0.00  0.00    +0.035 C 
ATOM     46  C   UNL     1       8.056   6.534 -12.496  0.00  0.00    +0.204 C 
ATOM     47  O   UNL     1       9.470   5.992 -12.510  0.00  0.00    -0.218 OA
ATOM     48  C   UNL     1       7.937   6.408 -10.874  0.00  0.00    +0.128 C 
ATOM     49  C   UNL     1       8.862   7.550 -10.518  0.00  0.00    +0.033 C 
ATOM     50  C   UNL     1       6.524   6.709 -10.539  0.00  0.00    +0.091 C 
BRANCH  48  51
ATOM     51  O   UNL     1       8.416   5.206 -10.486  0.00  0.00    -0.353 OA
ATOM     52  C   UNL     1       8.315   4.960  -9.120  0.00  0.00    +0.174 C 
ENDBRANCH  48  51
ENDBRANCH  41  42
ENDBRANCH  19  41
TORSDOF 8
ENDMDL
MODEL 3
REMARK VINA RESULT:      -2.7      2.046      3.757
REMARK  Name = 
REMARK  8 active torsions:
REMARK  status: ('A' for Active; 'I' for Inactive)
REMARK    1  A    between atoms: C_2  and  C_3
REMARK    2  A    between atoms: C_9  and  O_10
REMARK    3  A    between atoms: O_10  and  C_11
REMARK    4  A    between atoms: C_13  and  O_15
REMARK    5  A    between atoms: C_24  and  O_25
REMARK    6  A    between atoms: O_25  and  C_26
REMARK    7  A    between atoms: C_31  and  N_32
REMARK    8  A    between atoms: C_37  and  O_39
REMARK                            x       y       z     vdW  Elec       q    Type
REMARK                         _______ _______ _______ _____ _____    ______ ____
ROOT
ATOM      1  C   UNL     1      -0.119   5.543 -10.212  0.00  0.00    +0.199 C 
ATOM      2  C   UNL     1       0.606   6.143 -11.532  0.00  0.00    +0.191 C 
ATOM      3  O   UNL     1      -0.265   7.237 -11.707  0.00  0.00    -0.219 OA
ATOM      4  C   UNL     1       0.780   5.207 -12.581  0.00  0.00    +0.039 C 
ATOM      5  C   UNL     1       1.929   6.972 -11.133  0.00  0.00    +0.190 C 
ATOM      6  O   UNL     1       2.243   7.185 -12.597  0.00  0.00    -0.220 OA
ATOM      7  C   UNL     1       2.920   5.593 -10.872  0.00  0.00    +0.091 C 
ATOM      8  C   UNL     1       3.983   5.824 -12.074  0.00  0.00    +0.010 C 
ATOM      9  C   UNL     1       3.805   6.374  -9.822  0.00  0.00    +0.152 C 
ATOM     10  O   UNL     1       4.188   7.467 -10.045  0.00  0.00    -0.296 OA
ATOM     11  C   UNL     1       4.511   5.556  -8.649  0.00  0.00    +0.060 C 
ATOM     12  C   UNL     1       4.317   4.075  -9.306  0.00  0.00    +0.008 C 
ATOM     13  C   UNL     1       3.161   5.516  -7.737  0.00  0.00    +0.037 C 
ATOM     14  C   UNL     1       3.385   5.090  -6.410  0.00  0.00    +0.118 C 
ATOM     15  C   UNL     1       3.040   3.650  -6.251  0.00  0.00    +0.032 C 
ATOM     16  C   UNL     1       2.607   5.925  -5.231  0.00  0.00    +0.145 C 
ATOM     17  C   UNL     1       1.204   4.972  -5.187  0.00  0.00    +0.057 C 
ATOM     18  C   UNL     1       0.875   5.436  -3.677  0.00  0.00    +0.005 C 
ATOM     19  C   UNL     1       0.045   6.061  -5.756  0.00  0.00    +0.131 C 
ATOM     20  C   UNL     1       0.021   5.316  -7.296  0.00  0.00    +0.126 C 
ATOM     21  C   UNL     1      -1.581   5.149  -7.485  0.00  0.00    +0.014 C 
ATOM     22  C   UNL     1       0.003   6.667  -8.157  0.00  0.00    +0.319 C 
ATOM     23  O   UNL     1       0.598   7.678  -7.667  0.00  0.00    -0.250 OA
ATOM     24  O   UNL     1       0.837   6.199  -9.206  0.00  0.00    -0.450 OA
ENDROOT
BRANCH   1  26
ATOM     25  C   UNL     1       0.577   3.545 -10.126  0.00  0.00    +0.004 C 
ATOM     26  C   UNL     1       0.729   4.130 -10.295  0.00  0.00    +0.046 C 
ENDBRANCH   1  26
BRANCH  14  27
ATOM     27  O   UNL     1       4.718   5.396  -6.153  0.00  0.00    -0.353 OA
ATOM     28  C   UNL     1       4.938   6.788  -6.081  0.00  0.00    +0.174 C 
ENDBRANCH  14  27
BRANCH  16  29
ATOM     29  O   UNL     1       3.198   5.002  -4.198  0.00  0.00    -0.329 OA
BRANCH  29  30
ATOM     30  C   UNL     1       4.270   5.744  -3.424  0.00  0.00    +0.268 C 
ATOM     31  C   UNL     1       2.999   6.548  -2.568  0.00  0.00    +0.222 C 
ATOM     32  O   UNL     1       2.822   7.467  -3.739  0.00  0.00    -0.216 OA
ATOM     33  C   UNL     1       3.995   7.726  -1.844  0.00  0.00    +0.096 C 
ATOM     34  C   UNL     1       5.238   6.810  -1.559  0.00  0.00    +0.048 C 
ATOM     35  C   UNL     1       5.146   5.241  -1.225  0.00  0.00    +0.119 C 
ATOM     36  C   UNL     1       3.745   5.210  -0.309  0.00  0.00    +0.032 C 
ATOM     37  O   UNL     1       4.369   4.680  -2.395  0.00  0.00    -0.331 OA
BRANCH  33  38
ATOM     38  N   UNL     1       3.339   7.650  -0.404  0.00  0.00    -0.269 NA
ATOM     39  C   UNL     1       4.436   8.088   0.473  0.00  0.00    +0.090 C 
ATOM     40  C   UNL     1       2.482   8.829  -0.339  0.00  0.00    +0.090 C 
ENDBRANCH  33  38
ENDBRANCH  29  30
ENDBRANCH  16  29
BRANCH  19  41
ATOM     41  O   UNL     1      -0.987   5.124  -5.245  0.00  0.00    -0.332 OA
BRANCH  41  42
ATOM     42  C   UNL     1      -2.084   5.955  -4.605  0.00  0.00    +0.238 C 
ATOM     43  O   UNL     1      -0.978   6.900  -4.162  0.00  0.00    -0.330 OA
ATOM     44  C   UNL     1      -1.647   8.156  -3.724  0.00  0.00    +0.150 C 
ATOM     45  C   UNL     1      -2.725   8.168  -4.962  0.00  0.00    +0.035 C 
ATOM     46  C   UNL     1      -2.817   7.472  -2.660  0.00  0.00    +0.204 C 
ATOM     47  O   UNL     1      -2.340   8.395  -1.559  0.00  0.00    -0.218 OA
ATOM     48  C   UNL     1      -1.913   6.226  -2.118  0.00  0.00    +0.128 C 
ATOM     49  C   UNL     1      -2.726   5.914  -0.882  0.00  0.00    +0.033 C 
ATOM     50  C   UNL     1      -2.023   5.160  -3.143  0.00  0.00    +0.091 C 
BRANCH  48  51
ATOM     51  O   UNL     1      -0.671   6.673  -1.829  0.00  0.00    -0.353 OA
ATOM     52  C   UNL     1      -0.167   6.220  -0.613  0.00  0.00    +0.174 C 
ENDBRANCH  48  51
ENDBRANCH  41  42
ENDBRANCH  19  41
TORSDOF 8
ENDMDL
MODEL 4
REMARK VINA RESULT:      -2.5      4.944     11.952
REMARK  Name = 
REMARK  8 active torsions:
REMARK  status: ('A' for Active; 'I' for Inactive)
REMARK    1  A    between atoms: C_2  and  C_3
REMARK    2  A    between atoms: C_9  and  O_10
REMARK    3  A    between atoms: O_10  and  C_11
REMARK    4  A    between atoms: C_13  and  O_15
REMARK    5  A    between atoms: C_24  and  O_25
REMARK    6  A    between atoms: O_25  and  C_26
REMARK    7  A    between atoms: C_31  and  N_32
REMARK    8  A    between atoms: C_37  and  O_39
REMARK                            x       y       z     vdW  Elec       q    Type
REMARK                         _______ _______ _______ _____ _____    ______ ____
ROOT
ATOM      1  C   UNL     1       3.507   5.154  -5.818  0.00  0.00    +0.199 C 
ATOM      2  C   UNL     1       2.747   5.784  -4.532  0.00  0.00    +0.191 C 
ATOM      3  O   UNL     1       3.754   6.708  -4.190  0.00  0.00    -0.219 OA
ATOM      4  C   UNL     1       2.317   4.827  -3.580  0.00  0.00    +0.039 C 
ATOM      5  C   UNL     1       1.621   6.841  -4.992  0.00  0.00    +0.190 C 
ATOM      6  O   UNL     1       1.188   7.014  -3.554  0.00  0.00    -0.220 OA
ATOM      7  C   UNL     1       0.459   5.661  -5.454  0.00  0.00    +0.091 C 
ATOM      8  C   UNL     1      -0.677   5.990  -4.345  0.00  0.00    +0.010 C 
ATOM      9  C   UNL     1      -0.174   6.639  -6.520  0.00  0.00    +0.152 C 
ATOM     10  O   UNL     1      -0.402   7.764  -6.252  0.00  0.00    -0.296 OA
ATOM     11  C   UNL     1      -0.869   6.019  -7.815  0.00  0.00    +0.060 C 
ATOM     12  C   UNL     1      -0.981   4.489  -7.258  0.00  0.00    +0.008 C 
ATOM     13  C   UNL     1       0.549   5.814  -8.593  0.00  0.00    +0.037 C 
ATOM     14  C   UNL     1       0.404   5.511  -9.964  0.00  0.00    +0.118 C 
ATOM     15  C   UNL     1       0.534   4.046 -10.199  0.00  0.00    +0.032 C 
ATOM     16  C   UNL     1       1.426   6.277 -10.995  0.00  0.00    +0.145 C 
ATOM     17  C   UNL     1       2.659   5.111 -10.977  0.00  0.00    +0.057 C 
ATOM     18  C   UNL     1       3.217   5.606 -12.408  0.00  0.00    +0.005 C 
ATOM     19  C   UNL     1       3.907   5.960 -10.216  0.00  0.00    +0.131 C 
ATOM     20  C   UNL     1       3.647   5.130  -8.743  0.00  0.00    +0.126 C 
ATOM     21  C   UNL     1       5.174   4.691  -8.414  0.00  0.00    +0.014 C 
ATOM     22  C   UNL     1       3.784   6.404  -7.783  0.00  0.00    +0.319 C 
ATOM     23  O   UNL     1       3.411   7.528  -8.249  0.00  0.00    -0.250 OA
ATOM     24  O   UNL     1       2.779   6.018  -6.858  0.00  0.00    -0.450 OA
ENDROOT
BRANCH   1  26
ATOM     25  C   UNL     1       2.341   3.479  -6.384  0.00  0.00    +0.004 C 
ATOM     26  C   UNL     1       2.444   3.897  -5.927  0.00  0.00    +0.046 C 
ENDBRANCH   1  26
BRANCH  14  27
ATOM     27  O   UNL     1      -0.829   6.046 -10.325  0.00  0.00    -0.353 OA
ATOM     28  C   UNL     1      -0.714   7.372 -10.796  0.00  0.00    +0.174 C 
ENDBRANCH  14  27
BRANCH  16  29
ATOM     29  O   UNL     1       0.813   5.527 -12.149  0.00  0.00    -0.329 OA
BRANCH  29  30
ATOM     30  C   UNL     1       1.420   6.026 -13.445  0.00  0.00    +0.268 C 
ATOM     31  C   UNL     1      -0.176   6.025 -14.112  0.00  0.00    +0.222 C 
ATOM     32  O   UNL     1      -0.068   4.543 -14.312  0.00  0.00    -0.216 OA
ATOM     33  C   UNL     1       0.311   6.240 -15.732  0.00  0.00    +0.096 C 
ATOM     34  C   UNL     1       1.498   7.234 -15.468  0.00  0.00    +0.048 C 
ATOM     35  C   UNL     1       1.532   8.300 -14.265  0.00  0.00    +0.119 C 
ATOM     36  C   UNL     1      -0.080   8.751 -14.217  0.00  0.00    +0.032 C 
ATOM     37  O   UNL     1       1.310   7.449 -13.036  0.00  0.00    -0.331 OA
BRANCH  33  38
ATOM     38  N   UNL     1      -0.789   7.316 -16.105  0.00  0.00    -0.269 NA
ATOM     39  C   UNL     1      -0.126   8.102 -17.157  0.00  0.00    +0.090 C 
ATOM     40  C   UNL     1      -1.751   6.576 -16.916  0.00  0.00    +0.090 C 
ENDBRANCH  33  38
ENDBRANCH  29  30
ENDBRANCH  16  29
BRANCH  19  41
ATOM     41  O   UNL     1       4.827   4.899 -10.696  0.00  0.00    -0.332 OA
BRANCH  41  42
ATOM     42  C   UNL     1       6.120   5.572 -11.120  0.00  0.00    +0.238 C 
ATOM     43  O   UNL     1       5.249   6.713 -11.622  0.00  0.00    -0.330 OA
ATOM     44  C   UNL     1       6.163   7.864 -11.866  0.00  0.00    +0.150 C 
ATOM     45  C   UNL     1       7.046   7.621 -10.504  0.00  0.00    +0.035 C 
ATOM     46  C   UNL     1       7.347   7.059 -12.825  0.00  0.00    +0.204 C 
ATOM     47  O   UNL     1       7.180   8.113 -13.899  0.00  0.00    -0.218 OA
ATOM     48  C   UNL     1       6.343   6.016 -13.578  0.00  0.00    +0.128 C 
ATOM     49  C   UNL     1       7.260   5.648 -14.721  0.00  0.00    +0.033 C 
ATOM     50  C   UNL     1       6.139   4.887 -12.639  0.00  0.00    +0.091 C 
BRANCH  48  51
ATOM     51  O   UNL     1       5.239   6.681 -13.986  0.00  0.00    -0.353 OA
ATOM     52  C   UNL     1       4.957   6.548 -15.342  0.00  0.00    +0.174 C 
ENDBRANCH  48  51
ENDBRANCH  41  42
ENDBRANCH  19  41
TORSDOF 8
ENDMDL
MODEL 5
REMARK VINA RESULT:      -2.3      3.191      7.522
REMARK  Name = 
REMARK  8 active torsions:
REMARK  status: ('A' for Active; 'I' for Inactive)
REMARK    1  A    between atoms: C_2  and  C_3
REMARK    2  A    between atoms: C_9  and  O_10
REMARK    3  A    between atoms: O_10  and  C_11
REMARK    4  A    between atoms: C_13  and  O_15
REMARK    5  A    between atoms: C_24  and  O_25
REMARK    6  A    between atoms: O_25  and  C_26
REMARK    7  A    between atoms: C_31  and  N_32
REMARK    8  A    between atoms: C_37  and  O_39
REMARK                            x       y       z     vdW  Elec       q    Type
REMARK                         _______ _______ _______ _____ _____    ______ ____
ROOT
ATOM      1  C   UNL     1       6.193   6.162 -10.703  0.00  0.00    +0.199 C 
ATOM      2  C   UNL     1       6.201   5.605 -12.225  0.00  0.00    +0.191 C 
ATOM      3  O   UNL     1       7.089   4.535 -11.998  0.00  0.00    -0.219 OA
ATOM      4  C   UNL     1       6.512   6.582 -13.204  0.00  0.00    +0.039 C 
ATOM      5  C   UNL     1       4.877   4.738 -12.527  0.00  0.00    +0.190 C 
ATOM      6  O   UNL     1       5.301   4.581 -13.970  0.00  0.00    -0.220 OA
ATOM      7  C   UNL     1       3.831   6.087 -12.727  0.00  0.00    +0.091 C 
ATOM      8  C   UNL     1       3.474   5.888 -14.296  0.00  0.00    +0.010 C 
ATOM      9  C   UNL     1       2.584   5.246 -12.247  0.00  0.00    +0.152 C 
ATOM     10  O   UNL     1       2.391   4.157 -12.656  0.00  0.00    -0.296 OA
ATOM     11  C   UNL     1       1.378   6.001 -11.526  0.00  0.00    +0.060 C 
ATOM     12  C   UNL     1       1.807   7.512 -11.969  0.00  0.00    +0.008 C 
ATOM     13  C   UNL     1       2.133   6.025 -10.081  0.00  0.00    +0.037 C 
ATOM     14  C   UNL     1       1.292   6.391  -9.008  0.00  0.00    +0.118 C 
ATOM     15  C   UNL     1       1.469   7.829  -8.663  0.00  0.00    +0.032 C 
ATOM     16  C   UNL     1       1.448   5.521  -7.626  0.00  0.00    +0.145 C 
ATOM     17  C   UNL     1       2.628   6.496  -6.893  0.00  0.00    +0.057 C 
ATOM     18  C   UNL     1       2.219   5.973  -5.422  0.00  0.00    +0.005 C 
ATOM     19  C   UNL     1       3.956   5.452  -6.875  0.00  0.00    +0.131 C 
ATOM     20  C   UNL     1       4.680   6.262  -8.198  0.00  0.00    +0.126 C 
ATOM     21  C   UNL     1       6.173   6.465  -7.598  0.00  0.00    +0.014 C 
ATOM     22  C   UNL     1       5.152   4.950  -8.986  0.00  0.00    +0.319 C 
ATOM     23  O   UNL     1       4.432   3.908  -8.866  0.00  0.00    -0.250 OA
ATOM     24  O   UNL     1       4.898   5.446 -10.291  0.00  0.00    -0.450 OA
ENDROOT
BRANCH   1  26
ATOM     25  C   UNL     1       5.529   8.156 -10.959  0.00  0.00    +0.004 C 
ATOM     26  C   UNL     1       5.435   7.561 -11.137  0.00  0.00    +0.046 C 
ENDBRANCH   1  26
BRANCH  14  27
ATOM     27  O   UNL     1       0.008   6.051  -9.423  0.00  0.00    -0.353 OA
ATOM     28  C   UNL     1      -0.103   4.679  -9.735  0.00  0.00    +0.174 C 
ENDBRANCH  14  27
BRANCH  16  29
ATOM     29  O   UNL     1       0.406   6.388  -6.970  0.00  0.00    -0.329 OA
BRANCH  29  30
ATOM     30  C   UNL     1      -0.536   5.513  -6.167  0.00  0.00    +0.268 C 
ATOM     31  C   UNL     1      -0.782   6.864  -5.114  0.00  0.00    +0.222 C 
ATOM     32  O   UNL     1       0.522   6.551  -4.443  0.00  0.00    -0.216 OA
ATOM     33  C   UNL     1      -1.578   5.987  -3.888  0.00  0.00    +0.096 C 
ATOM     34  C   UNL     1      -2.404   5.025  -4.815  0.00  0.00    +0.048 C 
ATOM     35  C   UNL     1      -2.951   5.425  -6.272  0.00  0.00    +0.119 C 
ATOM     36  C   UNL     1      -3.354   7.030  -6.012  0.00  0.00    +0.032 C 
ATOM     37  O   UNL     1      -1.707   5.877  -7.002  0.00  0.00    -0.331 OA
BRANCH  33  38
ATOM     38  N   UNL     1      -2.717   7.055  -3.620  0.00  0.00    -0.269 NA
ATOM     39  C   UNL     1      -3.658   6.313  -2.766  0.00  0.00    +0.090 C 
ATOM     40  C   UNL     1      -2.137   7.954  -2.628  0.00  0.00    +0.090 C 
ENDBRANCH  33  38
ENDBRANCH  29  30
ENDBRANCH  16  29
BRANCH  19  41
ATOM     41  O   UNL     1       4.588   6.384  -5.909  0.00  0.00    -0.332 OA
BRANCH  41  42
ATOM     42  C   UNL     1       5.028   5.569  -4.707  0.00  0.00    +0.238 C 
ATOM     43  O   UNL     1       3.594   5.695  -4.218  0.00  0.00    -0.330 OA
ATOM     44  C   UNL     1       3.433   4.699  -3.122  0.00  0.00    +0.150 C 
ATOM     45  C   UNL     1       4.271   3.518  -3.895  0.00  0.00    +0.035 C 
ATOM     46  C   UNL     1       4.814   5.119  -2.182  0.00  0.00    +0.204 C 
ATOM     47  O   UNL     1       3.927   5.272  -0.965  0.00  0.00    -0.218 OA
ATOM     48  C   UNL     1       4.807   6.721  -2.491  0.00  0.00    +0.128 C 
ATOM     49  C   UNL     1       5.688   7.149  -1.339  0.00  0.00    +0.033 C 
ATOM     50  C   UNL     1       5.478   6.893  -3.801  0.00  0.00    +0.091 C 
BRANCH  48  51
ATOM     51  O   UNL     1       3.542   7.187  -2.384  0.00  0.00    -0.353 OA
ATOM     52  C   UNL     1       3.448   8.482  -1.884  0.00  0.00    +0.174 C 
ENDBRANCH  48  51
ENDBRANCH  41  42
ENDBRANCH  19  41
TORSDOF 8
ENDMDL
MODEL 6
REMARK VINA RESULT:      -2.3      6.092     13.264
REMARK  Name = 
REMARK  8 active torsions:
REMARK  status: ('A' for Active; 'I' for Inactive)
REMARK    1  A    between atoms: C_2  and  C_3
REMARK    2  A    between atoms: C_9  and  O_10
REMARK    3  A    between atoms: O_10  and  C_11
REMARK    4  A    between atoms: C_13  and  O_15
REMARK    5  A    between atoms: C_24  and  O_25
REMARK    6  A    between atoms: O_25  and  C_26
REMARK    7  A    between atoms: C_31  and  N_32
REMARK    8  A    between atoms: C_37  and  O_39
REMARK                            x       y       z     vdW  Elec       q    Type
REMARK                         _______ _______ _______ _____ _____    ______ ____
ROOT
ATOM      1  C   UNL     1       4.516   4.888  -8.263  0.00  0.00    +0.199 C 
ATOM      2  C   UNL     1       4.253   5.519  -6.792  0.00  0.00    +0.191 C 
ATOM      3  O   UNL     1       5.534   6.081  -6.630  0.00  0.00    -0.219 OA
ATOM      4  C   UNL     1       3.764   4.592  -5.837  0.00  0.00    +0.039 C 
ATOM      5  C   UNL     1       3.417   6.892  -6.898  0.00  0.00    +0.190 C 
ATOM      6  O   UNL     1       3.356   6.978  -5.389  0.00  0.00    -0.220 OA
ATOM      7  C   UNL     1       1.892   6.143  -7.159  0.00  0.00    +0.091 C 
ATOM      8  C   UNL     1       1.153   6.612  -5.794  0.00  0.00    +0.010 C 
ATOM      9  C   UNL     1       1.370   7.391  -7.974  0.00  0.00    +0.152 C 
ATOM     10  O   UNL     1       1.541   8.489  -7.579  0.00  0.00    -0.296 OA
ATOM     11  C   UNL     1       0.275   7.165  -9.111  0.00  0.00    +0.060 C 
ATOM     12  C   UNL     1      -0.164   5.660  -8.656  0.00  0.00    +0.008 C 
ATOM     13  C   UNL     1       1.381   6.693 -10.212  0.00  0.00    +0.037 C 
ATOM     14  C   UNL     1       0.878   6.630 -11.530  0.00  0.00    +0.118 C 
ATOM     15  C   UNL     1       0.523   5.230 -11.895  0.00  0.00    +0.032 C 
ATOM     16  C   UNL     1       1.847   7.225 -12.713  0.00  0.00    +0.145 C 
ATOM     17  C   UNL     1       2.661   5.779 -13.069  0.00  0.00    +0.057 C 
ATOM     18  C   UNL     1       3.036   6.295 -14.551  0.00  0.00    +0.005 C 
ATOM     19  C   UNL     1       4.230   6.148 -12.562  0.00  0.00    +0.131 C 
ATOM     20  C   UNL     1       4.044   5.226 -11.133  0.00  0.00    +0.126 C 
ATOM     21  C   UNL     1       5.409   4.351 -11.203  0.00  0.00    +0.014 C 
ATOM     22  C   UNL     1       4.741   6.273 -10.142  0.00  0.00    +0.319 C 
ATOM     23  O   UNL     1       4.627   7.508 -10.425  0.00  0.00    -0.250 OA
ATOM     24  O   UNL     1       3.877   6.050  -9.038  0.00  0.00    -0.450 OA
ENDROOT
BRANCH   1  26
ATOM     25  C   UNL     1       2.872   3.606  -8.632  0.00  0.00    +0.004 C 
ATOM     26  C   UNL     1       3.132   3.991  -8.210  0.00  0.00    +0.046 C 
ENDBRANCH   1  26
BRANCH  14  27
ATOM     27  O   UNL     1      -0.190   7.521 -11.553  0.00  0.00    -0.353 OA
ATOM     28  C   UNL     1      -1.430   6.858 -11.679  0.00  0.00    +0.174 C 
ENDBRANCH  14  27
BRANCH  16  29
ATOM     29  O   UNL     1       0.820   6.833 -13.742  0.00  0.00    -0.329 OA
BRANCH  29  30
ATOM     30  C   UNL     1       1.303   7.258 -15.115  0.00  0.00    +0.268 C 
ATOM     31  C   UNL     1      -0.358   7.397 -15.580  0.00  0.00    +0.222 C 
ATOM     32  O   UNL     1      -0.410   5.910 -15.758  0.00  0.00    -0.216 OA
ATOM     33  C   UNL     1      -0.059   7.548 -17.252  0.00  0.00    +0.096 C 
ATOM     34  C   UNL     1       1.237   8.430 -17.159  0.00  0.00    +0.048 C 
ATOM     35  C   UNL     1       1.518   9.502 -15.995  0.00  0.00    +0.119 C 
ATOM     36  C   UNL     1      -0.028  10.101 -15.759  0.00  0.00    +0.032 C 
ATOM     37  O   UNL     1       1.374   8.690 -14.728  0.00  0.00    -0.331 OA
BRANCH  33  38
ATOM     38  N   UNL     1      -1.095   8.717 -17.511  0.00  0.00    -0.269 NA
ATOM     39  C   UNL     1      -0.578   9.339 -18.740  0.00  0.00    +0.090 C 
ATOM     40  C   UNL     1      -2.270   8.040 -18.050  0.00  0.00    +0.090 C 
ENDBRANCH  33  38
ENDBRANCH  29  30
ENDBRANCH  16  29
BRANCH  19  41
ATOM     41  O   UNL     1       4.681   4.954 -13.319  0.00  0.00    -0.332 OA
BRANCH  41  42
ATOM     42  C   UNL     1       6.039   5.277 -13.916  0.00  0.00    +0.238 C 
ATOM     43  O   UNL     1       5.693   6.737 -13.672  0.00  0.00    -0.330 OA
ATOM     44  C   UNL     1       6.962   7.502 -13.820  0.00  0.00    +0.150 C 
ATOM     45  C   UNL     1       7.873   6.399 -13.015  0.00  0.00    +0.035 C 
ATOM     46  C   UNL     1       7.472   6.871 -15.341  0.00  0.00    +0.204 C 
ATOM     47  O   UNL     1       7.602   8.282 -15.872  0.00  0.00    -0.218 OA
ATOM     48  C   UNL     1       5.992   6.672 -15.999  0.00  0.00    +0.128 C 
ATOM     49  C   UNL     1       6.429   6.574 -17.443  0.00  0.00    +0.033 C 
ATOM     50  C   UNL     1       5.479   5.381 -15.482  0.00  0.00    +0.091 C 
BRANCH  48  51
ATOM     51  O   UNL     1       5.246   7.772 -15.751  0.00  0.00    -0.353 OA
ATOM     52  C   UNL     1       4.868   8.478 -16.889  0.00  0.00    +0.174 C 
ENDBRANCH  48  51
ENDBRANCH  41  42
ENDBRANCH  19  41
TORSDOF 8
ENDMDL
MODEL 7
REMARK VINA RESULT:      -2.0      0.969      1.588
REMARK  Name = 
REMARK  8 active torsions:
REMARK  status: ('A' for Active; 'I' for Inactive)
REMARK    1  A    between atoms: C_2  and  C_3
REMARK    2  A    between atoms: C_9  and  O_10
REMARK    3  A    between atoms: O_10  and  C_11
REMARK    4  A    between atoms: C_13  and  O_15
REMARK    5  A    between atoms: C_24  and  O_25
REMARK    6  A    between atoms: O_25  and  C_26
REMARK    7  A    between atoms: C_31  and  N_32
REMARK    8  A    between atoms: C_37  and  O_39
REMARK                            x       y       z     vdW  Elec       q    Type
REMARK                         _______ _______ _______ _____ _____    ______ ____
ROOT
ATOM      1  C   UNL     1       0.124   5.009  -6.469  0.00  0.00    +0.199 C 
ATOM      2  C   UNL     1       0.580   5.536  -7.933  0.00  0.00    +0.191 C 
ATOM      3  O   UNL     1      -0.558   6.328  -8.178  0.00  0.00    -0.219 OA
ATOM      4  C   UNL     1       0.931   4.507  -8.842  0.00  0.00    +0.039 C 
ATOM      5  C   UNL     1       1.659   6.727  -7.804  0.00  0.00    +0.190 C 
ATOM      6  O   UNL     1       1.814   6.756  -9.308  0.00  0.00    -0.220 OA
ATOM      7  C   UNL     1       2.994   5.707  -7.444  0.00  0.00    +0.091 C 
ATOM      8  C   UNL     1       3.880   5.987  -8.772  0.00  0.00    +0.010 C 
ATOM      9  C   UNL     1       3.704   6.855  -6.622  0.00  0.00    +0.152 C 
ATOM     10  O   UNL     1       3.768   7.954  -7.046  0.00  0.00    -0.296 OA
ATOM     11  C   UNL     1       4.673   6.456  -5.420  0.00  0.00    +0.060 C 
ATOM     12  C   UNL     1       4.838   4.883  -5.823  0.00  0.00    +0.008 C 
ATOM     13  C   UNL     1       3.440   6.236  -4.376  0.00  0.00    +0.037 C 
ATOM     14  C   UNL     1       3.852   6.115  -3.031  0.00  0.00    +0.118 C 
ATOM     15  C   UNL     1       3.912   4.684  -2.622  0.00  0.00    +0.032 C 
ATOM     16  C   UNL     1       2.955   6.918  -1.915  0.00  0.00    +0.145 C 
ATOM     17  C   UNL     1       1.861   5.665  -1.582  0.00  0.00    +0.057 C 
ATOM     18  C   UNL     1       1.514   6.285  -0.132  0.00  0.00    +0.005 C 
ATOM     19  C   UNL     1       0.421   6.313  -2.183  0.00  0.00    +0.131 C 
ATOM     20  C   UNL     1       0.500   5.332  -3.583  0.00  0.00    +0.126 C 
ATOM     21  C   UNL     1      -1.009   4.737  -3.575  0.00  0.00    +0.014 C 
ATOM     22  C   UNL     1       0.071   6.465  -4.631  0.00  0.00    +0.319 C 
ATOM     23  O   UNL     1       0.406   7.663  -4.363  0.00  0.00    -0.250 OA
ATOM     24  O   UNL     1       0.933   6.049  -5.679  0.00  0.00    -0.450 OA
ENDROOT
BRANCH   1  26
ATOM     25  C   UNL     1       1.535   3.518  -5.953  0.00  0.00    +0.004 C 
ATOM     26  C   UNL     1       1.310   3.863  -6.427  0.00  0.00    +0.046 C 
ENDBRANCH   1  26
BRANCH  14  27
ATOM     27  O   UNL     1       5.069   6.786  -2.963  0.00  0.00    -0.353 OA
ATOM     28  C   UNL     1       4.976   8.104  -3.459  0.00  0.00    +0.174 C 
ENDBRANCH  14  27
BRANCH  16  29
ATOM     29  O   UNL     1       3.832   6.366  -0.823  0.00  0.00    -0.329 OA
BRANCH  29  30
ATOM     30  C   UNL     1       4.745   7.465  -0.315  0.00  0.00    +0.268 C 
ATOM     31  C   UNL     1       3.389   8.091   0.559  0.00  0.00    +0.222 C 
ATOM     32  O   UNL     1       2.888   8.715  -0.708  0.00  0.00    -0.216 OA
ATOM     33  C   UNL     1       4.113   9.581   0.961  0.00  0.00    +0.096 C 
ATOM     34  C   UNL     1       5.566   9.048   1.225  0.00  0.00    +0.048 C 
ATOM     35  C   UNL     1       5.900   7.587   1.807  0.00  0.00    +0.119 C 
ATOM     36  C   UNL     1       4.634   7.396   2.886  0.00  0.00    +0.032 C 
ATOM     37  O   UNL     1       5.194   6.657   0.846  0.00  0.00    -0.331 OA
BRANCH  33  38
ATOM     38  N   UNL     1       3.621   9.615   2.466  0.00  0.00    -0.269 NA
ATOM     39  C   UNL     1       4.486  10.645   3.064  0.00  0.00    +0.090 C 
ATOM     40  C   UNL     1       2.361  10.348   2.413  0.00  0.00    +0.090 C 
ENDBRANCH  33  38
ENDBRANCH  29  30
ENDBRANCH  16  29
BRANCH  19  41
ATOM     41  O   UNL     1      -0.291   5.249  -1.432  0.00  0.00    -0.332 OA
BRANCH  41  42
ATOM     42  C   UNL     1      -1.638   5.808  -1.013  0.00  0.00    +0.238 C 
ATOM     43  O   UNL     1      -0.926   7.140  -0.845  0.00  0.00    -0.330 OA
ATOM     44  C   UNL     1      -1.990   8.177  -0.737  0.00  0.00    +0.150 C 
ATOM     45  C   UNL     1      -2.925   7.528  -1.919  0.00  0.00    +0.035 C 
ATOM     46  C   UNL     1      -2.953   7.436   0.486  0.00  0.00    +0.204 C 
ATOM     47  O   UNL     1      -2.875   8.707   1.304  0.00  0.00    -0.218 OA
ATOM     48  C   UNL     1      -1.740   6.729   1.317  0.00  0.00    +0.128 C 
ATOM     49  C   UNL     1      -2.496   6.487   2.603  0.00  0.00    +0.033 C 
ATOM     50  C   UNL     1      -1.431   5.466   0.605  0.00  0.00    +0.091 C 
BRANCH  48  51
ATOM     51  O   UNL     1      -0.729   7.614   1.463  0.00  0.00    -0.353 OA
ATOM     52  C   UNL     1      -0.066   7.532   2.684  0.00  0.00    +0.174 C 
ENDBRANCH  48  51
ENDBRANCH  41  42
ENDBRANCH  19  41
TORSDOF 8
ENDMDL
MODEL 8
REMARK VINA RESULT:      -1.9      3.705      9.341
REMARK  Name = 
REMARK  8 active torsions:
REMARK  status: ('A' for Active; 'I' for Inactive)
REMARK    1  A    between atoms: C_2  and  C_3
REMARK    2  A    between atoms: C_9  and  O_10
REMARK    3  A    between atoms: O_10  and  C_11
REMARK    4  A    between atoms: C_13  and  O_15
REMARK    5  A    between atoms: C_24  and  O_25
REMARK    6  A    between atoms: O_25  and  C_26
REMARK    7  A    between atoms: C_31  and  N_32
REMARK    8  A    between atoms: C_37  and  O_39
REMARK                            x       y       z     vdW  Elec       q    Type
REMARK                         _______ _______ _______ _____ _____    ______ ____
ROOT
ATOM      1  C   UNL     1      -2.228   6.430  -4.880  0.00  0.00    +0.199 C 
ATOM      2  C   UNL     1      -2.526   5.918  -3.371  0.00  0.00    +0.191 C 
ATOM      3  O   UNL     1      -3.451   4.916  -3.724  0.00  0.00    -0.219 OA
ATOM      4  C   UNL     1      -2.909   6.944  -2.471  0.00  0.00    +0.039 C 
ATOM      5  C   UNL     1      -1.343   4.958  -2.846  0.00  0.00    +0.190 C 
ATOM      6  O   UNL     1      -2.005   4.876  -1.489  0.00  0.00    -0.220 OA
ATOM      7  C   UNL     1      -0.237   6.226  -2.499  0.00  0.00    +0.091 C 
ATOM      8  C   UNL     1      -0.154   6.044  -0.890  0.00  0.00    +0.010 C 
ATOM      9  C   UNL     1       0.999   5.276  -2.757  0.00  0.00    +0.152 C 
ATOM     10  O   UNL     1       1.033   4.188  -2.306  0.00  0.00    -0.296 OA
ATOM     11  C   UNL     1       2.363   5.914  -3.284  0.00  0.00    +0.060 C 
ATOM     12  C   UNL     1       1.993   7.466  -2.940  0.00  0.00    +0.008 C 
ATOM     13  C   UNL     1       1.854   5.957  -4.832  0.00  0.00    +0.037 C 
ATOM     14  C   UNL     1       2.884   6.225  -5.760  0.00  0.00    +0.118 C 
ATOM     15  C   UNL     1       2.883   7.662  -6.151  0.00  0.00    +0.032 C 
ATOM     16  C   UNL     1       2.881   5.332  -7.136  0.00  0.00    +0.145 C 
ATOM     17  C   UNL     1       1.919   6.375  -8.065  0.00  0.00    +0.057 C 
ATOM     18  C   UNL     1       2.514   5.781  -9.442  0.00  0.00    +0.005 C 
ATOM     19  C   UNL     1       0.529   5.439  -8.283  0.00  0.00    +0.131 C 
ATOM     20  C   UNL     1      -0.329   6.340  -7.108  0.00  0.00    +0.126 C 
ATOM     21  C   UNL     1      -1.685   6.643  -7.945  0.00  0.00    +0.014 C 
ATOM     22  C   UNL     1      -1.027   5.092  -6.388  0.00  0.00    +0.319 C 
ATOM     23  O   UNL     1      -0.385   3.994  -6.373  0.00  0.00    -0.250 OA
ATOM     24  O   UNL     1      -0.946   5.603  -5.066  0.00  0.00    -0.450 OA
ENDROOT
BRANCH   1  26
ATOM     25  C   UNL     1      -1.507   8.384  -4.497  0.00  0.00    +0.004 C 
ATOM     26  C   UNL     1      -1.437   7.777  -4.350  0.00  0.00    +0.046 C 
ENDBRANCH   1  26
BRANCH  14  27
ATOM     27  O   UNL     1       4.053   5.798  -5.137  0.00  0.00    -0.353 OA
ATOM     28  C   UNL     1       4.941   6.866  -4.887  0.00  0.00    +0.174 C 
ENDBRANCH  14  27
BRANCH  16  29
ATOM     29  O   UNL     1       4.083   6.096  -7.627  0.00  0.00    -0.329 OA
BRANCH  29  30
ATOM     30  C   UNL     1       4.643   5.406  -8.855  0.00  0.00    +0.268 C 
ATOM     31  C   UNL     1       5.238   6.949  -9.364  0.00  0.00    +0.222 C 
ATOM     32  O   UNL     1       3.862   7.296  -9.848  0.00  0.00    -0.216 OA
ATOM     33  C   UNL     1       5.633   6.469 -10.951  0.00  0.00    +0.096 C 
ATOM     34  C   UNL     1       6.167   5.032 -10.613  0.00  0.00    +0.048 C 
ATOM     35  C   UNL     1       6.906   4.643  -9.239  0.00  0.00    +0.119 C 
ATOM     36  C   UNL     1       7.781   6.044  -8.962  0.00  0.00    +0.032 C 
ATOM     37  O   UNL     1       5.920   5.073  -8.177  0.00  0.00    -0.331 OA
BRANCH  33  38
ATOM     38  N   UNL     1       7.033   7.207 -11.015  0.00  0.00    -0.269 NA
ATOM     39  C   UNL     1       7.649   6.626 -12.218  0.00  0.00    +0.090 C 
ATOM     40  C   UNL     1       6.712   8.539 -11.518  0.00  0.00    +0.090 C 
ENDBRANCH  33  38
ENDBRANCH  29  30
ENDBRANCH  16  29
BRANCH  19  41
ATOM     41  O   UNL     1       0.139   6.391  -9.353  0.00  0.00    -0.332 OA
BRANCH  41  42
ATOM     42  C   UNL     1      -0.404   5.578 -10.513  0.00  0.00    +0.238 C 
ATOM     43  O   UNL     1       1.010   5.043 -10.676  0.00  0.00    -0.330 OA
ATOM     44  C   UNL     1       0.912   3.859 -11.574  0.00  0.00    +0.150 C 
ATOM     45  C   UNL     1      -0.451   3.274 -10.872  0.00  0.00    +0.035 C 
ATOM     46  C   UNL     1      -0.003   4.573 -12.849  0.00  0.00    +0.204 C 
ATOM     47  O   UNL     1       1.047   4.123 -13.842  0.00  0.00    -0.218 OA
ATOM     48  C   UNL     1       0.621   6.077 -12.746  0.00  0.00    +0.128 C 
ATOM     49  C   UNL     1       0.191   6.563 -14.112  0.00  0.00    +0.033 C 
ATOM     50  C   UNL     1      -0.115   6.757 -11.654  0.00  0.00    +0.091 C 
BRANCH  48  51
ATOM     51  O   UNL     1       1.964   5.992 -12.620  0.00  0.00    -0.353 OA
ATOM     52  C   UNL     1       2.676   6.532 -13.687  0.00  0.00    +0.174 C 
ENDBRANCH  48  51
ENDBRANCH  41  42
ENDBRANCH  19  41
TORSDOF 8
ENDMDL
