MODEL 1
REMARK VINA RESULT:      -8.2      0.000      0.000
REMARK  Name = 
REMARK  5 active torsions:
REMARK  status: ('A' for Active; 'I' for Inactive)
REMARK    1  A    between atoms: O_2  and  C_3
REMARK    2  A    between atoms: C_8  and  O_9
REMARK    3  A    between atoms: O_9  and  C_10
REMARK    4  A    between atoms: C_10  and  C_11
REMARK    5  A    between atoms: N_22  and  C_23
REMARK                            x       y       z     vdW  Elec       q    Type
REMARK                         _______ _______ _______ _____ _____    ______ ____
ROOT
ATOM      1  C   UNL     1       0.144   6.495  -4.167  0.00  0.00    +0.173 A 
ATOM      2  C   UNL     1       1.200   6.431  -5.069  0.00  0.00    +0.174 A 
ATOM      3  C   UNL     1       2.503   6.414  -4.586  0.00  0.00    +0.059 A 
ATOM      4  C   UNL     1       2.700   5.801  -3.374  0.00  0.00    +0.089 A 
ATOM      5  N   UNL     1       3.901   5.501  -2.861  0.00  0.00    -0.224 NA
ATOM      6  C   UNL     1       3.952   4.664  -1.798  0.00  0.00    +0.200 A 
ATOM      7  N   UNL     1       2.929   4.627  -0.911  0.00  0.00    -0.205 NA
ATOM      8  C   UNL     1       1.856   5.380  -1.183  0.00  0.00    +0.166 A 
ATOM      9  N   UNL     1       0.900   5.603  -0.343  0.00  0.00    -0.224 NA
ATOM     10  C   UNL     1       1.639   5.821  -2.480  0.00  0.00    +0.057 A 
ATOM     11  C   UNL     1       0.437   6.429  -2.812  0.00  0.00    +0.045 A 
ENDROOT
BRANCH   9  12
ATOM     12  C   UNL     1       0.103   6.795  -0.456  0.00  0.00    +0.110 A 
ATOM     13  C   UNL     1      -1.262   6.554  -0.302  0.00  0.00    +0.158 A 
ATOM     14  F   UNL     1      -1.776   5.358  -0.714  0.00  0.00    -0.203 F 
ATOM     15  C   UNL     1      -2.116   7.541   0.178  0.00  0.00    +0.038 A 
ATOM     16  C   UNL     1      -1.605   8.508   1.007  0.00  0.00    +0.037 A 
ATOM     17 BR   UNL     1      -2.641   9.296   2.417  0.00  0.00    -0.049 Br
ATOM     18  C   UNL     1      -0.262   8.815   0.846  0.00  0.00    +0.008 A 
ATOM     19  C   UNL     1       0.560   7.834   0.355  0.00  0.00    +0.022 A 
ENDBRANCH   9  12
BRANCH   1  21
ATOM     20  C   UNL     1      -1.787   7.979  -4.554  0.00  0.00    +0.253 C 
ATOM     21  O   UNL     1      -1.125   6.730  -4.653  0.00  0.00    -0.468 OA
ENDBRANCH   1  21
BRANCH   2  22
ATOM     22  O   UNL     1       1.045   6.774  -6.414  0.00  0.00    -0.472 OA
BRANCH  22  23
ATOM     23  C   UNL     1       0.760   5.797  -7.381  0.00  0.00    +0.206 C 
BRANCH  23  24
ATOM     24  C   UNL     1       1.544   5.962  -8.654  0.00  0.00    +0.047 C 
ATOM     25  C   UNL     1       2.001   4.639  -9.226  0.00  0.00    +0.021 C 
ATOM     26  C   UNL     1       3.432   4.328  -8.887  0.00  0.00    +0.072 C 
ATOM     27  N   UNL     1       4.360   5.299  -9.409  0.00  0.00    -0.272 NA
ATOM     28  C   UNL     1       5.575   5.274  -8.635  0.00  0.00    +0.090 C 
ATOM     29  C   UNL     1       3.792   6.622  -9.536  0.00  0.00    +0.072 C 
ATOM     30  C   UNL     1       2.719   6.888  -8.513  0.00  0.00    +0.021 C 
ENDBRANCH  23  24
ENDBRANCH  22  23
ENDBRANCH   2  22
TORSDOF 5
ENDMDL
MODEL 2
REMARK VINA RESULT:      -8.2      4.544      8.470
REMARK  Name = 
REMARK  5 active torsions:
REMARK  status: ('A' for Active; 'I' for Inactive)
REMARK    1  A    between atoms: O_2  and  C_3
REMARK    2  A    between atoms: C_8  and  O_9
REMARK    3  A    between atoms: O_9  and  C_10
REMARK    4  A    between atoms: C_10  and  C_11
REMARK    5  A    between atoms: N_22  and  C_23
REMARK                            x       y       z     vdW  Elec       q    Type
REMARK                         _______ _______ _______ _____ _____    ______ ____
ROOT
ATOM      1  C   UNL     1       3.086   5.727  -7.193  0.00  0.00    +0.173 A 
ATOM      2  C   UNL     1       3.133   6.255  -5.908  0.00  0.00    +0.174 A 
ATOM      3  C   UNL     1       2.016   6.911  -5.404  0.00  0.00    +0.059 A 
ATOM      4  C   UNL     1       0.794   6.456  -5.830  0.00  0.00    +0.089 A 
ATOM      5  N   UNL     1      -0.380   6.817  -5.292  0.00  0.00    -0.224 NA
ATOM      6  C   UNL     1      -1.480   6.099  -5.619  0.00  0.00    +0.200 A 
ATOM      7  N   UNL     1      -1.569   5.502  -6.832  0.00  0.00    -0.205 NA
ATOM      8  C   UNL     1      -0.501   5.587  -7.634  0.00  0.00    +0.166 A 
ATOM      9  N   UNL     1      -0.508   5.248  -8.882  0.00  0.00    -0.224 NA
ATOM     10  C   UNL     1       0.740   5.887  -7.095  0.00  0.00    +0.057 A 
ATOM     11  C   UNL     1       1.880   5.783  -7.879  0.00  0.00    +0.045 A 
ENDROOT
BRANCH   9  12
ATOM     12  C   UNL     1       0.426   5.845  -9.797  0.00  0.00    +0.110 A 
ATOM     13  C   UNL     1       1.030   4.916 -10.643  0.00  0.00    +0.158 A 
ATOM     14  F   UNL     1       1.251   3.648 -10.188  0.00  0.00    -0.203 F 
ATOM     15  C   UNL     1       1.489   5.283 -11.903  0.00  0.00    +0.038 A 
ATOM     16  C   UNL     1       0.886   6.337 -12.543  0.00  0.00    +0.037 A 
ATOM     17 BR   UNL     1       0.694   6.399 -14.451  0.00  0.00    -0.049 Br
ATOM     18  C   UNL     1       0.321   7.311 -11.733  0.00  0.00    +0.008 A 
ATOM     19  C   UNL     1      -0.109   6.933 -10.488  0.00  0.00    +0.022 A 
ENDBRANCH   9  12
BRANCH   1  21
ATOM     20  C   UNL     1       4.314   4.593  -9.007  0.00  0.00    +0.253 C 
ATOM     21  O   UNL     1       4.256   5.274  -7.765  0.00  0.00    -0.468 OA
ENDBRANCH   1  21
BRANCH   2  22
ATOM     22  O   UNL     1       4.343   6.507  -5.258  0.00  0.00    -0.472 OA
BRANCH  22  23
ATOM     23  C   UNL     1       4.460   7.553  -4.328  0.00  0.00    +0.206 C 
BRANCH  23  24
ATOM     24  C   UNL     1       4.678   7.083  -2.917  0.00  0.00    +0.047 C 
ATOM     25  C   UNL     1       4.389   5.608  -2.748  0.00  0.00    +0.021 C 
ATOM     26  C   UNL     1       3.026   5.350  -2.170  0.00  0.00    +0.072 C 
ATOM     27  N   UNL     1       2.854   5.914  -0.856  0.00  0.00    -0.272 NA
ATOM     28  C   UNL     1       1.451   6.120  -0.597  0.00  0.00    +0.090 C 
ATOM     29  C   UNL     1       3.654   7.096  -0.633  0.00  0.00    +0.072 C 
ATOM     30  C   UNL     1       3.903   7.872  -1.900  0.00  0.00    +0.021 C 
ENDBRANCH  23  24
ENDBRANCH  22  23
ENDBRANCH   2  22
TORSDOF 5
ENDMDL
MODEL 3
REMARK VINA RESULT:      -8.1      2.837      5.660
REMARK  Name = 
REMARK  5 active torsions:
REMARK  status: ('A' for Active; 'I' for Inactive)
REMARK    1  A    between atoms: O_2  and  C_3
REMARK    2  A    between atoms: C_8  and  O_9
REMARK    3  A    between atoms: O_9  and  C_10
REMARK    4  A    between atoms: C_10  and  C_11
REMARK    5  A    between atoms: N_22  and  C_23
REMARK                            x       y       z     vdW  Elec       q    Type
REMARK                         _______ _______ _______ _____ _____    ______ ____
ROOT
ATOM      1  C   UNL     1       0.905   5.248  -3.775  0.00  0.00    +0.173 A 
ATOM      2  C   UNL     1       0.412   5.235  -5.074  0.00  0.00    +0.174 A 
ATOM      3  C   UNL     1       1.106   5.913  -6.069  0.00  0.00    +0.059 A 
ATOM      4  C   UNL     1       2.470   5.965  -5.938  0.00  0.00    +0.089 A 
ATOM      5  N   UNL     1       3.310   6.381  -6.896  0.00  0.00    -0.224 NA
ATOM      6  C   UNL     1       4.632   6.132  -6.740  0.00  0.00    +0.200 A 
ATOM      7  N   UNL     1       5.172   6.067  -5.500  0.00  0.00    -0.205 NA
ATOM      8  C   UNL     1       4.333   6.175  -4.462  0.00  0.00    +0.166 A 
ATOM      9  N   UNL     1       4.717   6.333  -3.238  0.00  0.00    -0.224 NA
ATOM     10  C   UNL     1       2.980   5.937  -4.647  0.00  0.00    +0.057 A 
ATOM     11  C   UNL     1       2.136   5.851  -3.549  0.00  0.00    +0.045 A 
ENDROOT
BRANCH   9  12
ATOM     12  C   UNL     1       3.850   6.976  -2.287  0.00  0.00    +0.110 A 
ATOM     13  C   UNL     1       3.942   6.426  -1.009  0.00  0.00    +0.158 A 
ATOM     14  F   UNL     1       4.220   5.096  -0.876  0.00  0.00    -0.203 F 
ATOM     15  C   UNL     1       3.667   7.186   0.121  0.00  0.00    +0.038 A 
ATOM     16  C   UNL     1       3.857   8.545   0.064  0.00  0.00    +0.037 A 
ATOM     17 BR   UNL     1       4.430   9.560   1.588  0.00  0.00    -0.049 Br
ATOM     18  C   UNL     1       3.720   9.136  -1.183  0.00  0.00    +0.008 A 
ATOM     19  C   UNL     1       3.979   8.365  -2.285  0.00  0.00    +0.022 A 
ENDBRANCH   9  12
BRANCH   1  21
ATOM     20  C   UNL     1       0.513   4.694  -1.404  0.00  0.00    +0.253 C 
ATOM     21  O   UNL     1       0.107   4.764  -2.760  0.00  0.00    -0.468 OA
ENDBRANCH   1  21
BRANCH   2  22
ATOM     22  O   UNL     1      -0.920   4.921  -5.355  0.00  0.00    -0.472 OA
BRANCH  22  23
ATOM     23  C   UNL     1      -1.761   5.846  -5.993  0.00  0.00    +0.206 C 
BRANCH  23  24
ATOM     24  C   UNL     1      -2.802   6.440  -5.084  0.00  0.00    +0.047 C 
ATOM     25  C   UNL     1      -2.461   7.851  -4.660  0.00  0.00    +0.021 C 
ATOM     26  C   UNL     1      -1.845   7.909  -3.290  0.00  0.00    +0.072 C 
ATOM     27  N   UNL     1      -2.718   7.412  -2.258  0.00  0.00    -0.272 NA
ATOM     28  C   UNL     1      -1.936   6.987  -1.125  0.00  0.00    +0.090 C 
ATOM     29  C   UNL     1      -3.640   6.403  -2.725  0.00  0.00    +0.072 C 
ATOM     30  C   UNL     1      -3.082   5.599  -3.870  0.00  0.00    +0.021 C 
ENDBRANCH  23  24
ENDBRANCH  22  23
ENDBRANCH   2  22
TORSDOF 5
ENDMDL
MODEL 4
REMARK VINA RESULT:      -8.0      4.064      8.809
REMARK  Name = 
REMARK  5 active torsions:
REMARK  status: ('A' for Active; 'I' for Inactive)
REMARK    1  A    between atoms: O_2  and  C_3
REMARK    2  A    between atoms: C_8  and  O_9
REMARK    3  A    between atoms: O_9  and  C_10
REMARK    4  A    between atoms: C_10  and  C_11
REMARK    5  A    between atoms: N_22  and  C_23
REMARK                            x       y       z     vdW  Elec       q    Type
REMARK                         _______ _______ _______ _____ _____    ______ ____
ROOT
ATOM      1  C   UNL     1       1.660   5.526  -3.831  0.00  0.00    +0.173 A 
ATOM      2  C   UNL     1       0.736   5.992  -2.904  0.00  0.00    +0.174 A 
ATOM      3  C   UNL     1      -0.438   6.584  -3.356  0.00  0.00    +0.059 A 
ATOM      4  C   UNL     1      -0.948   6.108  -4.538  0.00  0.00    +0.089 A 
ATOM      5  N   UNL     1      -2.167   6.403  -5.012  0.00  0.00    -0.224 NA
ATOM      6  C   UNL     1      -2.649   5.664  -6.039  0.00  0.00    +0.200 A 
ATOM      7  N   UNL     1      -1.801   5.124  -6.947  0.00  0.00    -0.205 NA
ATOM      8  C   UNL     1      -0.490   5.284  -6.729  0.00  0.00    +0.166 A 
ATOM      9  N   UNL     1       0.425   5.006  -7.599  0.00  0.00    -0.224 NA
ATOM     10  C   UNL     1      -0.039   5.600  -5.456  0.00  0.00    +0.057 A 
ATOM     11  C   UNL     1       1.319   5.573  -5.176  0.00  0.00    +0.045 A 
ENDROOT
BRANCH   9  12
ATOM     12  C   UNL     1       1.695   5.679  -7.552  0.00  0.00    +0.110 A 
ATOM     13  C   UNL     1       2.761   4.856  -7.913  0.00  0.00    +0.158 A 
ATOM     14  F   UNL     1       2.695   3.522  -7.633  0.00  0.00    -0.203 F 
ATOM     15  C   UNL     1       3.920   5.385  -8.469  0.00  0.00    +0.038 A 
ATOM     16  C   UNL     1       3.837   6.561  -9.171  0.00  0.00    +0.037 A 
ATOM     17 BR   UNL     1       4.961   6.930 -10.682  0.00  0.00    -0.049 Br
ATOM     18  C   UNL     1       2.821   7.431  -8.803  0.00  0.00    +0.008 A 
ATOM     19  C   UNL     1       1.694   6.892  -8.241  0.00  0.00    +0.022 A 
ENDBRANCH   9  12
BRANCH   1  21
ATOM     20  C   UNL     1       3.976   4.785  -4.244  0.00  0.00    +0.253 C 
ATOM     21  O   UNL     1       2.907   5.141  -3.384  0.00  0.00    -0.468 OA
ENDBRANCH   1  21
BRANCH   2  22
ATOM     22  O   UNL     1       1.088   6.253  -1.578  0.00  0.00    -0.472 OA
BRANCH  22  23
ATOM     23  C   UNL     1       0.145   6.133  -0.544  0.00  0.00    +0.206 C 
BRANCH  23  24
ATOM     24  C   UNL     1      -0.103   7.417   0.198  0.00  0.00    +0.047 C 
ATOM     25  C   UNL     1       0.247   7.314   1.666  0.00  0.00    +0.021 C 
ATOM     26  C   UNL     1      -0.959   7.078   2.531  0.00  0.00    +0.072 C 
ATOM     27  N   UNL     1      -1.926   8.143   2.454  0.00  0.00    -0.272 NA
ATOM     28  C   UNL     1      -3.225   7.646   2.829  0.00  0.00    +0.090 C 
ATOM     29  C   UNL     1      -1.923   8.828   1.182  0.00  0.00    +0.072 C 
ATOM     30  C   UNL     1      -1.508   7.930   0.046  0.00  0.00    +0.021 C 
ENDBRANCH  23  24
ENDBRANCH  22  23
ENDBRANCH   2  22
TORSDOF 5
ENDMDL
MODEL 5
REMARK VINA RESULT:      -7.9      4.217      8.218
REMARK  Name = 
REMARK  5 active torsions:
REMARK  status: ('A' for Active; 'I' for Inactive)
REMARK    1  A    between atoms: O_2  and  C_3
REMARK    2  A    between atoms: C_8  and  O_9
REMARK    3  A    between atoms: O_9  and  C_10
REMARK    4  A    between atoms: C_10  and  C_11
REMARK    5  A    between atoms: N_22  and  C_23
REMARK                            x       y       z     vdW  Elec       q    Type
REMARK                         _______ _______ _______ _____ _____    ______ ____
ROOT
ATOM      1  C   UNL     1       2.002   5.310  -3.642  0.00  0.00    +0.173 A 
ATOM      2  C   UNL     1       1.186   5.741  -2.603  0.00  0.00    +0.174 A 
ATOM      3  C   UNL     1      -0.003   6.396  -2.903  0.00  0.00    +0.059 A 
ATOM      4  C   UNL     1      -0.637   6.017  -4.059  0.00  0.00    +0.089 A 
ATOM      5  N   UNL     1      -1.884   6.379  -4.394  0.00  0.00    -0.224 NA
ATOM      6  C   UNL     1      -2.486   5.726  -5.417  0.00  0.00    +0.200 A 
ATOM      7  N   UNL     1      -1.746   5.223  -6.434  0.00  0.00    -0.205 NA
ATOM      8  C   UNL     1      -0.415   5.328  -6.332  0.00  0.00    +0.166 A 
ATOM      9  N   UNL     1       0.404   5.082  -7.301  0.00  0.00    -0.224 NA
ATOM     10  C   UNL     1       0.163   5.545  -5.090  0.00  0.00    +0.057 A 
ATOM     11  C   UNL     1       1.539   5.458  -4.943  0.00  0.00    +0.045 A 
ENDROOT
BRANCH   9  12
ATOM     12  C   UNL     1       1.696   5.712  -7.332  0.00  0.00    +0.110 A 
ATOM     13  C   UNL     1       2.707   4.858  -7.771  0.00  0.00    +0.158 A 
ATOM     14  F   UNL     1       2.615   3.524  -7.500  0.00  0.00    -0.203 F 
ATOM     15  C   UNL     1       3.844   5.355  -8.398  0.00  0.00    +0.038 A 
ATOM     16  C   UNL     1       3.755   6.542  -9.082  0.00  0.00    +0.037 A 
ATOM     17 BR   UNL     1       4.789   6.891 -10.660  0.00  0.00    -0.049 Br
ATOM     18  C   UNL     1       2.796   7.441  -8.639  0.00  0.00    +0.008 A 
ATOM     19  C   UNL     1       1.691   6.932  -8.008  0.00  0.00    +0.022 A 
ENDBRANCH   9  12
BRANCH   1  21
ATOM     20  C   UNL     1       4.317   4.761  -4.293  0.00  0.00    +0.253 C 
ATOM     21  O   UNL     1       3.270   4.859  -3.342  0.00  0.00    -0.468 OA
ENDBRANCH   1  21
BRANCH   2  22
ATOM     22  O   UNL     1       1.669   5.902  -1.303  0.00  0.00    -0.472 OA
BRANCH  22  23
ATOM     23  C   UNL     1       1.104   6.850  -0.435  0.00  0.00    +0.206 C 
BRANCH  23  24
ATOM     24  C   UNL     1       2.107   7.514   0.467  0.00  0.00    +0.047 C 
ATOM     25  C   UNL     1       1.490   8.607   1.311  0.00  0.00    +0.021 C 
ATOM     26  C   UNL     1       1.729   9.979   0.743  0.00  0.00    +0.072 C 
ATOM     27  N   UNL     1       3.126  10.319   0.659  0.00  0.00    -0.272 NA
ATOM     28  C   UNL     1       3.317  11.335  -0.344  0.00  0.00    +0.090 C 
ATOM     29  C   UNL     1       3.984   9.171   0.478  0.00  0.00    +0.072 C 
ATOM     30  C   UNL     1       3.302   8.054  -0.267  0.00  0.00    +0.021 C 
ENDBRANCH  23  24
ENDBRANCH  22  23
ENDBRANCH   2  22
TORSDOF 5
ENDMDL
MODEL 6
REMARK VINA RESULT:      -7.9      3.858      5.961
REMARK  Name = 
REMARK  5 active torsions:
REMARK  status: ('A' for Active; 'I' for Inactive)
REMARK    1  A    between atoms: O_2  and  C_3
REMARK    2  A    between atoms: C_8  and  O_9
REMARK    3  A    between atoms: O_9  and  C_10
REMARK    4  A    between atoms: C_10  and  C_11
REMARK    5  A    between atoms: N_22  and  C_23
REMARK                            x       y       z     vdW  Elec       q    Type
REMARK                         _______ _______ _______ _____ _____    ______ ____
ROOT
ATOM      1  C   UNL     1       1.242   5.679  -8.251  0.00  0.00    +0.173 A 
ATOM      2  C   UNL     1       1.244   6.083  -9.581  0.00  0.00    +0.174 A 
ATOM      3  C   UNL     1       2.390   6.663 -10.112  0.00  0.00    +0.059 A 
ATOM      4  C   UNL     1       3.588   6.225  -9.608  0.00  0.00    +0.089 A 
ATOM      5  N   UNL     1       4.785   6.508 -10.141  0.00  0.00    -0.224 NA
ATOM      6  C   UNL     1       5.858   5.801  -9.714  0.00  0.00    +0.200 A 
ATOM      7  N   UNL     1       5.899   5.321  -8.449  0.00  0.00    -0.205 NA
ATOM      8  C   UNL     1       4.811   5.505  -7.690  0.00  0.00    +0.166 A 
ATOM      9  N   UNL     1       4.774   5.287  -6.417  0.00  0.00    -0.224 NA
ATOM     10  C   UNL     1       3.593   5.779  -8.293  0.00  0.00    +0.057 A 
ATOM     11  C   UNL     1       2.429   5.775  -7.538  0.00  0.00    +0.045 A 
ENDROOT
BRANCH   9  12
ATOM     12  C   UNL     1       3.830   5.990  -5.591  0.00  0.00    +0.110 A 
ATOM     13  C   UNL     1       3.186   5.159  -4.674  0.00  0.00    +0.158 A 
ATOM     14  F   UNL     1       2.950   3.857  -5.008  0.00  0.00    -0.203 F 
ATOM     15  C   UNL     1       2.702   5.659  -3.470  0.00  0.00    +0.038 A 
ATOM     16  C   UNL     1       3.310   6.760  -2.921  0.00  0.00    +0.037 A 
ATOM     17 BR   UNL     1       3.454   7.007  -1.024  0.00  0.00    -0.049 Br
ATOM     18  C   UNL     1       3.915   7.638  -3.808  0.00  0.00    +0.008 A 
ATOM     19  C   UNL     1       4.370   7.130  -4.996  0.00  0.00    +0.022 A 
ENDBRANCH   9  12
BRANCH   1  21
ATOM     20  C   UNL     1      -0.215   5.383  -6.283  0.00  0.00    +0.253 C 
ATOM     21  O   UNL     1       0.046   5.308  -7.675  0.00  0.00    -0.468 OA
ENDBRANCH   1  21
BRANCH   2  22
ATOM     22  O   UNL     1       0.058   6.297 -10.289  0.00  0.00    -0.472 OA
BRANCH  22  23
ATOM     23  C   UNL     1      -0.029   7.304 -11.263  0.00  0.00    +0.206 C 
BRANCH  23  24
ATOM     24  C   UNL     1      -0.065   6.778 -12.672  0.00  0.00    +0.047 C 
ATOM     25  C   UNL     1       0.382   5.336 -12.761  0.00  0.00    +0.021 C 
ATOM     26  C   UNL     1       1.814   5.203 -13.201  0.00  0.00    +0.072 C 
ATOM     27  N   UNL     1       2.054   5.748 -14.513  0.00  0.00    -0.272 NA
ATOM     28  C   UNL     1       3.448   6.088 -14.649  0.00  0.00    +0.090 C 
ATOM     29  C   UNL     1       1.166   6.837 -14.851  0.00  0.00    +0.072 C 
ATOM     30  C   UNL     1       0.723   7.616 -13.640  0.00  0.00    +0.021 C 
ENDBRANCH  23  24
ENDBRANCH  22  23
ENDBRANCH   2  22
TORSDOF 5
ENDMDL
MODEL 7
REMARK VINA RESULT:      -7.9      4.331      8.279
REMARK  Name = 
REMARK  5 active torsions:
REMARK  status: ('A' for Active; 'I' for Inactive)
REMARK    1  A    between atoms: O_2  and  C_3
REMARK    2  A    between atoms: C_8  and  O_9
REMARK    3  A    between atoms: O_9  and  C_10
REMARK    4  A    between atoms: C_10  and  C_11
REMARK    5  A    between atoms: N_22  and  C_23
REMARK                            x       y       z     vdW  Elec       q    Type
REMARK                         _______ _______ _______ _____ _____    ______ ____
ROOT
ATOM      1  C   UNL     1       2.334   5.067  -4.149  0.00  0.00    +0.173 A 
ATOM      2  C   UNL     1       1.569   5.494  -3.071  0.00  0.00    +0.174 A 
ATOM      3  C   UNL     1       0.408   6.220  -3.311  0.00  0.00    +0.059 A 
ATOM      4  C   UNL     1      -0.276   5.921  -4.462  0.00  0.00    +0.089 A 
ATOM      5  N   UNL     1      -1.511   6.357  -4.747  0.00  0.00    -0.224 NA
ATOM      6  C   UNL     1      -2.172   5.778  -5.777  0.00  0.00    +0.200 A 
ATOM      7  N   UNL     1      -1.486   5.281  -6.834  0.00  0.00    -0.205 NA
ATOM      8  C   UNL     1      -0.150   5.317  -6.766  0.00  0.00    +0.166 A 
ATOM      9  N   UNL     1       0.630   5.071  -7.767  0.00  0.00    -0.224 NA
ATOM     10  C   UNL     1       0.471   5.453  -5.534  0.00  0.00    +0.057 A 
ATOM     11  C   UNL     1       1.845   5.292  -5.429  0.00  0.00    +0.045 A 
ENDROOT
BRANCH   9  12
ATOM     12  C   UNL     1       1.951   5.637  -7.810  0.00  0.00    +0.110 A 
ATOM     13  C   UNL     1       2.902   4.759  -8.329  0.00  0.00    +0.158 A 
ATOM     14  F   UNL     1       2.751   3.418  -8.125  0.00  0.00    -0.203 F 
ATOM     15  C   UNL     1       4.043   5.233  -8.967  0.00  0.00    +0.038 A 
ATOM     16  C   UNL     1       3.993   6.457  -9.585  0.00  0.00    +0.037 A 
ATOM     17 BR   UNL     1       4.992   6.840 -11.177  0.00  0.00    -0.049 Br
ATOM     18  C   UNL     1       3.095   7.377  -9.061  0.00  0.00    +0.008 A 
ATOM     19  C   UNL     1       1.986   6.890  -8.421  0.00  0.00    +0.022 A 
ENDBRANCH   9  12
BRANCH   1  21
ATOM     20  C   UNL     1       4.796   5.219  -4.199  0.00  0.00    +0.253 C 
ATOM     21  O   UNL     1       3.586   4.542  -3.904  0.00  0.00    -0.468 OA
ENDBRANCH   1  21
BRANCH   2  22
ATOM     22  O   UNL     1       2.094   5.577  -1.780  0.00  0.00    -0.472 OA
BRANCH  22  23
ATOM     23  C   UNL     1       1.721   6.618  -0.914  0.00  0.00    +0.206 C 
BRANCH  23  24
ATOM     24  C   UNL     1       2.787   7.664  -0.736  0.00  0.00    +0.047 C 
ATOM     25  C   UNL     1       4.177   7.118  -0.972  0.00  0.00    +0.021 C 
ATOM     26  C   UNL     1       4.890   6.784   0.309  0.00  0.00    +0.072 C 
ATOM     27  N   UNL     1       5.080   7.927   1.164  0.00  0.00    -0.272 NA
ATOM     28  C   UNL     1       5.245   7.491   2.527  0.00  0.00    +0.090 C 
ATOM     29  C   UNL     1       4.057   8.935   1.007  0.00  0.00    +0.072 C 
ATOM     30  C   UNL     1       2.730   8.350   0.601  0.00  0.00    +0.021 C 
ENDBRANCH  23  24
ENDBRANCH  22  23
ENDBRANCH   2  22
TORSDOF 5
ENDMDL
MODEL 8
REMARK VINA RESULT:      -7.7      3.912      8.362
REMARK  Name = 
REMARK  5 active torsions:
REMARK  status: ('A' for Active; 'I' for Inactive)
REMARK    1  A    between atoms: O_2  and  C_3
REMARK    2  A    between atoms: C_8  and  O_9
REMARK    3  A    between atoms: O_9  and  C_10
REMARK    4  A    between atoms: C_10  and  C_11
REMARK    5  A    between atoms: N_22  and  C_23
REMARK                            x       y       z     vdW  Elec       q    Type
REMARK                         _______ _______ _______ _____ _____    ______ ____
ROOT
ATOM      1  C   UNL     1       1.620   5.628  -2.100  0.00  0.00    +0.173 A 
ATOM      2  C   UNL     1       0.920   6.169  -1.029  0.00  0.00    +0.174 A 
ATOM      3  C   UNL     1      -0.270   6.846  -1.269  0.00  0.00    +0.059 A 
ATOM      4  C   UNL     1      -1.023   6.405  -2.327  0.00  0.00    +0.089 A 
ATOM      5  N   UNL     1      -2.283   6.789  -2.575  0.00  0.00    -0.224 NA
ATOM      6  C   UNL     1      -3.000   6.084  -3.482  0.00  0.00    +0.200 A 
ATOM      7  N   UNL     1      -2.377   5.476  -4.519  0.00  0.00    -0.205 NA
ATOM      8  C   UNL     1      -1.040   5.536  -4.549  0.00  0.00    +0.166 A 
ATOM      9  N   UNL     1      -0.324   5.184  -5.567  0.00  0.00    -0.224 NA
ATOM     10  C   UNL     1      -0.340   5.824  -3.387  0.00  0.00    +0.057 A 
ATOM     11  C   UNL     1       1.041   5.695  -3.360  0.00  0.00    +0.045 A 
ENDROOT
BRANCH   9  12
ATOM     12  C   UNL     1       0.978   5.759  -5.766  0.00  0.00    +0.110 A 
ATOM     13  C   UNL     1       1.899   4.851  -6.290  0.00  0.00    +0.158 A 
ATOM     14  F   UNL     1       1.788   3.530  -5.965  0.00  0.00    -0.203 F 
ATOM     15  C   UNL     1       2.974   5.282  -7.059  0.00  0.00    +0.038 A 
ATOM     16  C   UNL     1       2.851   6.450  -7.768  0.00  0.00    +0.037 A 
ATOM     17 BR   UNL     1       3.708   6.710  -9.465  0.00  0.00    -0.049 Br
ATOM     18  C   UNL     1       1.985   7.401  -7.248  0.00  0.00    +0.008 A 
ATOM     19  C   UNL     1       0.942   6.958  -6.479  0.00  0.00    +0.022 A 
ENDBRANCH   9  12
BRANCH   1  21
ATOM     20  C   UNL     1       3.864   4.997  -2.907  0.00  0.00    +0.253 C 
ATOM     21  O   UNL     1       2.896   5.152  -1.883  0.00  0.00    -0.468 OA
ENDBRANCH   1  21
BRANCH   2  22
ATOM     22  O   UNL     1       1.529   6.409   0.205  0.00  0.00    -0.472 OA
BRANCH  22  23
ATOM     23  C   UNL     1       2.241   7.597   0.440  0.00  0.00    +0.206 C 
BRANCH  23  24
ATOM     24  C   UNL     1       1.718   8.393   1.603  0.00  0.00    +0.047 C 
ATOM     25  C   UNL     1       0.875   7.558   2.542  0.00  0.00    +0.021 C 
ATOM     26  C   UNL     1      -0.599   7.738   2.305  0.00  0.00    +0.072 C 
ATOM     27  N   UNL     1      -1.043   9.092   2.513  0.00  0.00    -0.272 NA
ATOM     28  C   UNL     1      -2.261   9.321   1.777  0.00  0.00    +0.090 C 
ATOM     29  C   UNL     1      -0.020  10.077   2.243  0.00  0.00    +0.072 C 
ATOM     30  C   UNL     1       0.955   9.620   1.190  0.00  0.00    +0.021 C 
ENDBRANCH  23  24
ENDBRANCH  22  23
ENDBRANCH   2  22
TORSDOF 5
ENDMDL
MODEL 9
REMARK VINA RESULT:      -7.5      6.429     11.690
REMARK  Name = 
REMARK  5 active torsions:
REMARK  status: ('A' for Active; 'I' for Inactive)
REMARK    1  A    between atoms: O_2  and  C_3
REMARK    2  A    between atoms: C_8  and  O_9
REMARK    3  A    between atoms: O_9  and  C_10
REMARK    4  A    between atoms: C_10  and  C_11
REMARK    5  A    between atoms: N_22  and  C_23
REMARK                            x       y       z     vdW  Elec       q    Type
REMARK                         _______ _______ _______ _____ _____    ______ ____
ROOT
ATOM      1  C   UNL     1       4.253   6.472 -10.936  0.00  0.00    +0.173 A 
ATOM      2  C   UNL     1       3.108   6.555 -10.152  0.00  0.00    +0.174 A 
ATOM      3  C   UNL     1       1.862   6.519 -10.766  0.00  0.00    +0.059 A 
ATOM      4  C   UNL     1       1.763   5.767 -11.909  0.00  0.00    +0.089 A 
ATOM      5  N   UNL     1       0.608   5.445 -12.508  0.00  0.00    -0.224 NA
ATOM      6  C   UNL     1       0.629   4.483 -13.462  0.00  0.00    +0.200 A 
ATOM      7  N   UNL     1       1.735   4.302 -14.223  0.00  0.00    -0.205 NA
ATOM      8  C   UNL     1       2.807   5.048 -13.930  0.00  0.00    +0.166 A 
ATOM      9  N   UNL     1       3.854   5.134 -14.684  0.00  0.00    -0.224 NA
ATOM     10  C   UNL     1       2.910   5.640 -12.680  0.00  0.00    +0.057 A 
ATOM     11  C   UNL     1       4.098   6.247 -12.297  0.00  0.00    +0.045 A 
ENDROOT
BRANCH   9  12
ATOM     12  C   UNL     1       4.687   6.304 -14.631  0.00  0.00    +0.110 A 
ATOM     13  C   UNL     1       6.045   6.001 -14.528  0.00  0.00    +0.158 A 
ATOM     14  F   UNL     1       6.425   4.872 -13.861  0.00  0.00    -0.203 F 
ATOM     15  C   UNL     1       7.014   6.872 -15.012  0.00  0.00    +0.038 A 
ATOM     16  C   UNL     1       6.688   7.709 -16.051  0.00  0.00    +0.037 A 
ATOM     17 BR   UNL     1       7.967   8.229 -17.383  0.00  0.00    -0.049 Br
ATOM     18  C   UNL     1       5.355   8.077 -16.153  0.00  0.00    +0.008 A 
ATOM     19  C   UNL     1       4.416   7.213 -15.654  0.00  0.00    +0.022 A 
ENDBRANCH   9  12
BRANCH   1  21
ATOM     20  C   UNL     1       6.671   6.048 -10.698  0.00  0.00    +0.253 C 
ATOM     21  O   UNL     1       5.475   6.724 -10.349  0.00  0.00    -0.468 OA
ENDBRANCH   1  21
BRANCH   2  22
ATOM     22  O   UNL     1       3.141   7.059  -8.849  0.00  0.00    -0.472 OA
BRANCH  22  23
ATOM     23  C   UNL     1       1.954   7.365  -8.164  0.00  0.00    +0.206 C 
BRANCH  23  24
ATOM     24  C   UNL     1       1.614   6.382  -7.078  0.00  0.00    +0.047 C 
ATOM     25  C   UNL     1       0.790   5.221  -7.588  0.00  0.00    +0.021 C 
ATOM     26  C   UNL     1      -0.677   5.389  -7.307  0.00  0.00    +0.072 C 
ATOM     27  N   UNL     1      -0.977   5.468  -5.901  0.00  0.00    -0.272 NA
ATOM     28  C   UNL     1      -2.233   6.149  -5.711  0.00  0.00    +0.090 C 
ATOM     29  C   UNL     1       0.100   6.027  -5.117  0.00  0.00    +0.072 C 
ATOM     30  C   UNL     1       0.929   7.012  -5.898  0.00  0.00    +0.021 C 
ENDBRANCH  23  24
ENDBRANCH  22  23
ENDBRANCH   2  22
TORSDOF 5
ENDMDL
