MODEL 1
REMARK VINA RESULT:      -8.6      0.000      0.000
REMARK  Name = 
REMARK  3 active torsions:
REMARK  status: ('A' for Active; 'I' for Inactive)
REMARK    1  A    between atoms: C_2  and  O_3
REMARK    2  A    between atoms: C_2  and  C_16
REMARK    3  A    between atoms: O_3  and  C_4
REMARK                            x       y       z     vdW  Elec       q    Type
REMARK                         _______ _______ _______ _____ _____    ______ ____
ROOT
ATOM      1  O   UNL     1       2.604   5.178 -10.347  0.00  0.00    -0.449 OA
ENDROOT
BRANCH   1   2
ATOM      2  C   UNL     1       2.599   5.909  -8.990  0.00  0.00    +0.172 C 
ATOM      3  C   UNL     1       3.335   4.659  -8.253  0.00  0.00    +0.060 C 
ATOM      4  C   UNL     1       3.160   4.958  -6.665  0.00  0.00    +0.062 C 
ATOM      5  N   UNL     1       2.314   6.277  -6.694  0.00  0.00    -0.269 NA
ATOM      6  C   UNL     1       0.913   6.331  -7.367  0.00  0.00    +0.062 C 
ATOM      7  C   UNL     1      -0.025   5.212  -6.505  0.00  0.00    +0.024 C 
ATOM      8  C   UNL     1       1.523   5.245  -6.136  0.00  0.00    +0.062 C 
ATOM      9  C   UNL     1       1.531   5.368  -4.537  0.00  0.00    +0.166 C 
ATOM     10  O   UNL     1       0.473   5.520  -3.990  0.00  0.00    -0.295 OA
ATOM     11  C   UNL     1       2.164   6.631  -5.238  0.00  0.00    +0.137 C 
ATOM     12  C   UNL     1       2.007   3.745  -6.405  0.00  0.00    +0.024 C 
ATOM     13  C   UNL     1       1.159   5.241  -8.568  0.00  0.00    +0.060 C 
ENDBRANCH   1   2
BRANCH   1  15
ATOM     14  O   UNL     1       2.823   6.531 -11.621  0.00  0.00    -0.245 OA
ATOM     15  C   UNL     1       3.265   6.012 -11.255  0.00  0.00    +0.343 C 
BRANCH  15  16
ATOM     16  C   UNL     1       4.413   5.570 -12.052  0.00  0.00    +0.096 A 
ATOM     17  C   UNL     1       5.708   5.550 -11.548  0.00  0.00    +0.025 A 
ATOM     18  C   UNL     1       6.618   5.267 -12.544  0.00  0.00    +0.082 A 
ATOM     19  C   UNL     1       7.930   5.535 -12.258  0.00  0.00    +0.019 A 
ATOM     20  C   UNL     1       8.326   6.201 -11.105  0.00  0.00    +0.002 A 
ATOM     21  C   UNL     1       7.428   6.427 -10.093  0.00  0.00    +0.000 A 
ATOM     22  N   UNL     1       5.867   4.978 -13.620  0.00  0.00    -0.244 NA
ATOM     23  C   UNL     1       6.122   6.078 -10.335  0.00  0.00    +0.002 A 
ATOM     24  C   UNL     1       4.553   5.196 -13.362  0.00  0.00    +0.105 A 
ENDBRANCH  15  16
ENDBRANCH   1  15
TORSDOF 3
ENDMDL
MODEL 2
REMARK VINA RESULT:      -8.3      1.931      2.501
REMARK  Name = 
REMARK  3 active torsions:
REMARK  status: ('A' for Active; 'I' for Inactive)
REMARK    1  A    between atoms: C_2  and  O_3
REMARK    2  A    between atoms: C_2  and  C_16
REMARK    3  A    between atoms: O_3  and  C_4
REMARK                            x       y       z     vdW  Elec       q    Type
REMARK                         _______ _______ _______ _____ _____    ______ ____
ROOT
ATOM      1  O   UNL     1       3.130   5.845  -7.973  0.00  0.00    -0.449 OA
ENDROOT
BRANCH   1   2
ATOM      2  C   UNL     1       3.228   6.691  -6.688  0.00  0.00    +0.172 C 
ATOM      3  C   UNL     1       4.524   5.852  -6.172  0.00  0.00    +0.060 C 
ATOM      4  C   UNL     1       4.683   6.265  -4.608  0.00  0.00    +0.062 C 
ATOM      5  N   UNL     1       3.451   7.216  -4.416  0.00  0.00    -0.269 NA
ATOM      6  C   UNL     1       1.996   6.722  -4.654  0.00  0.00    +0.062 C 
ATOM      7  C   UNL     1       1.776   5.467  -3.535  0.00  0.00    +0.024 C 
ATOM      8  C   UNL     1       3.252   6.055  -3.632  0.00  0.00    +0.062 C 
ATOM      9  C   UNL     1       3.639   6.365  -2.107  0.00  0.00    +0.166 C 
ATOM     10  O   UNL     1       2.780   6.222  -1.280  0.00  0.00    -0.295 OA
ATOM     11  C   UNL     1       3.578   7.672  -2.986  0.00  0.00    +0.137 C 
ATOM     12  C   UNL     1       4.142   4.778  -4.000  0.00  0.00    +0.024 C 
ATOM     13  C   UNL     1       2.282   5.640  -5.854  0.00  0.00    +0.060 C 
ENDBRANCH   1   2
BRANCH   1  15
ATOM     14  O   UNL     1       3.028   7.314  -9.129  0.00  0.00    -0.245 OA
ATOM     15  C   UNL     1       3.471   6.687  -9.039  0.00  0.00    +0.343 C 
BRANCH  15  16
ATOM     16  C   UNL     1       4.024   6.187 -10.302  0.00  0.00    +0.096 A 
ATOM     17  C   UNL     1       5.325   5.711 -10.409  0.00  0.00    +0.025 A 
ATOM     18  C   UNL     1       5.652   5.472 -11.728  0.00  0.00    +0.082 A 
ATOM     19  C   UNL     1       6.985   5.316 -12.000  0.00  0.00    +0.019 A 
ATOM     20  C   UNL     1       7.976   5.541 -11.054  0.00  0.00    +0.002 A 
ATOM     21  C   UNL     1       7.646   5.719  -9.734  0.00  0.00    +0.000 A 
ATOM     22  N   UNL     1       4.508   5.669 -12.403  0.00  0.00    -0.244 NA
ATOM     23  C   UNL     1       6.308   5.787  -9.435  0.00  0.00    +0.002 A 
ATOM     24  C   UNL     1       3.537   6.139 -11.581  0.00  0.00    +0.105 A 
ENDBRANCH  15  16
ENDBRANCH   1  15
TORSDOF 3
ENDMDL
MODEL 3
REMARK VINA RESULT:      -8.2      1.993      2.944
REMARK  Name = 
REMARK  3 active torsions:
REMARK  status: ('A' for Active; 'I' for Inactive)
REMARK    1  A    between atoms: C_2  and  O_3
REMARK    2  A    between atoms: C_2  and  C_16
REMARK    3  A    between atoms: O_3  and  C_4
REMARK                            x       y       z     vdW  Elec       q    Type
REMARK                         _______ _______ _______ _____ _____    ______ ____
ROOT
ATOM      1  O   UNL     1       2.630   5.382  -8.183  0.00  0.00    -0.449 OA
ENDROOT
BRANCH   1   2
ATOM      2  C   UNL     1       3.260   4.964  -6.839  0.00  0.00    +0.172 C 
ATOM      3  C   UNL     1       1.860   5.207  -6.046  0.00  0.00    +0.060 C 
ATOM      4  C   UNL     1       2.273   5.201  -4.474  0.00  0.00    +0.062 C 
ATOM      5  N   UNL     1       3.828   5.021  -4.567  0.00  0.00    -0.269 NA
ATOM      6  C   UNL     1       4.724   6.052  -5.312  0.00  0.00    +0.062 C 
ATOM      7  C   UNL     1       4.486   7.512  -4.482  0.00  0.00    +0.024 C 
ATOM      8  C   UNL     1       3.552   6.303  -4.035  0.00  0.00    +0.062 C 
ATOM      9  C   UNL     1       3.714   6.267  -2.439  0.00  0.00    +0.166 C 
ATOM     10  O   UNL     1       4.524   7.007  -1.950  0.00  0.00    -0.295 OA
ATOM     11  C   UNL     1       4.262   4.958  -3.126  0.00  0.00    +0.137 C 
ATOM     12  C   UNL     1       2.073   6.869  -4.255  0.00  0.00    +0.024 C 
ATOM     13  C   UNL     1       3.670   6.514  -6.482  0.00  0.00    +0.060 C 
ENDBRANCH   1   2
BRANCH   1  15
ATOM     14  O   UNL     1       3.628   3.995  -8.946  0.00  0.00    -0.245 OA
ATOM     15  C   UNL     1       3.272   4.641  -9.180  0.00  0.00    +0.343 C 
BRANCH  15  16
ATOM     16  C   UNL     1       3.915   5.261 -10.343  0.00  0.00    +0.096 A 
ATOM     17  C   UNL     1       5.275   5.547 -10.380  0.00  0.00    +0.025 A 
ATOM     18  C   UNL     1       5.591   6.284 -11.502  0.00  0.00    +0.082 A 
ATOM     19  C   UNL     1       6.812   6.902 -11.494  0.00  0.00    +0.019 A 
ATOM     20  C   UNL     1       7.631   6.934 -10.372  0.00  0.00    +0.002 A 
ATOM     21  C   UNL     1       7.341   6.153  -9.281  0.00  0.00    +0.000 A 
ATOM     22  N   UNL     1       4.453   6.324 -12.214  0.00  0.00    -0.244 NA
ATOM     23  C   UNL     1       6.159   5.456  -9.316  0.00  0.00    +0.002 A 
ATOM     24  C   UNL     1       3.431   5.760 -11.523  0.00  0.00    +0.105 A 
ENDBRANCH  15  16
ENDBRANCH   1  15
TORSDOF 3
ENDMDL
MODEL 4
REMARK VINA RESULT:      -8.1      2.809      8.259
REMARK  Name = 
REMARK  3 active torsions:
REMARK  status: ('A' for Active; 'I' for Inactive)
REMARK    1  A    between atoms: C_2  and  O_3
REMARK    2  A    between atoms: C_2  and  C_16
REMARK    3  A    between atoms: O_3  and  C_4
REMARK                            x       y       z     vdW  Elec       q    Type
REMARK                         _______ _______ _______ _____ _____    ______ ____
ROOT
ATOM      1  O   UNL     1       2.655   6.009  -5.100  0.00  0.00    -0.449 OA
ENDROOT
BRANCH   1   2
ATOM      2  C   UNL     1       1.962   6.426  -6.413  0.00  0.00    +0.172 C 
ATOM      3  C   UNL     1       1.771   4.874  -6.866  0.00  0.00    +0.060 C 
ATOM      4  C   UNL     1       1.372   4.954  -8.440  0.00  0.00    +0.062 C 
ATOM      5  N   UNL     1       1.444   6.499  -8.697  0.00  0.00    -0.269 NA
ATOM      6  C   UNL     1       2.758   7.301  -8.476  0.00  0.00    +0.062 C 
ATOM      7  C   UNL     1       3.872   6.612  -9.554  0.00  0.00    +0.024 C 
ATOM      8  C   UNL     1       2.468   5.869  -9.442  0.00  0.00    +0.062 C 
ATOM      9  C   UNL     1       2.000   5.709 -10.967  0.00  0.00    +0.166 C 
ATOM     10  O   UNL     1       2.674   6.238 -11.810  0.00  0.00    -0.295 OA
ATOM     11  C   UNL     1       1.031   6.636 -10.138  0.00  0.00    +0.137 C 
ATOM     12  C   UNL     1       2.863   4.382  -9.007  0.00  0.00    +0.024 C 
ATOM     13  C   UNL     1       3.385   6.434  -7.231  0.00  0.00    +0.060 C 
ENDBRANCH   1   2
BRANCH   1  15
ATOM     14  O   UNL     1       2.343   7.152  -3.652  0.00  0.00    -0.245 OA
ATOM     15  C   UNL     1       1.952   6.622  -4.058  0.00  0.00    +0.343 C 
BRANCH  15  16
ATOM     16  C   UNL     1       0.937   5.924  -3.263  0.00  0.00    +0.096 A 
ATOM     17  C   UNL     1      -0.418   5.985  -3.565  0.00  0.00    +0.025 A 
ATOM     18  C   UNL     1      -1.169   5.395  -2.570  0.00  0.00    +0.082 A 
ATOM     19  C   UNL     1      -2.510   5.672  -2.580  0.00  0.00    +0.019 A 
ATOM     20  C   UNL     1      -3.076   6.613  -3.431  0.00  0.00    +0.002 A 
ATOM     21  C   UNL     1      -2.339   7.152  -4.455  0.00  0.00    +0.000 A 
ATOM     22  N   UNL     1      -0.265   4.854  -1.737  0.00  0.00    -0.244 NA
ATOM     23  C   UNL     1      -1.011   6.810  -4.508  0.00  0.00    +0.002 A 
ATOM     24  C   UNL     1       0.995   5.194  -2.106  0.00  0.00    +0.105 A 
ENDBRANCH  15  16
ENDBRANCH   1  15
TORSDOF 3
ENDMDL
MODEL 5
REMARK VINA RESULT:      -7.9      3.125      5.144
REMARK  Name = 
REMARK  3 active torsions:
REMARK  status: ('A' for Active; 'I' for Inactive)
REMARK    1  A    between atoms: C_2  and  O_3
REMARK    2  A    between atoms: C_2  and  C_16
REMARK    3  A    between atoms: O_3  and  C_4
REMARK                            x       y       z     vdW  Elec       q    Type
REMARK                         _______ _______ _______ _____ _____    ______ ____
ROOT
ATOM      1  O   UNL     1       1.637   5.497  -6.009  0.00  0.00    -0.449 OA
ENDROOT
BRANCH   1   2
ATOM      2  C   UNL     1       0.321   5.077  -5.324  0.00  0.00    +0.172 C 
ATOM      3  C   UNL     1      -0.492   6.306  -6.014  0.00  0.00    +0.060 C 
ATOM      4  C   UNL     1      -1.895   6.380  -5.195  0.00  0.00    +0.062 C 
ATOM      5  N   UNL     1      -1.686   5.251  -4.127  0.00  0.00    -0.269 NA
ATOM      6  C   UNL     1      -0.512   5.303  -3.108  0.00  0.00    +0.062 C 
ATOM      7  C   UNL     1      -0.773   6.723  -2.219  0.00  0.00    +0.024 C 
ATOM      8  C   UNL     1      -1.741   6.499  -3.462  0.00  0.00    +0.062 C 
ATOM      9  C   UNL     1      -3.207   6.712  -2.846  0.00  0.00    +0.166 C 
ATOM     10  O   UNL     1      -3.289   6.864  -1.657  0.00  0.00    -0.295 OA
ATOM     11  C   UNL     1      -2.986   5.241  -3.367  0.00  0.00    +0.137 C 
ATOM     12  C   UNL     1      -1.511   7.803  -4.359  0.00  0.00    +0.024 C 
ATOM     13  C   UNL     1       0.608   6.058  -4.039  0.00  0.00    +0.060 C 
ENDBRANCH   1   2
BRANCH   1  15
ATOM     14  O   UNL     1       2.057   3.820  -6.725  0.00  0.00    -0.245 OA
ATOM     15  C   UNL     1       1.911   4.533  -6.986  0.00  0.00    +0.343 C 
BRANCH  15  16
ATOM     16  C   UNL     1       2.612   4.843  -8.236  0.00  0.00    +0.096 A 
ATOM     17  C   UNL     1       2.029   5.587  -9.253  0.00  0.00    +0.025 A 
ATOM     18  C   UNL     1       2.823   5.583 -10.381  0.00  0.00    +0.082 A 
ATOM     19  C   UNL     1       2.225   5.995 -11.542  0.00  0.00    +0.019 A 
ATOM     20  C   UNL     1       0.863   6.251 -11.636  0.00  0.00    +0.002 A 
ATOM     21  C   UNL     1       0.090   6.311 -10.504  0.00  0.00    +0.000 A 
ATOM     22  N   UNL     1       3.949   4.957 -10.002  0.00  0.00    -0.244 NA
ATOM     23  C   UNL     1       0.703   5.986  -9.319  0.00  0.00    +0.002 A 
ATOM     24  C   UNL     1       3.828   4.468  -8.742  0.00  0.00    +0.105 A 
ENDBRANCH  15  16
ENDBRANCH   1  15
TORSDOF 3
ENDMDL
MODEL 6
REMARK VINA RESULT:      -7.7      1.790      2.524
REMARK  Name = 
REMARK  3 active torsions:
REMARK  status: ('A' for Active; 'I' for Inactive)
REMARK    1  A    between atoms: C_2  and  O_3
REMARK    2  A    between atoms: C_2  and  C_16
REMARK    3  A    between atoms: O_3  and  C_4
REMARK                            x       y       z     vdW  Elec       q    Type
REMARK                         _______ _______ _______ _____ _____    ______ ____
ROOT
ATOM      1  O   UNL     1       3.632   4.887  -7.687  0.00  0.00    -0.449 OA
ENDROOT
BRANCH   1   2
ATOM      2  C   UNL     1       2.148   5.176  -7.388  0.00  0.00    +0.172 C 
ATOM      3  C   UNL     1       2.480   6.708  -6.950  0.00  0.00    +0.060 C 
ATOM      4  C   UNL     1       1.131   7.223  -6.203  0.00  0.00    +0.062 C 
ATOM      5  N   UNL     1       0.242   5.932  -6.253  0.00  0.00    -0.269 NA
ATOM      6  C   UNL     1       0.701   4.602  -5.589  0.00  0.00    +0.062 C 
ATOM      7  C   UNL     1       0.866   4.974  -3.943  0.00  0.00    +0.024 C 
ATOM      8  C   UNL     1       0.565   6.208  -4.903  0.00  0.00    +0.062 C 
ATOM      9  C   UNL     1      -0.672   6.946  -4.196  0.00  0.00    +0.166 C 
ATOM     10  O   UNL     1      -1.162   6.410  -3.240  0.00  0.00    -0.295 OA
ATOM     11  C   UNL     1      -1.050   6.370  -5.614  0.00  0.00    +0.137 C 
ATOM     12  C   UNL     1       1.796   7.195  -4.645  0.00  0.00    +0.024 C 
ATOM     13  C   UNL     1       2.320   4.745  -5.812  0.00  0.00    +0.060 C 
ENDBRANCH   1   2
BRANCH   1  15
ATOM     14  O   UNL     1       3.906   3.647  -9.062  0.00  0.00    -0.245 OA
ATOM     15  C   UNL     1       3.692   4.386  -8.992  0.00  0.00    +0.343 C 
BRANCH  15  16
ATOM     16  C   UNL     1       4.082   5.208 -10.143  0.00  0.00    +0.096 A 
ATOM     17  C   UNL     1       5.388   5.638 -10.343  0.00  0.00    +0.025 A 
ATOM     18  C   UNL     1       5.454   6.535 -11.388  0.00  0.00    +0.082 A 
ATOM     19  C   UNL     1       6.604   7.272 -11.479  0.00  0.00    +0.019 A 
ATOM     20  C   UNL     1       7.589   7.253 -10.500  0.00  0.00    +0.002 A 
ATOM     21  C   UNL     1       7.548   6.319  -9.495  0.00  0.00    +0.000 A 
ATOM     22  N   UNL     1       4.217   6.542 -11.910  0.00  0.00    -0.244 NA
ATOM     23  C   UNL     1       6.438   5.511  -9.448  0.00  0.00    +0.002 A 
ATOM     24  C   UNL     1       3.372   5.793 -11.157  0.00  0.00    +0.105 A 
ENDBRANCH  15  16
ENDBRANCH   1  15
TORSDOF 3
ENDMDL
MODEL 7
REMARK VINA RESULT:      -7.7      3.217      7.931
REMARK  Name = 
REMARK  3 active torsions:
REMARK  status: ('A' for Active; 'I' for Inactive)
REMARK    1  A    between atoms: C_2  and  O_3
REMARK    2  A    between atoms: C_2  and  C_16
REMARK    3  A    between atoms: O_3  and  C_4
REMARK                            x       y       z     vdW  Elec       q    Type
REMARK                         _______ _______ _______ _____ _____    ______ ____
ROOT
ATOM      1  O   UNL     1       1.756   5.981  -8.257  0.00  0.00    -0.449 OA
ENDROOT
BRANCH   1   2
ATOM      2  C   UNL     1       1.507   6.726  -9.584  0.00  0.00    +0.172 C 
ATOM      3  C   UNL     1       0.187   5.829  -9.900  0.00  0.00    +0.060 C 
ATOM      4  C   UNL     1      -0.141   6.120 -11.466  0.00  0.00    +0.062 C 
ATOM      5  N   UNL     1       1.040   7.076 -11.853  0.00  0.00    -0.269 NA
ATOM      6  C   UNL     1       2.524   6.627 -11.731  0.00  0.00    +0.062 C 
ATOM      7  C   UNL     1       2.661   5.295 -12.772  0.00  0.00    +0.024 C 
ATOM      8  C   UNL     1       1.188   5.862 -12.566  0.00  0.00    +0.062 C 
ATOM      9  C   UNL     1       0.640   6.050 -14.062  0.00  0.00    +0.166 C 
ATOM     10  O   UNL     1       1.413   5.861 -14.961  0.00  0.00    -0.295 OA
ATOM     11  C   UNL     1       0.757   7.421 -13.291  0.00  0.00    +0.137 C 
ATOM     12  C   UNL     1       0.372   4.602 -12.016  0.00  0.00    +0.024 C 
ATOM     13  C   UNL     1       2.389   5.632 -10.432  0.00  0.00    +0.060 C 
ENDBRANCH   1   2
BRANCH   1  15
ATOM     14  O   UNL     1       1.965   7.544  -7.248  0.00  0.00    -0.245 OA
ATOM     15  C   UNL     1       1.534   6.902  -7.227  0.00  0.00    +0.343 C 
BRANCH  15  16
ATOM     16  C   UNL     1       1.169   6.500  -5.865  0.00  0.00    +0.096 A 
ATOM     17  C   UNL     1      -0.060   5.928  -5.561  0.00  0.00    +0.025 A 
ATOM     18  C   UNL     1      -0.222   5.810  -4.196  0.00  0.00    +0.082 A 
ATOM     19  C   UNL     1      -1.497   5.571  -3.758  0.00  0.00    +0.019 A 
ATOM     20  C   UNL     1      -2.600   5.602  -4.601  0.00  0.00    +0.002 A 
ATOM     21  C   UNL     1      -2.430   5.661  -5.962  0.00  0.00    +0.000 A 
ATOM     22  N   UNL     1       0.962   6.179  -3.680  0.00  0.00    -0.244 NA
ATOM     23  C   UNL     1      -1.143   5.811  -6.418  0.00  0.00    +0.002 A 
ATOM     24  C   UNL     1       1.790   6.636  -4.652  0.00  0.00    +0.105 A 
ENDBRANCH  15  16
ENDBRANCH   1  15
TORSDOF 3
ENDMDL
MODEL 8
REMARK VINA RESULT:      -7.6      2.051      7.681
REMARK  Name = 
REMARK  3 active torsions:
REMARK  status: ('A' for Active; 'I' for Inactive)
REMARK    1  A    between atoms: C_2  and  O_3
REMARK    2  A    between atoms: C_2  and  C_16
REMARK    3  A    between atoms: O_3  and  C_4
REMARK                            x       y       z     vdW  Elec       q    Type
REMARK                         _______ _______ _______ _____ _____    ______ ____
ROOT
ATOM      1  O   UNL     1       2.495   5.443  -8.912  0.00  0.00    -0.449 OA
ENDROOT
BRANCH   1   2
ATOM      2  C   UNL     1       3.513   6.440  -9.500  0.00  0.00    +0.172 C 
ATOM      3  C   UNL     1       3.222   5.925 -11.016  0.00  0.00    +0.060 C 
ATOM      4  C   UNL     1       4.438   6.544 -11.900  0.00  0.00    +0.062 C 
ATOM      5  N   UNL     1       5.283   7.267 -10.794  0.00  0.00    -0.269 NA
ATOM      6  C   UNL     1       5.889   6.486  -9.593  0.00  0.00    +0.062 C 
ATOM      7  C   UNL     1       6.939   5.356 -10.297  0.00  0.00    +0.024 C 
ATOM      8  C   UNL     1       6.042   6.191 -11.312  0.00  0.00    +0.062 C 
ATOM      9  C   UNL     1       7.098   6.748 -12.383  0.00  0.00    +0.166 C 
ATOM     10  O   UNL     1       8.262   6.549 -12.165  0.00  0.00    -0.295 OA
ATOM     11  C   UNL     1       6.404   7.907 -11.569  0.00  0.00    +0.137 C 
ATOM     12  C   UNL     1       5.239   5.067 -12.118  0.00  0.00    +0.024 C 
ATOM     13  C   UNL     1       4.729   5.339  -9.416  0.00  0.00    +0.060 C 
ENDBRANCH   1   2
BRANCH   1  15
ATOM     14  O   UNL     1       1.360   6.895  -8.586  0.00  0.00    -0.245 OA
ATOM     15  C   UNL     1       1.505   6.201  -8.276  0.00  0.00    +0.343 C 
BRANCH  15  16
ATOM     16  C   UNL     1       1.276   6.158  -6.829  0.00  0.00    +0.096 A 
ATOM     17  C   UNL     1       0.074   5.733  -6.276  0.00  0.00    +0.025 A 
ATOM     18  C   UNL     1       0.055   5.956  -4.915  0.00  0.00    +0.082 A 
ATOM     19  C   UNL     1      -1.172   5.889  -4.310  0.00  0.00    +0.019 A 
ATOM     20  C   UNL     1      -2.356   5.765  -5.025  0.00  0.00    +0.002 A 
ATOM     21  C   UNL     1      -2.329   5.485  -6.368  0.00  0.00    +0.000 A 
ATOM     22  N   UNL     1       1.293   6.384  -4.622  0.00  0.00    -0.244 NA
ATOM     23  C   UNL     1      -1.095   5.461  -6.969  0.00  0.00    +0.002 A 
ATOM     24  C   UNL     1       2.024   6.555  -5.752  0.00  0.00    +0.105 A 
ENDBRANCH  15  16
ENDBRANCH   1  15
TORSDOF 3
ENDMDL
MODEL 9
REMARK VINA RESULT:      -7.5      5.951      8.247
REMARK  Name = 
REMARK  3 active torsions:
REMARK  status: ('A' for Active; 'I' for Inactive)
REMARK    1  A    between atoms: C_2  and  O_3
REMARK    2  A    between atoms: C_2  and  C_16
REMARK    3  A    between atoms: O_3  and  C_4
REMARK                            x       y       z     vdW  Elec       q    Type
REMARK                         _______ _______ _______ _____ _____    ______ ____
ROOT
ATOM      1  O   UNL     1       2.186   5.728  -5.234  0.00  0.00    -0.449 OA
ENDROOT
BRANCH   1   2
ATOM      2  C   UNL     1       2.039   6.270  -3.798  0.00  0.00    +0.172 C 
ATOM      3  C   UNL     1       3.268   7.315  -4.010  0.00  0.00    +0.060 C 
ATOM      4  C   UNL     1       3.635   7.827  -2.511  0.00  0.00    +0.062 C 
ATOM      5  N   UNL     1       2.634   6.984  -1.647  0.00  0.00    -0.269 NA
ATOM      6  C   UNL     1       2.656   5.429  -1.661  0.00  0.00    +0.062 C 
ATOM      7  C   UNL     1       4.200   5.013  -1.097  0.00  0.00    +0.024 C 
ATOM      8  C   UNL     1       3.952   6.565  -1.350  0.00  0.00    +0.062 C 
ATOM      9  C   UNL     1       4.438   7.255   0.014  0.00  0.00    +0.166 C 
ATOM     10  O   UNL     1       4.750   6.529   0.919  0.00  0.00    -0.295 OA
ATOM     11  C   UNL     1       2.896   7.458  -0.242  0.00  0.00    +0.137 C 
ATOM     12  C   UNL     1       5.087   6.962  -2.403  0.00  0.00    +0.024 C 
ATOM     13  C   UNL     1       3.128   5.189  -3.215  0.00  0.00    +0.060 C 
ENDBRANCH   1   2
BRANCH   1  15
ATOM     14  O   UNL     1       1.244   4.243  -5.874  0.00  0.00    -0.245 OA
ATOM     15  C   UNL     1       1.097   4.880  -5.461  0.00  0.00    +0.343 C 
BRANCH  15  16
ATOM     16  C   UNL     1      -0.273   5.374  -5.633  0.00  0.00    +0.096 A 
ATOM     17  C   UNL     1      -1.083   5.717  -4.557  0.00  0.00    +0.025 A 
ATOM     18  C   UNL     1      -2.371   5.977  -4.976  0.00  0.00    +0.082 A 
ATOM     19  C   UNL     1      -3.330   6.005  -3.999  0.00  0.00    +0.019 A 
ATOM     20  C   UNL     1      -3.073   5.638  -2.684  0.00  0.00    +0.002 A 
ATOM     21  C   UNL     1      -1.784   5.437  -2.260  0.00  0.00    +0.000 A 
ATOM     22  N   UNL     1      -2.309   5.930  -6.317  0.00  0.00    -0.244 NA
ATOM     23  C   UNL     1      -0.802   5.496  -3.218  0.00  0.00    +0.002 A 
ATOM     24  C   UNL     1      -1.080   5.528  -6.728  0.00  0.00    +0.105 A 
ENDBRANCH  15  16
ENDBRANCH   1  15
TORSDOF 3
ENDMDL
