MODEL 1
REMARK VINA RESULT:      -7.0      0.000      0.000
REMARK  Name = 
REMARK  6 active torsions:
REMARK  status: ('A' for Active; 'I' for Inactive)
REMARK    1  A    between atoms: C_2  and  N_3
REMARK    2  A    between atoms: N_3  and  C_4
REMARK    3  A    between atoms: C_6  and  C_8
REMARK    4  A    between atoms: C_8  and  C_9
REMARK    5  A    between atoms: C_11  and  C_12
REMARK    6  A    between atoms: C_18  and  N_19
REMARK                            x       y       z     vdW  Elec       q    Type
REMARK                         _______ _______ _______ _____ _____    ______ ____
ROOT
ATOM      1  C   UNL     1       3.146   5.639  -7.210  0.00  0.00    +0.122 C 
ATOM      2  C   UNL     1       2.592   4.847  -6.291  0.00  0.00    +0.015 C 
ENDROOT
BRANCH   2   3
ATOM      3  C   UNL     1       1.569   5.280  -5.370  0.00  0.00    +0.010 A 
ATOM      4  C   UNL     1       0.248   5.130  -5.772  0.00  0.00    +0.079 A 
ATOM      5  C   UNL     1      -0.757   5.501  -4.923  0.00  0.00    +0.332 A 
ATOM      6  C   UNL     1      -0.563   5.509  -3.553  0.00  0.00    +0.303 A 
ATOM      7  O   UNL     1      -1.622   5.160  -2.710  0.00  0.00    -0.277 OA
ATOM      8  C   UNL     1       0.752   5.509  -3.104  0.00  0.00    +0.241 A 
ATOM      9  O   UNL     1       0.981   5.509  -1.739  0.00  0.00    -0.283 OA
ATOM     10  C   UNL     1       1.792   5.508  -4.025  0.00  0.00    +0.046 A 
BRANCH   5  11
ATOM     11  N   UNL     1      -2.033   5.918  -5.423  0.00  0.00    +0.084 N 
ATOM     12  O   UNL     1      -2.444   7.229  -5.286  0.00  0.00    -0.576 OA
ATOM     13  O   UNL     1      -2.509   5.323  -6.423  0.00  0.00    +0.042 OA
ENDBRANCH   5  11
ENDBRANCH   2   3
BRANCH   1  15
ATOM     14  N   UNL     1       4.624   5.488  -9.270  0.00  0.00    -0.276 N 
ATOM     15  C   UNL     1       3.617   4.940  -8.412  0.00  0.00    +0.259 C 
ATOM     16  O   UNL     1       2.919   3.951  -8.772  0.00  0.00    -0.269 OA
BRANCH  14  18
ATOM     17  C   UNL     1       6.925   6.012  -9.946  0.00  0.00    +0.023 C 
ATOM     18  C   UNL     1       6.032   5.436  -8.883  0.00  0.00    +0.094 C 
ENDBRANCH  14  18
BRANCH  14  19
ATOM     19  C   UNL     1       4.381   5.313 -10.700  0.00  0.00    +0.094 C 
ATOM     20  C   UNL     1       3.427   6.329 -11.252  0.00  0.00    +0.023 C 
ENDBRANCH  14  19
ENDBRANCH   1  15
BRANCH   1  21
ATOM     21  C   UNL     1       2.570   6.960  -7.335  0.00  0.00    +0.105 C 
ATOM     22  N   UNL     1       2.108   7.992  -7.630  0.00  0.00    -0.191 NA
ENDBRANCH   1  21
TORSDOF 6
ENDMDL
MODEL 2
REMARK VINA RESULT:      -7.0      2.097      3.038
REMARK  Name = 
REMARK  6 active torsions:
REMARK  status: ('A' for Active; 'I' for Inactive)
REMARK    1  A    between atoms: C_2  and  N_3
REMARK    2  A    between atoms: N_3  and  C_4
REMARK    3  A    between atoms: C_6  and  C_8
REMARK    4  A    between atoms: C_8  and  C_9
REMARK    5  A    between atoms: C_11  and  C_12
REMARK    6  A    between atoms: C_18  and  N_19
REMARK                            x       y       z     vdW  Elec       q    Type
REMARK                         _______ _______ _______ _____ _____    ______ ____
ROOT
ATOM      1  C   UNL     1       1.125   6.240  -7.153  0.00  0.00    +0.122 C 
ATOM      2  C   UNL     1       0.724   7.065  -6.185  0.00  0.00    +0.015 C 
ENDROOT
BRANCH   2   3
ATOM      3  C   UNL     1       0.607   6.679  -4.799  0.00  0.00    +0.010 A 
ATOM      4  C   UNL     1      -0.586   6.090  -4.402  0.00  0.00    +0.079 A 
ATOM      5  C   UNL     1      -0.734   5.683  -3.105  0.00  0.00    +0.332 A 
ATOM      6  C   UNL     1       0.366   5.345  -2.338  0.00  0.00    +0.303 A 
ATOM      7  O   UNL     1       0.255   4.313  -1.401  0.00  0.00    -0.277 OA
ATOM      8  C   UNL     1       1.605   5.790  -2.782  0.00  0.00    +0.241 A 
ATOM      9  O   UNL     1       2.727   5.462  -2.041  0.00  0.00    -0.283 OA
ATOM     10  C   UNL     1       1.686   6.546  -3.946  0.00  0.00    +0.046 A 
BRANCH   5  11
ATOM     11  N   UNL     1      -2.026   5.619  -2.492  0.00  0.00    +0.084 N 
ATOM     12  O   UNL     1      -2.710   6.778  -2.177  0.00  0.00    -0.576 OA
ATOM     13  O   UNL     1      -2.762   4.631  -2.742  0.00  0.00    +0.042 OA
ENDBRANCH   5  11
ENDBRANCH   2   3
BRANCH   1  15
ATOM     14  N   UNL     1       2.244   6.182  -9.432  0.00  0.00    -0.276 N 
ATOM     15  C   UNL     1       1.799   6.901  -8.276  0.00  0.00    +0.259 C 
ATOM     16  O   UNL     1       2.174   8.087  -8.061  0.00  0.00    -0.269 OA
BRANCH  14  18
ATOM     17  C   UNL     1       0.288   6.850 -10.757  0.00  0.00    +0.023 C 
ATOM     18  C   UNL     1       1.288   5.769 -10.458  0.00  0.00    +0.094 C 
ENDBRANCH  14  18
BRANCH  14  19
ATOM     19  C   UNL     1       3.550   6.587  -9.948  0.00  0.00    +0.094 C 
ATOM     20  C   UNL     1       4.682   5.874  -9.272  0.00  0.00    +0.023 C 
ENDBRANCH  14  19
ENDBRANCH   1  15
BRANCH   1  21
ATOM     21  C   UNL     1       1.574   4.933  -6.724  0.00  0.00    +0.105 C 
ATOM     22  N   UNL     1       2.095   3.913  -6.491  0.00  0.00    -0.191 NA
ENDBRANCH   1  21
TORSDOF 6
ENDMDL
MODEL 3
REMARK VINA RESULT:      -6.9      2.727      7.870
REMARK  Name = 
REMARK  6 active torsions:
REMARK  status: ('A' for Active; 'I' for Inactive)
REMARK    1  A    between atoms: C_2  and  N_3
REMARK    2  A    between atoms: N_3  and  C_4
REMARK    3  A    between atoms: C_6  and  C_8
REMARK    4  A    between atoms: C_8  and  C_9
REMARK    5  A    between atoms: C_11  and  C_12
REMARK    6  A    between atoms: C_18  and  N_19
REMARK                            x       y       z     vdW  Elec       q    Type
REMARK                         _______ _______ _______ _____ _____    ______ ____
ROOT
ATOM      1  C   UNL     1       1.606   5.633  -8.253  0.00  0.00    +0.122 C 
ATOM      2  C   UNL     1       2.332   4.865  -9.066  0.00  0.00    +0.015 C 
ENDROOT
BRANCH   2   3
ATOM      3  C   UNL     1       3.360   5.373  -9.943  0.00  0.00    +0.010 A 
ATOM      4  C   UNL     1       4.678   5.215  -9.535  0.00  0.00    +0.079 A 
ATOM      5  C   UNL     1       5.688   5.655 -10.344  0.00  0.00    +0.332 A 
ATOM      6  C   UNL     1       5.509   5.753 -11.713  0.00  0.00    +0.303 A 
ATOM      7  O   UNL     1       6.583   5.475 -12.564  0.00  0.00    -0.277 OA
ATOM      8  C   UNL     1       4.199   5.764 -12.178  0.00  0.00    +0.241 A 
ATOM      9  O   UNL     1       3.987   5.853 -13.543  0.00  0.00    -0.283 OA
ATOM     10  C   UNL     1       3.149   5.688 -11.272  0.00  0.00    +0.046 A 
BRANCH   5  11
ATOM     11  N   UNL     1       6.951   6.055  -9.802  0.00  0.00    +0.084 N 
ATOM     12  O   UNL     1       7.885   5.106  -9.432  0.00  0.00    -0.576 OA
ATOM     13  O   UNL     1       7.440   7.155 -10.164  0.00  0.00    +0.042 OA
ENDBRANCH   5  11
ENDBRANCH   2   3
BRANCH   1  15
ATOM     14  N   UNL     1      -0.011   5.408  -6.307  0.00  0.00    -0.276 N 
ATOM     15  C   UNL     1       1.136   4.959  -7.037  0.00  0.00    +0.259 C 
ATOM     16  O   UNL     1       1.935   4.115  -6.542  0.00  0.00    -0.269 OA
BRANCH  14  18
ATOM     17  C   UNL     1      -2.387   6.011  -6.165  0.00  0.00    +0.023 C 
ATOM     18  C   UNL     1      -1.357   5.117  -6.796  0.00  0.00    +0.094 C 
ENDBRANCH  14  18
BRANCH  14  19
ATOM     19  C   UNL     1       0.127   5.374  -4.853  0.00  0.00    +0.094 C 
ATOM     20  C   UNL     1       0.862   6.565  -4.315  0.00  0.00    +0.023 C 
ENDBRANCH  14  19
ENDBRANCH   1  15
BRANCH   1  21
ATOM     21  C   UNL     1       1.988   7.027  -8.190  0.00  0.00    +0.105 C 
ATOM     22  N   UNL     1       2.237   8.144  -7.952  0.00  0.00    -0.191 NA
ENDBRANCH   1  21
TORSDOF 6
ENDMDL
MODEL 4
REMARK VINA RESULT:      -6.8      2.428      3.977
REMARK  Name = 
REMARK  6 active torsions:
REMARK  status: ('A' for Active; 'I' for Inactive)
REMARK    1  A    between atoms: C_2  and  N_3
REMARK    2  A    between atoms: N_3  and  C_4
REMARK    3  A    between atoms: C_6  and  C_8
REMARK    4  A    between atoms: C_8  and  C_9
REMARK    5  A    between atoms: C_11  and  C_12
REMARK    6  A    between atoms: C_18  and  N_19
REMARK                            x       y       z     vdW  Elec       q    Type
REMARK                         _______ _______ _______ _____ _____    ______ ____
ROOT
ATOM      1  C   UNL     1       1.000   5.991  -6.650  0.00  0.00    +0.122 C 
ATOM      2  C   UNL     1       0.446   6.670  -5.645  0.00  0.00    +0.015 C 
ENDROOT
BRANCH   2   3
ATOM      3  C   UNL     1       0.113   6.085  -4.368  0.00  0.00    +0.010 A 
ATOM      4  C   UNL     1       0.951   6.374  -3.299  0.00  0.00    +0.079 A 
ATOM      5  C   UNL     1       0.662   5.865  -2.064  0.00  0.00    +0.332 A 
ATOM      6  C   UNL     1      -0.638   5.544  -1.715  0.00  0.00    +0.303 A 
ATOM      7  O   UNL     1      -1.061   5.739  -0.397  0.00  0.00    -0.277 OA
ATOM      8  C   UNL     1      -1.549   5.391  -2.753  0.00  0.00    +0.241 A 
ATOM      9  O   UNL     1      -2.860   5.076  -2.437  0.00  0.00    -0.283 OA
ATOM     10  C   UNL     1      -1.127   5.554  -4.067  0.00  0.00    +0.046 A 
BRANCH   5  11
ATOM     11  N   UNL     1       1.695   5.623  -1.102  0.00  0.00    +0.084 N 
ATOM     12  O   UNL     1       2.027   6.591  -0.175  0.00  0.00    -0.576 OA
ATOM     13  O   UNL     1       1.894   4.443  -0.718  0.00  0.00    +0.042 OA
ENDBRANCH   5  11
ENDBRANCH   2   3
BRANCH   1  15
ATOM     14  N   UNL     1       2.089   6.428  -8.902  0.00  0.00    -0.276 N 
ATOM     15  C   UNL     1       1.839   6.800  -7.542  0.00  0.00    +0.259 C 
ATOM     16  O   UNL     1       2.516   7.703  -6.977  0.00  0.00    -0.269 OA
BRANCH  14  18
ATOM     17  C   UNL     1       0.331   5.382 -10.258  0.00  0.00    +0.023 C 
ATOM     18  C   UNL     1       1.069   6.647  -9.926  0.00  0.00    +0.094 C 
ENDBRANCH  14  18
BRANCH  14  19
ATOM     19  C   UNL     1       3.461   6.636  -9.359  0.00  0.00    +0.094 C 
ATOM     20  C   UNL     1       4.205   5.348  -9.551  0.00  0.00    +0.023 C 
ENDBRANCH  14  19
ENDBRANCH   1  15
BRANCH   1  21
ATOM     21  C   UNL     1       1.383   4.627  -6.356  0.00  0.00    +0.105 C 
ATOM     22  N   UNL     1       1.844   3.560  -6.239  0.00  0.00    -0.191 NA
ENDBRANCH   1  21
TORSDOF 6
ENDMDL
MODEL 5
REMARK VINA RESULT:      -6.8      2.883      7.429
REMARK  Name = 
REMARK  6 active torsions:
REMARK  status: ('A' for Active; 'I' for Inactive)
REMARK    1  A    between atoms: C_2  and  N_3
REMARK    2  A    between atoms: N_3  and  C_4
REMARK    3  A    between atoms: C_6  and  C_8
REMARK    4  A    between atoms: C_8  and  C_9
REMARK    5  A    between atoms: C_11  and  C_12
REMARK    6  A    between atoms: C_18  and  N_19
REMARK                            x       y       z     vdW  Elec       q    Type
REMARK                         _______ _______ _______ _____ _____    ______ ____
ROOT
ATOM      1  C   UNL     1       2.431   5.839  -6.999  0.00  0.00    +0.122 C 
ATOM      2  C   UNL     1       3.152   5.013  -7.758  0.00  0.00    +0.015 C 
ENDROOT
BRANCH   2   3
ATOM      3  C   UNL     1       3.782   5.405  -8.996  0.00  0.00    +0.010 A 
ATOM      4  C   UNL     1       5.157   5.236  -9.090  0.00  0.00    +0.079 A 
ATOM      5  C   UNL     1       5.795   5.568 -10.252  0.00  0.00    +0.332 A 
ATOM      6  C   UNL     1       5.123   5.551 -11.461  0.00  0.00    +0.303 A 
ATOM      7  O   UNL     1       5.804   5.162 -12.618  0.00  0.00    -0.277 OA
ATOM      8  C   UNL     1       3.734   5.568 -11.409  0.00  0.00    +0.241 A 
ATOM      9  O   UNL     1       3.031   5.544 -12.601  0.00  0.00    -0.283 OA
ATOM     10  C   UNL     1       3.094   5.609 -10.176  0.00  0.00    +0.046 A 
BRANCH   5  11
ATOM     11  N   UNL     1       7.170   5.968 -10.255  0.00  0.00    +0.084 N 
ATOM     12  O   UNL     1       7.512   7.295 -10.432  0.00  0.00    -0.576 OA
ATOM     13  O   UNL     1       7.990   5.305  -9.571  0.00  0.00    +0.042 OA
ENDBRANCH   5  11
ENDBRANCH   2   3
BRANCH   1  15
ATOM     14  N   UNL     1       3.534   5.877  -4.711  0.00  0.00    -0.276 N 
ATOM     15  C   UNL     1       2.443   5.517  -5.567  0.00  0.00    +0.259 C 
ATOM     16  O   UNL     1       1.557   4.702  -5.187  0.00  0.00    -0.269 OA
BRANCH  14  18
ATOM     17  C   UNL     1       5.096   7.737  -4.355  0.00  0.00    +0.023 C 
ATOM     18  C   UNL     1       3.678   7.253  -4.238  0.00  0.00    +0.094 C 
ENDBRANCH  14  18
BRANCH  14  19
ATOM     19  C   UNL     1       3.919   4.858  -3.737  0.00  0.00    +0.094 C 
ATOM     20  C   UNL     1       3.470   5.191  -2.346  0.00  0.00    +0.023 C 
ENDBRANCH  14  19
ENDBRANCH   1  15
BRANCH   1  21
ATOM     21  C   UNL     1       2.410   7.224  -7.416  0.00  0.00    +0.105 C 
ATOM     22  N   UNL     1       2.209   8.305  -7.812  0.00  0.00    -0.191 NA
ENDBRANCH   1  21
TORSDOF 6
ENDMDL
MODEL 6
REMARK VINA RESULT:      -6.7      3.353      7.361
REMARK  Name = 
REMARK  6 active torsions:
REMARK  status: ('A' for Active; 'I' for Inactive)
REMARK    1  A    between atoms: C_2  and  N_3
REMARK    2  A    between atoms: N_3  and  C_4
REMARK    3  A    between atoms: C_6  and  C_8
REMARK    4  A    between atoms: C_8  and  C_9
REMARK    5  A    between atoms: C_11  and  C_12
REMARK    6  A    between atoms: C_18  and  N_19
REMARK                            x       y       z     vdW  Elec       q    Type
REMARK                         _______ _______ _______ _____ _____    ______ ____
ROOT
ATOM      1  C   UNL     1       3.689   5.969  -8.189  0.00  0.00    +0.122 C 
ATOM      2  C   UNL     1       3.948   6.623  -9.322  0.00  0.00    +0.015 C 
ENDROOT
BRANCH   2   3
ATOM      3  C   UNL     1       3.798   6.043 -10.635  0.00  0.00    +0.010 A 
ATOM      4  C   UNL     1       2.664   6.391 -11.358  0.00  0.00    +0.079 A 
ATOM      5  C   UNL     1       2.491   5.888 -12.617  0.00  0.00    +0.332 A 
ATOM      6  C   UNL     1       3.577   5.508 -13.385  0.00  0.00    +0.303 A 
ATOM      7  O   UNL     1       3.539   5.703 -14.769  0.00  0.00    -0.277 OA
ATOM      8  C   UNL     1       4.777   5.293 -12.717  0.00  0.00    +0.241 A 
ATOM      9  O   UNL     1       5.885   4.919 -13.458  0.00  0.00    -0.283 OA
ATOM     10  C   UNL     1       4.833   5.455 -11.338  0.00  0.00    +0.046 A 
BRANCH   5  11
ATOM     11  N   UNL     1       1.182   5.713 -13.171  0.00  0.00    +0.084 N 
ATOM     12  O   UNL     1       0.689   4.446 -13.413  0.00  0.00    -0.576 OA
ATOM     13  O   UNL     1       0.304   6.577 -12.922  0.00  0.00    +0.042 OA
ENDBRANCH   5  11
ENDBRANCH   2   3
BRANCH   1  15
ATOM     14  N   UNL     1       3.444   6.452  -5.707  0.00  0.00    -0.276 N 
ATOM     15  C   UNL     1       3.258   6.825  -7.077  0.00  0.00    +0.259 C 
ATOM     16  O   UNL     1       2.505   7.788  -7.395  0.00  0.00    -0.269 OA
BRANCH  14  18
ATOM     17  C   UNL     1       4.828   7.756  -4.155  0.00  0.00    +0.023 C 
ATOM     18  C   UNL     1       4.759   6.575  -5.081  0.00  0.00    +0.094 C 
ENDBRANCH  14  18
BRANCH  14  19
ATOM     19  C   UNL     1       2.320   6.757  -4.824  0.00  0.00    +0.094 C 
ATOM     20  C   UNL     1       1.317   5.644  -4.764  0.00  0.00    +0.023 C 
ENDBRANCH  14  19
ENDBRANCH   1  15
BRANCH   1  21
ATOM     21  C   UNL     1       3.112   4.652  -8.337  0.00  0.00    +0.105 C 
ATOM     22  N   UNL     1       2.572   3.617  -8.276  0.00  0.00    -0.191 NA
ENDBRANCH   1  21
TORSDOF 6
ENDMDL
MODEL 7
REMARK VINA RESULT:      -6.6      2.566      7.216
REMARK  Name = 
REMARK  6 active torsions:
REMARK  status: ('A' for Active; 'I' for Inactive)
REMARK    1  A    between atoms: C_2  and  N_3
REMARK    2  A    between atoms: N_3  and  C_4
REMARK    3  A    between atoms: C_6  and  C_8
REMARK    4  A    between atoms: C_8  and  C_9
REMARK    5  A    between atoms: C_11  and  C_12
REMARK    6  A    between atoms: C_18  and  N_19
REMARK                            x       y       z     vdW  Elec       q    Type
REMARK                         _______ _______ _______ _____ _____    ______ ____
ROOT
ATOM      1  C   UNL     1       1.814   5.377  -7.645  0.00  0.00    +0.122 C 
ATOM      2  C   UNL     1       2.608   4.460  -8.201  0.00  0.00    +0.015 C 
ENDROOT
BRANCH   2   3
ATOM      3  C   UNL     1       3.683   4.775  -9.111  0.00  0.00    +0.010 A 
ATOM      4  C   UNL     1       3.332   5.239 -10.372  0.00  0.00    +0.079 A 
ATOM      5  C   UNL     1       4.315   5.577 -11.259  0.00  0.00    +0.332 A 
ATOM      6  C   UNL     1       5.563   5.978 -10.818  0.00  0.00    +0.303 A 
ATOM      7  O   UNL     1       6.260   6.955 -11.533  0.00  0.00    -0.277 OA
ATOM      8  C   UNL     1       5.898   5.662  -9.506  0.00  0.00    +0.241 A 
ATOM      9  O   UNL     1       7.138   6.057  -9.031  0.00  0.00    -0.283 OA
ATOM     10  C   UNL     1       4.993   4.967  -8.715  0.00  0.00    +0.046 A 
BRANCH   5  11
ATOM     11  N   UNL     1       4.095   5.501 -12.672  0.00  0.00    +0.084 N 
ATOM     12  O   UNL     1       4.802   4.598 -13.443  0.00  0.00    -0.576 OA
ATOM     13  O   UNL     1       2.956   5.790 -13.120  0.00  0.00    +0.042 OA
ENDBRANCH   5  11
ENDBRANCH   2   3
BRANCH   1  15
ATOM     14  N   UNL     1       0.877   5.975  -5.361  0.00  0.00    -0.276 N 
ATOM     15  C   UNL     1       1.277   5.001  -6.332  0.00  0.00    +0.259 C 
ATOM     16  O   UNL     1       1.412   3.785  -6.018  0.00  0.00    -0.269 OA
BRANCH  14  18
ATOM     17  C   UNL     1      -1.489   5.763  -5.980  0.00  0.00    +0.023 C 
ATOM     18  C   UNL     1      -0.397   6.678  -5.503  0.00  0.00    +0.094 C 
ENDBRANCH  14  18
BRANCH  14  19
ATOM     19  C   UNL     1       1.249   5.665  -3.983  0.00  0.00    +0.094 C 
ATOM     20  C   UNL     1       2.306   6.586  -3.450  0.00  0.00    +0.023 C 
ENDBRANCH  14  19
ENDBRANCH   1  15
BRANCH   1  21
ATOM     21  C   UNL     1       2.165   6.756  -7.901  0.00  0.00    +0.105 C 
ATOM     22  N   UNL     1       2.308   7.913  -7.977  0.00  0.00    -0.191 NA
ENDBRANCH   1  21
TORSDOF 6
ENDMDL
MODEL 8
REMARK VINA RESULT:      -6.5      2.685      6.807
REMARK  Name = 
REMARK  6 active torsions:
REMARK  status: ('A' for Active; 'I' for Inactive)
REMARK    1  A    between atoms: C_2  and  N_3
REMARK    2  A    between atoms: N_3  and  C_4
REMARK    3  A    between atoms: C_6  and  C_8
REMARK    4  A    between atoms: C_8  and  C_9
REMARK    5  A    between atoms: C_11  and  C_12
REMARK    6  A    between atoms: C_18  and  N_19
REMARK                            x       y       z     vdW  Elec       q    Type
REMARK                         _______ _______ _______ _____ _____    ______ ____
ROOT
ATOM      1  C   UNL     1       1.586   6.010  -5.740  0.00  0.00    +0.122 C 
ATOM      2  C   UNL     1       1.756   6.824  -6.782  0.00  0.00    +0.015 C 
ENDROOT
BRANCH   2   3
ATOM      3  C   UNL     1       2.133   6.373  -8.100  0.00  0.00    +0.010 A 
ATOM      4  C   UNL     1       1.224   6.584  -9.129  0.00  0.00    +0.079 A 
ATOM      5  C   UNL     1       1.548   6.198 -10.399  0.00  0.00    +0.332 A 
ATOM      6  C   UNL     1       2.870   6.110 -10.799  0.00  0.00    +0.303 A 
ATOM      7  O   UNL     1       3.211   6.445 -12.113  0.00  0.00    -0.277 OA
ATOM      8  C   UNL     1       3.829   6.047  -9.795  0.00  0.00    +0.241 A 
ATOM      9  O   UNL     1       5.161   5.966 -10.162  0.00  0.00    -0.283 OA
ATOM     10  C   UNL     1       3.431   6.066  -8.464  0.00  0.00    +0.046 A 
BRANCH   5  11
ATOM     11  N   UNL     1       0.535   5.848 -11.348  0.00  0.00    +0.084 N 
ATOM     12  O   UNL     1       0.159   4.529 -11.515  0.00  0.00    -0.576 OA
ATOM     13  O   UNL     1      -0.370   6.684 -11.598  0.00  0.00    +0.042 OA
ENDBRANCH   5  11
ENDBRANCH   2   3
BRANCH   1  15
ATOM     14  N   UNL     1      -0.745   6.774  -5.082  0.00  0.00    -0.276 N 
ATOM     15  C   UNL     1       0.617   6.486  -4.746  0.00  0.00    +0.259 C 
ATOM     16  O   UNL     1       1.109   6.854  -3.643  0.00  0.00    -0.269 OA
BRANCH  14  18
ATOM     17  C   UNL     1      -1.965   5.405  -6.714  0.00  0.00    +0.023 C 
ATOM     18  C   UNL     1      -1.706   5.687  -5.261  0.00  0.00    +0.094 C 
ENDBRANCH  14  18
BRANCH  14  19
ATOM     19  C   UNL     1      -1.296   7.975  -4.457  0.00  0.00    +0.094 C 
ATOM     20  C   UNL     1      -2.258   7.659  -3.352  0.00  0.00    +0.023 C 
ENDBRANCH  14  19
ENDBRANCH   1  15
BRANCH   1  21
ATOM     21  C   UNL     1       1.676   4.594  -6.023  0.00  0.00    +0.105 C 
ATOM     22  N   UNL     1       1.944   3.481  -6.260  0.00  0.00    -0.191 NA
ENDBRANCH   1  21
TORSDOF 6
ENDMDL
MODEL 9
REMARK VINA RESULT:      -6.5      2.505      4.006
REMARK  Name = 
REMARK  6 active torsions:
REMARK  status: ('A' for Active; 'I' for Inactive)
REMARK    1  A    between atoms: C_2  and  N_3
REMARK    2  A    between atoms: N_3  and  C_4
REMARK    3  A    between atoms: C_6  and  C_8
REMARK    4  A    between atoms: C_8  and  C_9
REMARK    5  A    between atoms: C_11  and  C_12
REMARK    6  A    between atoms: C_18  and  N_19
REMARK                            x       y       z     vdW  Elec       q    Type
REMARK                         _______ _______ _______ _____ _____    ______ ____
ROOT
ATOM      1  C   UNL     1       2.735   6.065  -9.240  0.00  0.00    +0.122 C 
ATOM      2  C   UNL     1       2.801   6.977  -8.269  0.00  0.00    +0.015 C 
ENDROOT
BRANCH   2   3
ATOM      3  C   UNL     1       2.600   6.677  -6.871  0.00  0.00    +0.010 A 
ATOM      4  C   UNL     1       3.687   6.839  -6.023  0.00  0.00    +0.079 A 
ATOM      5  C   UNL     1       3.538   6.593  -4.687  0.00  0.00    +0.332 A 
ATOM      6  C   UNL     1       2.301   6.710  -4.078  0.00  0.00    +0.303 A 
ATOM      7  O   UNL     1       2.227   7.182  -2.764  0.00  0.00    -0.277 OA
ATOM      8  C   UNL     1       1.186   6.702  -4.908  0.00  0.00    +0.241 A 
ATOM      9  O   UNL     1      -0.065   6.825  -4.330  0.00  0.00    -0.283 OA
ATOM     10  C   UNL     1       1.355   6.571  -6.281  0.00  0.00    +0.046 A 
BRANCH   5  11
ATOM     11  N   UNL     1       4.647   6.182  -3.881  0.00  0.00    +0.084 N 
ATOM     12  O   UNL     1       5.435   7.121  -3.244  0.00  0.00    -0.576 OA
ATOM     13  O   UNL     1       4.587   5.070  -3.298  0.00  0.00    +0.042 OA
ENDBRANCH   5  11
ENDBRANCH   2   3
BRANCH   1  15
ATOM     14  N   UNL     1       4.972   6.639 -10.298  0.00  0.00    -0.276 N 
ATOM     15  C   UNL     1       3.572   6.360 -10.409  0.00  0.00    +0.259 C 
ATOM     16  O   UNL     1       2.944   6.588 -11.481  0.00  0.00    -0.269 OA
BRANCH  14  18
ATOM     17  C   UNL     1       6.183   5.307  -8.629  0.00  0.00    +0.023 C 
ATOM     18  C   UNL     1       5.927   5.552 -10.089  0.00  0.00    +0.094 C 
ENDBRANCH  14  18
BRANCH  14  19
ATOM     19  C   UNL     1       5.459   7.718 -11.155  0.00  0.00    +0.094 C 
ATOM     20  C   UNL     1       6.948   7.874 -11.095  0.00  0.00    +0.023 C 
ENDBRANCH  14  19
ENDBRANCH   1  15
BRANCH   1  21
ATOM     21  C   UNL     1       2.572   4.694  -8.810  0.00  0.00    +0.105 C 
ATOM     22  N   UNL     1       2.618   3.557  -8.543  0.00  0.00    -0.191 NA
ENDBRANCH   1  21
TORSDOF 6
ENDMDL
