MODEL 1
REMARK VINA RESULT:      -6.8      0.000      0.000
REMARK  Name = 
REMARK  3 active torsions:
REMARK  status: ('A' for Active; 'I' for Inactive)
REMARK    1  A    between atoms: C_2  and  C_3
REMARK    2  A    between atoms: C_3  and  N_17
REMARK    3  A    between atoms: C_7  and  C_8
REMARK                            x       y       z     vdW  Elec       q    Type
REMARK                         _______ _______ _______ _____ _____    ______ ____
ROOT
ATOM      1  C   UNL     1       2.525   6.476  -6.767  0.00  0.00    +0.146 C 
ATOM      2  C   UNL     1       2.801   6.031  -7.994  0.00  0.00    +0.077 C 
ATOM      3  S   UNL     1       4.367   6.147  -8.837  0.00  0.00    -0.101 S 
ATOM      4  C   UNL     1       3.793   5.555 -10.565  0.00  0.00    +0.087 C 
ATOM      5  C   UNL     1       2.688   6.705 -10.666  0.00  0.00    +0.078 C 
ATOM      6  S   UNL     1       1.596   6.106  -9.328  0.00  0.00    -0.104 S 
ENDROOT
BRANCH   4   7
ATOM      7  C   UNL     1       4.847   6.317 -11.431  0.00  0.00    -0.001 A 
ATOM      8  C   UNL     1       5.263   5.554 -12.519  0.00  0.00    +0.055 A 
ATOM      9 CL   UNL     1       4.077   4.634 -13.439  0.00  0.00    -0.083 Cl
ATOM     10  C   UNL     1       6.590   5.543 -12.936  0.00  0.00    +0.022 A 
ATOM     11  C   UNL     1       7.532   6.310 -12.262  0.00  0.00    +0.058 A 
ATOM     12 CL   UNL     1       9.204   5.787 -12.075  0.00  0.00    -0.082 Cl
ATOM     13  C   UNL     1       7.002   7.355 -11.515  0.00  0.00    +0.011 A 
ATOM     14  C   UNL     1       5.766   7.152 -10.909  0.00  0.00    -0.002 A 
ENDBRANCH   4   7
BRANCH   1  15
ATOM     15  N   UNL     1       1.351   5.923  -6.177  0.00  0.00    -0.277 N 
ATOM     16  C   UNL     1       1.221   4.815  -5.449  0.00  0.00    +0.183 A 
ATOM     17  N   UNL     1       0.073   4.870  -4.731  0.00  0.00    -0.222 NA
ATOM     18  C   UNL     1      -0.338   6.162  -4.734  0.00  0.00    +0.120 A 
ATOM     19  C   UNL     1       0.299   6.709  -5.837  0.00  0.00    +0.103 A 
ENDBRANCH   1  15
BRANCH   1  21
ATOM     20  N   UNL     1       4.241   7.485  -5.228  0.00  0.00    -0.189 NA
ATOM     21  C   UNL     1       3.545   7.083  -5.958  0.00  0.00    +0.119 C 
ENDBRANCH   1  21
TORSDOF 3
ENDMDL
MODEL 2
REMARK VINA RESULT:      -6.7      4.452      7.417
REMARK  Name = 
REMARK  3 active torsions:
REMARK  status: ('A' for Active; 'I' for Inactive)
REMARK    1  A    between atoms: C_2  and  C_3
REMARK    2  A    between atoms: C_3  and  N_17
REMARK    3  A    between atoms: C_7  and  C_8
REMARK                            x       y       z     vdW  Elec       q    Type
REMARK                         _______ _______ _______ _____ _____    ______ ____
ROOT
ATOM      1  C   UNL     1       4.713   5.293  -9.744  0.00  0.00    +0.146 C 
ATOM      2  C   UNL     1       3.789   5.343  -8.783  0.00  0.00    +0.077 C 
ATOM      3  S   UNL     1       4.061   5.763  -7.072  0.00  0.00    -0.101 S 
ATOM      4  C   UNL     1       2.327   5.307  -6.399  0.00  0.00    +0.087 C 
ATOM      5  C   UNL     1       2.441   3.805  -6.932  0.00  0.00    +0.078 C 
ATOM      6  S   UNL     1       2.415   4.183  -8.721  0.00  0.00    -0.104 S 
ENDROOT
BRANCH   4   7
ATOM      7  C   UNL     1       2.735   4.951  -4.933  0.00  0.00    -0.001 A 
ATOM      8  C   UNL     1       1.882   5.545  -4.007  0.00  0.00    +0.055 A 
ATOM      9 CL   UNL     1       0.148   5.559  -4.307  0.00  0.00    -0.083 Cl
ATOM     10  C   UNL     1       2.361   6.080  -2.815  0.00  0.00    +0.022 A 
ATOM     11  C   UNL     1       3.719   6.024  -2.529  0.00  0.00    +0.058 A 
ATOM     12 CL   UNL     1       4.538   7.297  -1.629  0.00  0.00    -0.082 Cl
ATOM     13  C   UNL     1       4.422   5.058  -3.239  0.00  0.00    +0.011 A 
ATOM     14  C   UNL     1       4.015   4.791  -4.543  0.00  0.00    -0.002 A 
ENDBRANCH   4   7
BRANCH   1  15
ATOM     15  N   UNL     1       4.199   5.325 -11.074  0.00  0.00    -0.277 N 
ATOM     16  C   UNL     1       3.161   6.008 -11.554  0.00  0.00    +0.183 A 
ATOM     17  N   UNL     1       3.264   6.111 -12.902  0.00  0.00    -0.222 NA
ATOM     18  C   UNL     1       4.544   5.805 -13.229  0.00  0.00    +0.120 A 
ATOM     19  C   UNL     1       4.996   5.074 -12.142  0.00  0.00    +0.103 A 
ENDBRANCH   1  15
BRANCH   1  21
ATOM     20  N   UNL     1       7.130   5.904  -9.413  0.00  0.00    -0.189 NA
ATOM     21  C   UNL     1       6.079   5.640  -9.470  0.00  0.00    +0.119 C 
ENDBRANCH   1  21
TORSDOF 3
ENDMDL
MODEL 3
REMARK VINA RESULT:      -6.7      3.034      4.688
REMARK  Name = 
REMARK  3 active torsions:
REMARK  status: ('A' for Active; 'I' for Inactive)
REMARK    1  A    between atoms: C_2  and  C_3
REMARK    2  A    between atoms: C_3  and  N_17
REMARK    3  A    between atoms: C_7  and  C_8
REMARK                            x       y       z     vdW  Elec       q    Type
REMARK                         _______ _______ _______ _____ _____    ______ ____
ROOT
ATOM      1  C   UNL     1       0.264   5.464  -4.762  0.00  0.00    +0.146 C 
ATOM      2  C   UNL     1       1.121   5.520  -5.782  0.00  0.00    +0.077 C 
ATOM      3  S   UNL     1       0.729   5.922  -7.475  0.00  0.00    -0.101 S 
ATOM      4  C   UNL     1       2.421   5.486  -8.259  0.00  0.00    +0.087 C 
ATOM      5  C   UNL     1       2.365   3.986  -7.709  0.00  0.00    +0.078 C 
ATOM      6  S   UNL     1       2.505   4.379  -5.929  0.00  0.00    -0.104 S 
ENDROOT
BRANCH   4   7
ATOM      7  C   UNL     1       1.920   5.112  -9.692  0.00  0.00    -0.001 A 
ATOM      8  C   UNL     1       2.789   5.580 -10.674  0.00  0.00    +0.055 A 
ATOM      9 CL   UNL     1       4.527   5.434 -10.438  0.00  0.00    -0.083 Cl
ATOM     10  C   UNL     1       2.317   6.110 -11.871  0.00  0.00    +0.022 A 
ATOM     11  C   UNL     1       0.949   6.178 -12.104  0.00  0.00    +0.058 A 
ATOM     12 CL   UNL     1       0.223   7.489 -13.031  0.00  0.00    -0.082 Cl
ATOM     13  C   UNL     1       0.185   5.317 -11.327  0.00  0.00    +0.011 A 
ATOM     14  C   UNL     1       0.617   5.065 -10.028  0.00  0.00    -0.002 A 
ENDBRANCH   4   7
BRANCH   1  15
ATOM     15  N   UNL     1       0.866   5.514  -3.470  0.00  0.00    -0.277 N 
ATOM     16  C   UNL     1       1.814   6.334  -3.018  0.00  0.00    +0.183 A 
ATOM     17  N   UNL     1       1.798   6.352  -1.663  0.00  0.00    -0.222 NA
ATOM     18  C   UNL     1       0.612   5.822  -1.271  0.00  0.00    +0.120 A 
ATOM     19  C   UNL     1       0.202   5.081  -2.369  0.00  0.00    +0.103 A 
ENDBRANCH   1  15
BRANCH   1  21
ATOM     20  N   UNL     1      -2.199   5.903  -5.016  0.00  0.00    -0.189 NA
ATOM     21  C   UNL     1      -1.122   5.789  -4.945  0.00  0.00    +0.119 C 
ENDBRANCH   1  21
TORSDOF 3
ENDMDL
MODEL 4
REMARK VINA RESULT:      -6.6      4.919      8.715
REMARK  Name = 
REMARK  3 active torsions:
REMARK  status: ('A' for Active; 'I' for Inactive)
REMARK    1  A    between atoms: C_2  and  C_3
REMARK    2  A    between atoms: C_3  and  N_17
REMARK    3  A    between atoms: C_7  and  C_8
REMARK                            x       y       z     vdW  Elec       q    Type
REMARK                         _______ _______ _______ _____ _____    ______ ____
ROOT
ATOM      1  C   UNL     1       2.196   5.367  -6.802  0.00  0.00    +0.146 C 
ATOM      2  C   UNL     1       0.989   5.926  -6.701  0.00  0.00    +0.077 C 
ATOM      3  S   UNL     1       0.226   6.536  -5.210  0.00  0.00    -0.101 S 
ATOM      4  C   UNL     1      -1.524   6.867  -5.914  0.00  0.00    +0.087 C 
ATOM      5  C   UNL     1      -1.692   5.352  -6.392  0.00  0.00    +0.078 C 
ATOM      6  S   UNL     1      -0.405   5.368  -7.692  0.00  0.00    -0.104 S 
ENDROOT
BRANCH   4   7
ATOM      7  C   UNL     1      -2.343   6.673  -4.596  0.00  0.00    -0.001 A 
ATOM      8  C   UNL     1      -2.164   7.742  -3.722  0.00  0.00    +0.055 A 
ATOM      9 CL   UNL     1      -2.154   9.386  -4.349  0.00  0.00    -0.083 Cl
ATOM     10  C   UNL     1      -2.049   7.547  -2.349  0.00  0.00    +0.022 A 
ATOM     11  C   UNL     1      -2.115   6.262  -1.825  0.00  0.00    +0.058 A 
ATOM     12 CL   UNL     1      -1.187   5.781  -0.407  0.00  0.00    -0.082 Cl
ATOM     13  C   UNL     1      -2.727   5.329  -2.653  0.00  0.00    +0.011 A 
ATOM     14  C   UNL     1      -2.548   5.470  -4.026  0.00  0.00    -0.002 A 
ENDBRANCH   4   7
BRANCH   1  15
ATOM     15  N   UNL     1       2.731   5.329  -8.124  0.00  0.00    -0.277 N 
ATOM     16  C   UNL     1       3.128   6.339  -8.896  0.00  0.00    +0.183 A 
ATOM     17  N   UNL     1       3.952   5.876  -9.868  0.00  0.00    -0.222 NA
ATOM     18  C   UNL     1       4.356   4.637  -9.492  0.00  0.00    +0.120 A 
ATOM     19  C   UNL     1       3.389   4.236  -8.584  0.00  0.00    +0.103 A 
ENDBRANCH   1  15
BRANCH   1  21
ATOM     20  N   UNL     1       3.742   5.026  -4.847  0.00  0.00    -0.189 NA
ATOM     21  C   UNL     1       3.051   5.247  -5.655  0.00  0.00    +0.119 C 
ENDBRANCH   1  21
TORSDOF 3
ENDMDL
MODEL 5
REMARK VINA RESULT:      -6.6      1.975      3.143
REMARK  Name = 
REMARK  3 active torsions:
REMARK  status: ('A' for Active; 'I' for Inactive)
REMARK    1  A    between atoms: C_2  and  C_3
REMARK    2  A    between atoms: C_3  and  N_17
REMARK    3  A    between atoms: C_7  and  C_8
REMARK                            x       y       z     vdW  Elec       q    Type
REMARK                         _______ _______ _______ _____ _____    ______ ____
ROOT
ATOM      1  C   UNL     1       1.258   5.483  -8.413  0.00  0.00    +0.146 C 
ATOM      2  C   UNL     1       2.485   5.900  -8.729  0.00  0.00    +0.077 C 
ATOM      3  S   UNL     1       3.151   6.088 -10.372  0.00  0.00    -0.101 S 
ATOM      4  C   UNL     1       4.974   6.421  -9.893  0.00  0.00    +0.087 C 
ATOM      5  C   UNL     1       5.084   5.045  -9.086  0.00  0.00    +0.078 C 
ATOM      6  S   UNL     1       3.922   5.466  -7.738  0.00  0.00    -0.104 S 
ENDROOT
BRANCH   4   7
ATOM      7  C   UNL     1       5.657   5.863 -11.183  0.00  0.00    -0.001 A 
ATOM      8  C   UNL     1       6.825   6.559 -11.484  0.00  0.00    +0.055 A 
ATOM      9 CL   UNL     1       7.936   6.992 -10.190  0.00  0.00    -0.083 Cl
ATOM     10  C   UNL     1       7.168   6.872 -12.796  0.00  0.00    +0.022 A 
ATOM     11  C   UNL     1       6.336   6.485 -13.839  0.00  0.00    +0.058 A 
ATOM     12 CL   UNL     1       6.143   7.460 -15.293  0.00  0.00    -0.082 Cl
ATOM     13  C   UNL     1       5.466   5.445 -13.532  0.00  0.00    +0.011 A 
ATOM     14  C   UNL     1       4.965   5.385 -12.235  0.00  0.00    -0.002 A 
ENDBRANCH   4   7
BRANCH   1  15
ATOM     15  N   UNL     1       0.842   5.792  -7.085  0.00  0.00    -0.277 N 
ATOM     16  C   UNL     1       0.903   6.955  -6.437  0.00  0.00    +0.183 A 
ATOM     17  N   UNL     1       0.037   6.944  -5.394  0.00  0.00    -0.222 NA
ATOM     18  C   UNL     1      -0.823   5.915  -5.599  0.00  0.00    +0.120 A 
ATOM     19  C   UNL     1      -0.140   5.084  -6.473  0.00  0.00    +0.103 A 
ENDBRANCH   1  15
BRANCH   1  21
ATOM     20  N   UNL     1      -0.314   4.882 -10.283  0.00  0.00    -0.189 NA
ATOM     21  C   UNL     1       0.298   5.178  -9.436  0.00  0.00    +0.119 C 
ENDBRANCH   1  21
TORSDOF 3
ENDMDL
MODEL 6
REMARK VINA RESULT:      -6.4      3.235      5.307
REMARK  Name = 
REMARK  3 active torsions:
REMARK  status: ('A' for Active; 'I' for Inactive)
REMARK    1  A    between atoms: C_2  and  C_3
REMARK    2  A    between atoms: C_3  and  N_17
REMARK    3  A    between atoms: C_7  and  C_8
REMARK                            x       y       z     vdW  Elec       q    Type
REMARK                         _______ _______ _______ _____ _____    ______ ____
ROOT
ATOM      1  C   UNL     1       2.422   6.217  -3.564  0.00  0.00    +0.146 C 
ATOM      2  C   UNL     1       2.774   6.433  -4.832  0.00  0.00    +0.077 C 
ATOM      3  S   UNL     1       1.678   6.539  -6.234  0.00  0.00    -0.101 S 
ATOM      4  C   UNL     1       3.003   6.563  -7.616  0.00  0.00    +0.087 C 
ATOM      5  C   UNL     1       3.630   5.174  -7.133  0.00  0.00    +0.078 C 
ATOM      6  S   UNL     1       4.288   5.756  -5.529  0.00  0.00    -0.104 S 
ENDROOT
BRANCH   4   7
ATOM      7  C   UNL     1       2.152   5.924  -8.761  0.00  0.00    -0.001 A 
ATOM      8  C   UNL     1       2.587   6.343 -10.016  0.00  0.00    +0.055 A 
ATOM      9 CL   UNL     1       4.313   6.446 -10.348  0.00  0.00    -0.083 Cl
ATOM     10  C   UNL     1       1.689   6.630 -11.039  0.00  0.00    +0.022 A 
ATOM     11  C   UNL     1       0.324   6.496 -10.818  0.00  0.00    +0.058 A 
ATOM     12 CL   UNL     1      -0.856   7.557 -11.583  0.00  0.00    -0.082 Cl
ATOM     13  C   UNL     1      -0.012   5.672  -9.750  0.00  0.00    +0.011 A 
ATOM     14  C   UNL     1       0.835   5.669  -8.646  0.00  0.00    -0.002 A 
ENDBRANCH   4   7
BRANCH   1  15
ATOM     15  N   UNL     1       3.410   6.567  -2.597  0.00  0.00    -0.277 N 
ATOM     16  C   UNL     1       3.726   7.769  -2.119  0.00  0.00    +0.183 A 
ATOM     17  N   UNL     1       4.384   7.636  -0.942  0.00  0.00    -0.222 NA
ATOM     18  C   UNL     1       4.168   6.371  -0.505  0.00  0.00    +0.120 A 
ATOM     19  C   UNL     1       3.814   5.680  -1.653  0.00  0.00    +0.103 A 
ENDBRANCH   1  15
BRANCH   1  21
ATOM     20  N   UNL     1      -0.029   6.114  -3.002  0.00  0.00    -0.189 NA
ATOM     21  C   UNL     1       1.040   6.089  -3.196  0.00  0.00    +0.119 C 
ENDBRANCH   1  21
TORSDOF 3
ENDMDL
MODEL 7
REMARK VINA RESULT:      -6.3      5.224      7.826
REMARK  Name = 
REMARK  3 active torsions:
REMARK  status: ('A' for Active; 'I' for Inactive)
REMARK    1  A    between atoms: C_2  and  C_3
REMARK    2  A    between atoms: C_3  and  N_17
REMARK    3  A    between atoms: C_7  and  C_8
REMARK                            x       y       z     vdW  Elec       q    Type
REMARK                         _______ _______ _______ _____ _____    ______ ____
ROOT
ATOM      1  C   UNL     1       1.733   5.033  -8.506  0.00  0.00    +0.146 C 
ATOM      2  C   UNL     1       1.500   5.559  -7.302  0.00  0.00    +0.077 C 
ATOM      3  S   UNL     1       2.626   5.584  -5.920  0.00  0.00    -0.101 S 
ATOM      4  C   UNL     1       1.411   6.230  -4.589  0.00  0.00    +0.087 C 
ATOM      5  C   UNL     1       0.394   5.021  -4.833  0.00  0.00    +0.078 C 
ATOM      6  S   UNL     1      -0.121   5.481  -6.526  0.00  0.00    -0.104 S 
ENDROOT
BRANCH   4   7
ATOM      7  C   UNL     1       2.078   5.581  -3.333  0.00  0.00    -0.001 A 
ATOM      8  C   UNL     1       1.567   6.110  -2.151  0.00  0.00    +0.055 A 
ATOM      9 CL   UNL     1      -0.164   6.394  -2.003  0.00  0.00    -0.083 Cl
ATOM     10  C   UNL     1       2.385   6.369  -1.056  0.00  0.00    +0.022 A 
ATOM     11  C   UNL     1       3.745   6.095  -1.130  0.00  0.00    +0.058 A 
ATOM     12 CL   UNL     1       4.945   7.082  -0.299  0.00  0.00    -0.082 Cl
ATOM     13  C   UNL     1       4.101   5.184  -2.117  0.00  0.00    +0.011 A 
ATOM     14  C   UNL     1       3.369   5.197  -3.301  0.00  0.00    -0.002 A 
ENDBRANCH   4   7
BRANCH   1  15
ATOM     15  N   UNL     1       0.856   5.481  -9.537  0.00  0.00    -0.277 N 
ATOM     16  C   UNL     1       0.768   6.687 -10.097  0.00  0.00    +0.183 A 
ATOM     17  N   UNL     1       0.142   6.591 -11.295  0.00  0.00    -0.222 NA
ATOM     18  C   UNL     1       0.155   5.282 -11.649  0.00  0.00    +0.120 A 
ATOM     19  C   UNL     1       0.343   4.617 -10.448  0.00  0.00    +0.103 A 
ENDBRANCH   1  15
BRANCH   1  21
ATOM     20  N   UNL     1       4.024   4.145  -9.043  0.00  0.00    -0.189 NA
ATOM     21  C   UNL     1       3.006   4.448  -8.820  0.00  0.00    +0.119 C 
ENDBRANCH   1  21
TORSDOF 3
ENDMDL
MODEL 8
REMARK VINA RESULT:      -6.3      4.483      7.932
REMARK  Name = 
REMARK  3 active torsions:
REMARK  status: ('A' for Active; 'I' for Inactive)
REMARK    1  A    between atoms: C_2  and  C_3
REMARK    2  A    between atoms: C_3  and  N_17
REMARK    3  A    between atoms: C_7  and  C_8
REMARK                            x       y       z     vdW  Elec       q    Type
REMARK                         _______ _______ _______ _____ _____    ______ ____
ROOT
ATOM      1  C   UNL     1       1.100   6.195 -11.170  0.00  0.00    +0.146 C 
ATOM      2  C   UNL     1       1.416   5.686  -9.978  0.00  0.00    +0.077 C 
ATOM      3  S   UNL     1       0.535   5.940  -8.449  0.00  0.00    -0.101 S 
ATOM      4  C   UNL     1       1.802   5.130  -7.264  0.00  0.00    +0.087 C 
ATOM      5  C   UNL     1       2.973   6.108  -7.740  0.00  0.00    +0.078 C 
ATOM      6  S   UNL     1       3.125   5.484  -9.452  0.00  0.00    -0.104 S 
ENDROOT
BRANCH   4   7
ATOM      7  C   UNL     1       1.469   5.950  -5.976  0.00  0.00    -0.001 A 
ATOM      8  C   UNL     1       1.848   5.267  -4.823  0.00  0.00    +0.055 A 
ATOM      9 CL   UNL     1       3.391   4.422  -4.782  0.00  0.00    -0.083 Cl
ATOM     10  C   UNL     1       1.061   5.283  -3.676  0.00  0.00    +0.022 A 
ATOM     11  C   UNL     1      -0.132   5.995  -3.667  0.00  0.00    +0.058 A 
ATOM     12 CL   UNL     1      -1.537   5.454  -2.752  0.00  0.00    -0.082 Cl
ATOM     13  C   UNL     1      -0.225   6.984  -4.639  0.00  0.00    +0.011 A 
ATOM     14  C   UNL     1       0.385   6.742  -5.866  0.00  0.00    -0.002 A 
ENDBRANCH   4   7
BRANCH   1  15
ATOM     15  N   UNL     1       1.708   5.541 -12.282  0.00  0.00    -0.277 N 
ATOM     16  C   UNL     1       1.146   4.766 -13.208  0.00  0.00    +0.183 A 
ATOM     17  N   UNL     1       1.946   4.703 -14.301  0.00  0.00    -0.222 NA
ATOM     18  C   UNL     1       2.837   5.721 -14.202  0.00  0.00    +0.120 A 
ATOM     19  C   UNL     1       2.839   6.027 -12.850  0.00  0.00    +0.103 A 
ENDBRANCH   1  15
BRANCH   1  21
ATOM     20  N   UNL     1      -0.947   7.589 -11.613  0.00  0.00    -0.189 NA
ATOM     21  C   UNL     1      -0.077   7.000 -11.338  0.00  0.00    +0.119 C 
ENDBRANCH   1  21
TORSDOF 3
ENDMDL
MODEL 9
REMARK VINA RESULT:      -6.2      4.242      6.243
REMARK  Name = 
REMARK  3 active torsions:
REMARK  status: ('A' for Active; 'I' for Inactive)
REMARK    1  A    between atoms: C_2  and  C_3
REMARK    2  A    between atoms: C_3  and  N_17
REMARK    3  A    between atoms: C_7  and  C_8
REMARK                            x       y       z     vdW  Elec       q    Type
REMARK                         _______ _______ _______ _____ _____    ______ ____
ROOT
ATOM      1  C   UNL     1      -1.261   6.075  -2.944  0.00  0.00    +0.146 C 
ATOM      2  C   UNL     1      -0.452   6.459  -3.932  0.00  0.00    +0.077 C 
ATOM      3  S   UNL     1      -0.742   6.256  -5.679  0.00  0.00    -0.101 S 
ATOM      4  C   UNL     1       0.985   6.793  -6.308  0.00  0.00    +0.087 C 
ATOM      5  C   UNL     1       1.725   5.676  -5.436  0.00  0.00    +0.078 C 
ATOM      6  S   UNL     1       1.339   6.367  -3.788  0.00  0.00    -0.104 S 
ENDROOT
BRANCH   4   7
ATOM      7  C   UNL     1       1.018   5.960  -7.631  0.00  0.00    -0.001 A 
ATOM      8  C   UNL     1       2.023   6.401  -8.487  0.00  0.00    +0.055 A 
ATOM      9 CL   UNL     1       3.605   6.809  -7.833  0.00  0.00    -0.083 Cl
ATOM     10  C   UNL     1       1.827   6.473  -9.863  0.00  0.00    +0.022 A 
ATOM     11  C   UNL     1       0.606   6.098 -10.407  0.00  0.00    +0.058 A 
ATOM     12 CL   UNL     1      -0.067   6.889 -11.831  0.00  0.00    -0.082 Cl
ATOM     13  C   UNL     1      -0.161   5.271  -9.596  0.00  0.00    +0.011 A 
ATOM     14  C   UNL     1      -0.090   5.470  -8.220  0.00  0.00    -0.002 A 
ENDBRANCH   4   7
BRANCH   1  15
ATOM     15  N   UNL     1      -1.004   6.691  -1.684  0.00  0.00    -0.277 N 
ATOM     16  C   UNL     1      -1.567   7.773  -1.150  0.00  0.00    +0.183 A 
ATOM     17  N   UNL     1      -1.374   7.776   0.192  0.00  0.00    -0.222 NA
ATOM     18  C   UNL     1      -1.002   6.521   0.544  0.00  0.00    +0.120 A 
ATOM     19  C   UNL     1      -0.524   5.974  -0.636  0.00  0.00    +0.103 A 
ENDBRANCH   1  15
BRANCH   1  21
ATOM     20  N   UNL     1      -3.543   5.083  -3.316  0.00  0.00    -0.189 NA
ATOM     21  C   UNL     1      -2.532   5.470  -3.226  0.00  0.00    +0.119 C 
ENDBRANCH   1  21
TORSDOF 3
ENDMDL
