MODEL 1
REMARK VINA RESULT:      -8.9      0.000      0.000
REMARK  Name = 
REMARK  4 active torsions:
REMARK  status: ('A' for Active; 'I' for Inactive)
REMARK    1  A    between atoms: C_2  and  C_3
REMARK    2  A    between atoms: C_3  and  C_4
REMARK    3  A    between atoms: C_26  and  C_27
REMARK    4  A    between atoms: C_27  and  C_29
REMARK                            x       y       z     vdW  Elec       q    Type
REMARK                         _______ _______ _______ _____ _____    ______ ____
ROOT
ATOM      1  C   UNL     1       2.820   5.385 -10.625  0.00  0.00    +0.235 C 
ATOM      2  O   UNL     1       2.408   6.545  -9.704  0.00  0.00    -0.326 OA
ATOM      3  C   UNL     1       2.431   5.640  -8.693  0.00  0.00    +0.173 C 
ATOM      4  C   UNL     1       1.576   4.370  -9.296  0.00  0.00    +0.149 C 
ATOM      5  C   UNL     1       0.125   4.769  -8.649  0.00  0.00    +0.033 C 
ATOM      6  C   UNL     1       0.403   6.142  -7.871  0.00  0.00    +0.005 C 
ATOM      7  C   UNL     1      -0.215   5.600  -6.396  0.00  0.00    +0.004 C 
ATOM      8  C   UNL     1       0.114   7.026  -5.589  0.00  0.00    +0.038 C 
ATOM      9  C   UNL     1       1.687   6.656  -5.035  0.00  0.00    +0.153 C 
ATOM     10  C   UNL     1       2.360   6.609  -6.519  0.00  0.00    +0.036 C 
ATOM     11  O   UNL     1       1.457   5.174  -4.840  0.00  0.00    -0.223 OA
ATOM     12  C   UNL     1      -0.612   6.579  -4.239  0.00  0.00    +0.036 C 
ATOM     13  C   UNL     1      -1.540   5.488  -4.380  0.00  0.00    -0.038 C 
ATOM     14  C   UNL     1      -2.047   5.133  -3.186  0.00  0.00    +0.034 C 
ATOM     15  C   UNL     1      -2.339   6.133  -2.144  0.00  0.00    +0.195 C 
ATOM     16  C   UNL     1      -2.239   7.468  -2.747  0.00  0.00    +0.038 C 
ATOM     17  O   UNL     1      -2.542   5.905  -0.940  0.00  0.00    -0.287 OA
ATOM     18  C   UNL     1      -2.455   5.550  -5.571  0.00  0.00    +0.022 C 
ATOM     19  C   UNL     1       0.311   6.480  -3.096  0.00  0.00    +0.009 C 
ATOM     20  C   UNL     1      -1.530   7.700  -3.854  0.00  0.00    -0.020 C 
ATOM     21  C   UNL     1      -1.676   6.196  -6.707  0.00  0.00    +0.004 C 
ATOM     22  C   UNL     1       1.866   5.657  -7.420  0.00  0.00    +0.034 C 
ATOM     23  C   UNL     1       1.746   4.203  -7.001  0.00  0.00    +0.003 C 
ATOM     24  O   UNL     1       1.333   5.027 -10.653  0.00  0.00    -0.330 OA
ENDROOT
BRANCH   3  25
ATOM     25  C   UNL     1       3.834   5.081  -8.515  0.00  0.00    +0.210 C 
ATOM     26  O   UNL     1       4.008   3.958  -9.002  0.00  0.00    -0.291 OA
BRANCH  25  27
ATOM     27  C   UNL     1       4.978   5.930  -9.024  0.00  0.00    +0.248 C 
ATOM     28  O   UNL     1       6.177   5.375  -9.028  0.00  0.00    -0.212 OA
ENDBRANCH  25  27
ENDBRANCH   3  25
BRANCH   1  29
ATOM     29  C   UNL     1       2.758   6.313 -12.004  0.00  0.00    +0.061 C 
BRANCH  29  31
ATOM     30  C   UNL     1       0.832   7.249 -13.337  0.00  0.00    +0.000 C 
ATOM     31  C   UNL     1       1.245   6.502 -12.095  0.00  0.00    +0.005 C 
ENDBRANCH  29  31
ENDBRANCH   1  29
TORSDOF 4
ENDMDL
MODEL 2
REMARK VINA RESULT:      -8.9      2.362      3.427
REMARK  Name = 
REMARK  4 active torsions:
REMARK  status: ('A' for Active; 'I' for Inactive)
REMARK    1  A    between atoms: C_2  and  C_3
REMARK    2  A    between atoms: C_3  and  C_4
REMARK    3  A    between atoms: C_26  and  C_27
REMARK    4  A    between atoms: C_27  and  C_29
REMARK                            x       y       z     vdW  Elec       q    Type
REMARK                         _______ _______ _______ _____ _____    ______ ____
ROOT
ATOM      1  C   UNL     1       0.821   6.161 -10.374  0.00  0.00    +0.235 C 
ATOM      2  O   UNL     1       1.356   7.200  -9.376  0.00  0.00    -0.326 OA
ATOM      3  C   UNL     1       2.046   6.178  -8.808  0.00  0.00    +0.173 C 
ATOM      4  C   UNL     1       0.915   4.994  -8.649  0.00  0.00    +0.149 C 
ATOM      5  C   UNL     1       0.494   5.315  -7.098  0.00  0.00    +0.033 C 
ATOM      6  C   UNL     1       1.391   6.582  -6.700  0.00  0.00    +0.005 C 
ATOM      7  C   UNL     1       2.046   5.866  -5.318  0.00  0.00    +0.004 C 
ATOM      8  C   UNL     1       3.003   7.181  -4.935  0.00  0.00    +0.038 C 
ATOM      9  C   UNL     1       4.410   6.742  -5.799  0.00  0.00    +0.153 C 
ATOM     10  C   UNL     1       3.728   6.874  -7.273  0.00  0.00    +0.036 C 
ATOM     11  O   UNL     1       4.267   5.248  -5.613  0.00  0.00    -0.223 OA
ATOM     12  C   UNL     1       3.503   6.575  -3.546  0.00  0.00    +0.036 C 
ATOM     13  C   UNL     1       2.689   5.512  -3.017  0.00  0.00    -0.038 C 
ATOM     14  C   UNL     1       3.223   5.016  -1.888  0.00  0.00    +0.034 C 
ATOM     15  C   UNL     1       3.912   5.881  -0.915  0.00  0.00    +0.195 C 
ATOM     16  C   UNL     1       3.649   7.280  -1.278  0.00  0.00    +0.038 C 
ATOM     17  O   UNL     1       4.664   5.508  -0.000  0.00  0.00    -0.287 OA
ATOM     18  C   UNL     1       1.202   5.722  -3.090  0.00  0.00    +0.022 C 
ATOM     19  C   UNL     1       4.956   6.334  -3.514  0.00  0.00    +0.009 C 
ATOM     20  C   UNL     1       3.301   7.643  -2.514  0.00  0.00    -0.020 C 
ATOM     21  C   UNL     1       0.916   6.500  -4.366  0.00  0.00    +0.004 C 
ATOM     22  C   UNL     1       2.638   6.041  -7.555  0.00  0.00    +0.034 C 
ATOM     23  C   UNL     1       2.737   4.547  -7.306  0.00  0.00    +0.003 C 
ATOM     24  O   UNL     1      -0.202   5.813  -9.292  0.00  0.00    -0.330 OA
ENDROOT
BRANCH   3  25
ATOM     25  C   UNL     1       3.041   5.598  -9.802  0.00  0.00    +0.210 C 
ATOM     26  O   UNL     1       2.625   4.625 -10.441  0.00  0.00    -0.291 OA
BRANCH  25  27
ATOM     27  C   UNL     1       3.617   6.547 -10.829  0.00  0.00    +0.248 C 
ATOM     28  O   UNL     1       4.756   7.140 -10.521  0.00  0.00    -0.212 OA
ENDBRANCH  25  27
ENDBRANCH   3  25
BRANCH   1  29
ATOM     29  C   UNL     1      -0.169   7.250 -11.148  0.00  0.00    +0.061 C 
BRANCH  29  31
ATOM     30  C   UNL     1       0.625   5.726 -12.995  0.00  0.00    +0.000 C 
ATOM     31  C   UNL     1       0.423   7.153 -12.552  0.00  0.00    +0.005 C 
ENDBRANCH  29  31
ENDBRANCH   1  29
TORSDOF 4
ENDMDL
MODEL 3
REMARK VINA RESULT:      -8.7      2.363      7.402
REMARK  Name = 
REMARK  4 active torsions:
REMARK  status: ('A' for Active; 'I' for Inactive)
REMARK    1  A    between atoms: C_2  and  C_3
REMARK    2  A    between atoms: C_3  and  C_4
REMARK    3  A    between atoms: C_26  and  C_27
REMARK    4  A    between atoms: C_27  and  C_29
REMARK                            x       y       z     vdW  Elec       q    Type
REMARK                         _______ _______ _______ _____ _____    ______ ____
ROOT
ATOM      1  C   UNL     1       4.065   6.308  -4.899  0.00  0.00    +0.235 C 
ATOM      2  O   UNL     1       3.154   7.138  -5.818  0.00  0.00    -0.326 OA
ATOM      3  C   UNL     1       2.845   5.968  -6.432  0.00  0.00    +0.173 C 
ATOM      4  C   UNL     1       4.313   5.272  -6.691  0.00  0.00    +0.149 C 
ATOM      5  C   UNL     1       4.525   5.799  -8.228  0.00  0.00    +0.033 C 
ATOM      6  C   UNL     1       3.222   6.684  -8.525  0.00  0.00    +0.005 C 
ATOM      7  C   UNL     1       2.801   5.852  -9.933  0.00  0.00    +0.004 C 
ATOM      8  C   UNL     1       1.426   6.760 -10.211  0.00  0.00    +0.038 C 
ATOM      9  C   UNL     1       0.304   5.808  -9.344  0.00  0.00    +0.153 C 
ATOM     10  C   UNL     1       0.960   6.099  -7.880  0.00  0.00    +0.036 C 
ATOM     11  O   UNL     1       0.956   4.473  -9.626  0.00  0.00    -0.223 OA
ATOM     12  C   UNL     1       1.110   6.087 -11.623  0.00  0.00    +0.036 C 
ATOM     13  C   UNL     1       2.223   5.409 -12.236  0.00  0.00    -0.038 C 
ATOM     14  C   UNL     1       1.849   4.813 -13.381  0.00  0.00    +0.034 C 
ATOM     15  C   UNL     1       0.857   5.426 -14.282  0.00  0.00    +0.195 C 
ATOM     16  C   UNL     1       0.625   6.806 -13.839  0.00  0.00    +0.038 C 
ATOM     17  O   UNL     1       0.245   4.857 -15.201  0.00  0.00    -0.287 OA
ATOM     18  C   UNL     1       3.542   6.129 -12.185  0.00  0.00    +0.022 C 
ATOM     19  C   UNL     1      -0.163   5.348 -11.636  0.00  0.00    +0.009 C 
ATOM     20  C   UNL     1       0.877   7.208 -12.591  0.00  0.00    -0.020 C 
ATOM     21  C   UNL     1       3.591   6.893 -10.871  0.00  0.00    +0.004 C 
ATOM     22  C   UNL     1       2.285   5.693  -7.677  0.00  0.00    +0.034 C 
ATOM     23  C   UNL     1       2.708   4.276  -8.017  0.00  0.00    +0.003 C 
ATOM     24  O   UNL     1       5.097   6.401  -6.025  0.00  0.00    -0.330 OA
ENDROOT
BRANCH   3  25
ATOM     25  C   UNL     1       2.163   5.024  -5.454  0.00  0.00    +0.210 C 
ATOM     26  O   UNL     1       2.935   4.323  -4.789  0.00  0.00    -0.291 OA
BRANCH  25  27
ATOM     27  C   UNL     1       1.210   5.642  -4.455  0.00  0.00    +0.248 C 
ATOM     28  O   UNL     1      -0.067   5.328  -4.577  0.00  0.00    -0.212 OA
ENDBRANCH  25  27
ENDBRANCH   3  25
BRANCH   1  29
ATOM     29  C   UNL     1       4.640   7.637  -4.083  0.00  0.00    +0.061 C 
BRANCH  29  31
ATOM     30  C   UNL     1       4.153   6.205  -2.063  0.00  0.00    +0.000 C 
ATOM     31  C   UNL     1       3.839   7.488  -2.791  0.00  0.00    +0.005 C 
ENDBRANCH  29  31
ENDBRANCH   1  29
TORSDOF 4
ENDMDL
MODEL 4
REMARK VINA RESULT:      -8.5      1.931      7.249
REMARK  Name = 
REMARK  4 active torsions:
REMARK  status: ('A' for Active; 'I' for Inactive)
REMARK    1  A    between atoms: C_2  and  C_3
REMARK    2  A    between atoms: C_3  and  C_4
REMARK    3  A    between atoms: C_26  and  C_27
REMARK    4  A    between atoms: C_27  and  C_29
REMARK                            x       y       z     vdW  Elec       q    Type
REMARK                         _______ _______ _______ _____ _____    ______ ____
ROOT
ATOM      1  C   UNL     1       1.803   5.956  -4.355  0.00  0.00    +0.235 C 
ATOM      2  O   UNL     1       1.792   4.914  -5.485  0.00  0.00    -0.326 OA
ATOM      3  C   UNL     1       2.344   5.877  -6.266  0.00  0.00    +0.173 C 
ATOM      4  C   UNL     1       1.394   7.190  -5.984  0.00  0.00    +0.149 C 
ATOM      5  C   UNL     1       0.389   6.999  -7.264  0.00  0.00    +0.033 C 
ATOM      6  C   UNL     1       0.906   5.659  -7.975  0.00  0.00    +0.005 C 
ATOM      7  C   UNL     1       1.084   6.364  -9.499  0.00  0.00    +0.004 C 
ATOM      8  C   UNL     1       1.655   4.968 -10.219  0.00  0.00    +0.038 C 
ATOM      9  C   UNL     1       3.326   5.197  -9.945  0.00  0.00    +0.153 C 
ATOM     10  C   UNL     1       3.231   5.070  -8.323  0.00  0.00    +0.036 C 
ATOM     11  O   UNL     1       3.314   6.705 -10.058  0.00  0.00    -0.223 OA
ATOM     12  C   UNL     1       1.675   5.581 -11.692  0.00  0.00    +0.036 C 
ATOM     13  C   UNL     1       0.863   6.757 -11.872  0.00  0.00    -0.038 C 
ATOM     14  C   UNL     1       0.996   7.245 -13.117  0.00  0.00    +0.034 C 
ATOM     15  C   UNL     1       1.158   6.357 -14.281  0.00  0.00    +0.195 C 
ATOM     16  C   UNL     1       0.876   4.981 -13.851  0.00  0.00    +0.038 C 
ATOM     17  O   UNL     1       1.556   6.686 -15.410  0.00  0.00    -0.287 OA
ATOM     18  C   UNL     1      -0.503   6.716 -11.246  0.00  0.00    +0.022 C 
ATOM     19  C   UNL     1       3.029   5.655 -12.266  0.00  0.00    +0.009 C 
ATOM     20  C   UNL     1       0.970   4.598 -12.576  0.00  0.00    -0.020 C 
ATOM     21  C   UNL     1      -0.389   5.913  -9.960  0.00  0.00    +0.004 C 
ATOM     22  C   UNL     1       2.439   6.008  -7.649  0.00  0.00    +0.034 C 
ATOM     23  C   UNL     1       2.626   7.491  -7.912  0.00  0.00    +0.003 C 
ATOM     24  O   UNL     1       0.503   6.474  -4.972  0.00  0.00    -0.330 OA
ENDROOT
BRANCH   3  25
ATOM     25  C   UNL     1       3.702   6.287  -5.717  0.00  0.00    +0.210 C 
ATOM     26  O   UNL     1       3.677   7.252  -4.945  0.00  0.00    -0.291 OA
BRANCH  25  27
ATOM     27  C   UNL     1       4.508   5.218  -5.012  0.00  0.00    +0.248 C 
ATOM     28  O   UNL     1       5.205   5.596  -3.956  0.00  0.00    -0.212 OA
ENDBRANCH  25  27
ENDBRANCH   3  25
BRANCH   1  29
ATOM     29  C   UNL     1       1.044   4.950  -3.270  0.00  0.00    +0.061 C 
BRANCH  29  31
ATOM     30  C   UNL     1      -0.884   5.659  -1.805  0.00  0.00    +0.000 C 
ATOM     31  C   UNL     1      -0.308   5.657  -3.198  0.00  0.00    +0.005 C 
ENDBRANCH  29  31
ENDBRANCH   1  29
TORSDOF 4
ENDMDL
MODEL 5
REMARK VINA RESULT:      -8.5      2.458      8.256
REMARK  Name = 
REMARK  4 active torsions:
REMARK  status: ('A' for Active; 'I' for Inactive)
REMARK    1  A    between atoms: C_2  and  C_3
REMARK    2  A    between atoms: C_3  and  C_4
REMARK    3  A    between atoms: C_26  and  C_27
REMARK    4  A    between atoms: C_27  and  C_29
REMARK                            x       y       z     vdW  Elec       q    Type
REMARK                         _______ _______ _______ _____ _____    ______ ____
ROOT
ATOM      1  C   UNL     1       1.971   5.511  -4.714  0.00  0.00    +0.235 C 
ATOM      2  O   UNL     1       2.265   6.623  -5.734  0.00  0.00    -0.326 OA
ATOM      3  C   UNL     1       2.284   5.643  -6.672  0.00  0.00    +0.173 C 
ATOM      4  C   UNL     1       3.252   4.492  -6.005  0.00  0.00    +0.149 C 
ATOM      5  C   UNL     1       4.648   4.947  -6.730  0.00  0.00    +0.033 C 
ATOM      6  C   UNL     1       4.242   6.231  -7.599  0.00  0.00    +0.005 C 
ATOM      7  C   UNL     1       4.858   5.623  -9.050  0.00  0.00    +0.004 C 
ATOM      8  C   UNL     1       4.396   6.953  -9.950  0.00  0.00    +0.038 C 
ATOM      9  C   UNL     1       2.841   6.425 -10.420  0.00  0.00    +0.153 C 
ATOM     10  C   UNL     1       2.217   6.443  -8.914  0.00  0.00    +0.036 C 
ATOM     11  O   UNL     1       3.179   4.953 -10.511  0.00  0.00    -0.223 OA
ATOM     12  C   UNL     1       5.115   6.459 -11.287  0.00  0.00    +0.036 C 
ATOM     13  C   UNL     1       6.129   5.455 -11.096  0.00  0.00    -0.038 C 
ATOM     14  C   UNL     1       6.628   5.048 -12.276  0.00  0.00    +0.034 C 
ATOM     15  C   UNL     1       6.811   5.982 -13.400  0.00  0.00    +0.195 C 
ATOM     16  C   UNL     1       6.625   7.349 -12.897  0.00  0.00    +0.038 C 
ATOM     17  O   UNL     1       6.996   5.677 -14.590  0.00  0.00    -0.287 OA
ATOM     18  C   UNL     1       7.070   5.678  -9.945  0.00  0.00    +0.022 C 
ATOM     19  C   UNL     1       4.170   6.202 -12.386  0.00  0.00    +0.009 C 
ATOM     20  C   UNL     1       5.932   7.613 -11.787  0.00  0.00    -0.020 C 
ATOM     21  C   UNL     1       6.276   6.351  -8.835  0.00  0.00    +0.004 C 
ATOM     22  C   UNL     1       2.809   5.603  -7.962  0.00  0.00    +0.034 C 
ATOM     23  C   UNL     1       3.029   4.134  -8.274  0.00  0.00    +0.003 C 
ATOM     24  O   UNL     1       3.482   5.269  -4.711  0.00  0.00    -0.330 OA
ENDROOT
BRANCH   3  25
ATOM     25  C   UNL     1       0.924   4.968  -6.758  0.00  0.00    +0.210 C 
ATOM     26  O   UNL     1       0.801   3.962  -6.051  0.00  0.00    -0.291 OA
BRANCH  25  27
ATOM     27  C   UNL     1      -0.286   5.827  -6.462  0.00  0.00    +0.248 C 
ATOM     28  O   UNL     1      -1.459   5.219  -6.448  0.00  0.00    -0.212 OA
ENDBRANCH  25  27
ENDBRANCH   3  25
BRANCH   1  29
ATOM     29  C   UNL     1       2.001   6.545  -3.412  0.00  0.00    +0.061 C 
BRANCH  29  31
ATOM     30  C   UNL     1       3.806   8.050  -2.494  0.00  0.00    +0.000 C 
ATOM     31  C   UNL     1       3.365   7.189  -3.650  0.00  0.00    +0.005 C 
ENDBRANCH  29  31
ENDBRANCH   1  29
TORSDOF 4
ENDMDL
MODEL 6
REMARK VINA RESULT:      -8.3      2.615      4.327
REMARK  Name = 
REMARK  4 active torsions:
REMARK  status: ('A' for Active; 'I' for Inactive)
REMARK    1  A    between atoms: C_2  and  C_3
REMARK    2  A    between atoms: C_3  and  C_4
REMARK    3  A    between atoms: C_26  and  C_27
REMARK    4  A    between atoms: C_27  and  C_29
REMARK                            x       y       z     vdW  Elec       q    Type
REMARK                         _______ _______ _______ _____ _____    ______ ____
ROOT
ATOM      1  C   UNL     1       2.721   5.934 -10.798  0.00  0.00    +0.235 C 
ATOM      2  O   UNL     1       3.064   4.944  -9.673  0.00  0.00    -0.326 OA
ATOM      3  C   UNL     1       2.231   5.675  -8.889  0.00  0.00    +0.173 C 
ATOM      4  C   UNL     1       2.711   7.225  -9.161  0.00  0.00    +0.149 C 
ATOM      5  C   UNL     1       3.722   7.358  -7.879  0.00  0.00    +0.033 C 
ATOM      6  C   UNL     1       3.661   5.919  -7.176  0.00  0.00    +0.005 C 
ATOM      7  C   UNL     1       3.263   6.521  -5.649  0.00  0.00    +0.004 C 
ATOM      8  C   UNL     1       3.168   5.012  -4.939  0.00  0.00    +0.038 C 
ATOM      9  C   UNL     1       1.513   4.695  -5.217  0.00  0.00    +0.153 C 
ATOM     10  C   UNL     1       1.647   4.614  -6.839  0.00  0.00    +0.036 C 
ATOM     11  O   UNL     1       1.041   6.127  -5.096  0.00  0.00    -0.223 OA
ATOM     12  C   UNL     1       2.951   5.578  -3.463  0.00  0.00    +0.036 C 
ATOM     13  C   UNL     1       3.342   6.951  -3.274  0.00  0.00    -0.038 C 
ATOM     14  C   UNL     1       3.058   7.363  -2.027  0.00  0.00    +0.034 C 
ATOM     15  C   UNL     1       3.188   6.463  -0.868  0.00  0.00    +0.195 C 
ATOM     16  C   UNL     1       3.897   5.253  -1.303  0.00  0.00    +0.038 C 
ATOM     17  O   UNL     1       2.703   6.641   0.261  0.00  0.00    -0.287 OA
ATOM     18  C   UNL     1       4.651   7.354  -3.895  0.00  0.00    +0.022 C 
ATOM     19  C   UNL     1       1.644   5.210  -2.893  0.00  0.00    +0.009 C 
ATOM     20  C   UNL     1       3.932   4.867  -2.581  0.00  0.00    -0.020 C 
ATOM     21  C   UNL     1       4.802   6.564  -5.186  0.00  0.00    +0.004 C 
ATOM     22  C   UNL     1       2.097   5.761  -7.506  0.00  0.00    +0.034 C 
ATOM     23  C   UNL     1       1.444   7.104  -7.236  0.00  0.00    +0.003 C 
ATOM     24  O   UNL     1       3.786   6.838 -10.174  0.00  0.00    -0.330 OA
ENDROOT
BRANCH   3  25
ATOM     25  C   UNL     1       0.814   5.631  -9.440  0.00  0.00    +0.210 C 
ATOM     26  O   UNL     1       0.481   6.631 -10.087  0.00  0.00    -0.291 OA
BRANCH  25  27
ATOM     27  C   UNL     1       0.452   4.444 -10.305  0.00  0.00    +0.248 C 
ATOM     28  O   UNL     1      -0.325   4.681 -11.347  0.00  0.00    -0.212 OA
ENDBRANCH  25  27
ENDBRANCH   3  25
BRANCH   1  29
ATOM     29  C   UNL     1       3.765   5.232 -11.885  0.00  0.00    +0.061 C 
BRANCH  29  31
ATOM     30  C   UNL     1       6.273   5.417 -12.088  0.00  0.00    +0.000 C 
ATOM     31  C   UNL     1       5.083   5.518 -11.168  0.00  0.00    +0.005 C 
ENDBRANCH  29  31
ENDBRANCH   1  29
TORSDOF 4
ENDMDL
MODEL 7
REMARK VINA RESULT:      -8.3      2.547      7.351
REMARK  Name = 
REMARK  4 active torsions:
REMARK  status: ('A' for Active; 'I' for Inactive)
REMARK    1  A    between atoms: C_2  and  C_3
REMARK    2  A    between atoms: C_3  and  C_4
REMARK    3  A    between atoms: C_26  and  C_27
REMARK    4  A    between atoms: C_27  and  C_29
REMARK                            x       y       z     vdW  Elec       q    Type
REMARK                         _______ _______ _______ _____ _____    ______ ____
ROOT
ATOM      1  C   UNL     1       3.795   7.022  -2.268  0.00  0.00    +0.235 C 
ATOM      2  O   UNL     1       2.682   7.564  -3.179  0.00  0.00    -0.326 OA
ATOM      3  C   UNL     1       2.697   6.349  -3.782  0.00  0.00    +0.173 C 
ATOM      4  C   UNL     1       4.296   6.078  -4.058  0.00  0.00    +0.149 C 
ATOM      5  C   UNL     1       4.338   6.630  -5.600  0.00  0.00    +0.033 C 
ATOM      6  C   UNL     1       2.840   7.122  -5.884  0.00  0.00    +0.005 C 
ATOM      7  C   UNL     1       2.646   6.194  -7.282  0.00  0.00    +0.004 C 
ATOM      8  C   UNL     1       1.072   6.690  -7.546  0.00  0.00    +0.038 C 
ATOM      9  C   UNL     1       0.263   5.475  -6.659  0.00  0.00    +0.153 C 
ATOM     10  C   UNL     1       0.831   5.947  -5.206  0.00  0.00    +0.036 C 
ATOM     11  O   UNL     1       1.252   4.366  -6.943  0.00  0.00    -0.223 OA
ATOM     12  C   UNL     1       0.937   5.944  -8.950  0.00  0.00    +0.036 C 
ATOM     13  C   UNL     1       2.185   5.591  -9.575  0.00  0.00    -0.038 C 
ATOM     14  C   UNL     1       1.975   4.905 -10.712  0.00  0.00    +0.034 C 
ATOM     15  C   UNL     1       0.843   5.215 -11.603  0.00  0.00    +0.195 C 
ATOM     16  C   UNL     1       0.248   6.484 -11.163  0.00  0.00    +0.038 C 
ATOM     17  O   UNL     1       0.399   4.493 -12.509  0.00  0.00    -0.287 OA
ATOM     18  C   UNL     1       3.257   6.644  -9.545  0.00  0.00    +0.022 C 
ATOM     19  C   UNL     1      -0.087   4.885  -8.942  0.00  0.00    +0.009 C 
ATOM     20  C   UNL     1       0.395   6.949  -9.921  0.00  0.00    -0.020 C 
ATOM     21  C   UNL     1       3.111   7.403  -8.236  0.00  0.00    +0.004 C 
ATOM     22  C   UNL     1       2.219   5.921  -5.018  0.00  0.00    +0.034 C 
ATOM     23  C   UNL     1       3.010   4.670  -5.356  0.00  0.00    +0.003 C 
ATOM     24  O   UNL     1       4.749   7.384  -3.408  0.00  0.00    -0.330 OA
ENDROOT
BRANCH   3  25
ATOM     25  C   UNL     1       2.311   5.263  -2.790  0.00  0.00    +0.210 C 
ATOM     26  O   UNL     1       3.235   4.871  -2.068  0.00  0.00    -0.291 OA
BRANCH  25  27
ATOM     27  C   UNL     1       1.161   5.566  -1.856  0.00  0.00    +0.248 C 
ATOM     28  O   UNL     1       0.246   4.624  -1.710  0.00  0.00    -0.212 OA
ENDBRANCH  25  27
ENDBRANCH   3  25
BRANCH   1  29
ATOM     29  C   UNL     1       3.995   8.465  -1.466  0.00  0.00    +0.061 C 
BRANCH  29  31
ATOM     30  C   UNL     1       4.356   8.398   1.029  0.00  0.00    +0.000 C 
ATOM     31  C   UNL     1       3.425   8.063  -0.108  0.00  0.00    +0.005 C 
ENDBRANCH  29  31
ENDBRANCH   1  29
TORSDOF 4
ENDMDL
MODEL 8
REMARK VINA RESULT:      -8.1      2.962      4.961
REMARK  Name = 
REMARK  4 active torsions:
REMARK  status: ('A' for Active; 'I' for Inactive)
REMARK    1  A    between atoms: C_2  and  C_3
REMARK    2  A    between atoms: C_3  and  C_4
REMARK    3  A    between atoms: C_26  and  C_27
REMARK    4  A    between atoms: C_27  and  C_29
REMARK                            x       y       z     vdW  Elec       q    Type
REMARK                         _______ _______ _______ _____ _____    ______ ____
ROOT
ATOM      1  C   UNL     1       0.723   5.531  -8.929  0.00  0.00    +0.235 C 
ATOM      2  O   UNL     1       1.333   4.702  -7.787  0.00  0.00    -0.326 OA
ATOM      3  C   UNL     1       0.813   5.631  -6.945  0.00  0.00    +0.173 C 
ATOM      4  C   UNL     1       1.272   7.059  -7.621  0.00  0.00    +0.149 C 
ATOM      5  C   UNL     1       2.626   7.288  -6.728  0.00  0.00    +0.033 C 
ATOM      6  C   UNL     1       2.701   5.993  -5.786  0.00  0.00    +0.005 C 
ATOM      7  C   UNL     1       2.811   6.869  -4.346  0.00  0.00    +0.004 C 
ATOM      8  C   UNL     1       2.853   5.510  -3.375  0.00  0.00    +0.038 C 
ATOM      9  C   UNL     1       1.175   5.328  -3.106  0.00  0.00    +0.153 C 
ATOM     10  C   UNL     1       0.813   4.977  -4.656  0.00  0.00    +0.036 C 
ATOM     11  O   UNL     1       0.838   6.803  -3.120  0.00  0.00    -0.223 OA
ATOM     12  C   UNL     1       3.117   6.323  -2.027  0.00  0.00    +0.036 C 
ATOM     13  C   UNL     1       3.620   7.660  -2.213  0.00  0.00    -0.038 C 
ATOM     14  C   UNL     1       3.744   8.293  -1.033  0.00  0.00    +0.034 C 
ATOM     15  C   UNL     1       4.167   7.580   0.185  0.00  0.00    +0.195 C 
ATOM     16  C   UNL     1       4.647   6.248  -0.206  0.00  0.00    +0.038 C 
ATOM     17  O   UNL     1       4.052   7.985   1.353  0.00  0.00    -0.287 OA
ATOM     18  C   UNL     1       4.702   7.819  -3.244  0.00  0.00    +0.022 C 
ATOM     19  C   UNL     1       2.023   6.190  -1.051  0.00  0.00    +0.009 C 
ATOM     20  C   UNL     1       4.278   5.663  -1.347  0.00  0.00    -0.020 C 
ATOM     21  C   UNL     1       4.418   6.823  -4.357  0.00  0.00    +0.004 C 
ATOM     22  C   UNL     1       1.104   5.950  -5.621  0.00  0.00    +0.034 C 
ATOM     23  C   UNL     1       0.635   7.380  -5.427  0.00  0.00    +0.003 C 
ATOM     24  O   UNL     1       1.972   6.406  -8.810  0.00  0.00    -0.330 OA
ENDROOT
BRANCH   3  25
ATOM     25  C   UNL     1      -0.704   5.650  -7.052  0.00  0.00    +0.210 C 
ATOM     26  O   UNL     1      -1.228   4.535  -7.158  0.00  0.00    -0.291 OA
BRANCH  25  27
ATOM     27  C   UNL     1      -1.460   6.353  -5.946  0.00  0.00    +0.248 C 
ATOM     28  O   UNL     1      -2.549   5.758  -5.496  0.00  0.00    -0.212 OA
ENDBRANCH  25  27
ENDBRANCH   3  25
BRANCH   1  29
ATOM     29  C   UNL     1       1.354   4.559 -10.121  0.00  0.00    +0.061 C 
BRANCH  29  31
ATOM     30  C   UNL     1      -0.279   6.039 -11.348  0.00  0.00    +0.000 C 
ATOM     31  C   UNL     1       0.201   4.628 -11.120  0.00  0.00    +0.005 C 
ENDBRANCH  29  31
ENDBRANCH   1  29
TORSDOF 4
ENDMDL
MODEL 9
REMARK VINA RESULT:      -7.8      2.240      7.440
REMARK  Name = 
REMARK  4 active torsions:
REMARK  status: ('A' for Active; 'I' for Inactive)
REMARK    1  A    between atoms: C_2  and  C_3
REMARK    2  A    between atoms: C_3  and  C_4
REMARK    3  A    between atoms: C_26  and  C_27
REMARK    4  A    between atoms: C_27  and  C_29
REMARK                            x       y       z     vdW  Elec       q    Type
REMARK                         _______ _______ _______ _____ _____    ______ ____
ROOT
ATOM      1  C   UNL     1      -0.373   5.957  -2.245  0.00  0.00    +0.235 C 
ATOM      2  O   UNL     1       0.132   4.901  -3.242  0.00  0.00    -0.326 OA
ATOM      3  C   UNL     1       1.158   5.752  -3.496  0.00  0.00    +0.173 C 
ATOM      4  C   UNL     1       0.409   7.198  -3.726  0.00  0.00    +0.149 C 
ATOM      5  C   UNL     1       0.317   7.129  -5.360  0.00  0.00    +0.033 C 
ATOM      6  C   UNL     1       0.963   5.710  -5.731  0.00  0.00    +0.005 C 
ATOM      7  C   UNL     1       2.085   6.344  -6.823  0.00  0.00    +0.004 C 
ATOM      8  C   UNL     1       2.772   4.861  -7.173  0.00  0.00    +0.038 C 
ATOM      9  C   UNL     1       3.988   4.845  -5.973  0.00  0.00    +0.153 C 
ATOM     10  C   UNL     1       2.954   4.772  -4.715  0.00  0.00    +0.036 C 
ATOM     11  O   UNL     1       4.247   6.335  -5.971  0.00  0.00    -0.223 OA
ATOM     12  C   UNL     1       3.724   5.429  -8.321  0.00  0.00    +0.036 C 
ATOM     13  C   UNL     1       3.336   6.708  -8.857  0.00  0.00    -0.038 C 
ATOM     14  C   UNL     1       4.230   7.141  -9.762  0.00  0.00    +0.034 C 
ATOM     15  C   UNL     1       4.915   6.210 -10.676  0.00  0.00    +0.195 C 
ATOM     16  C   UNL     1       4.253   4.903 -10.581  0.00  0.00    +0.038 C 
ATOM     17  O   UNL     1       5.933   6.450 -11.345  0.00  0.00    -0.287 OA
ATOM     18  C   UNL     1       1.870   6.887  -9.137  0.00  0.00    +0.022 C 
ATOM     19  C   UNL     1       5.155   5.286  -8.004  0.00  0.00    +0.009 C 
ATOM     20  C   UNL     1       3.538   4.541  -9.514  0.00  0.00    -0.020 C 
ATOM     21  C   UNL     1       1.107   6.107  -8.077  0.00  0.00    +0.004 C 
ATOM     22  C   UNL     1       2.054   5.834  -4.559  0.00  0.00    +0.034 C 
ATOM     23  C   UNL     1       2.557   7.266  -4.566  0.00  0.00    +0.003 C 
ATOM     24  O   UNL     1      -0.991   6.648  -3.462  0.00  0.00    -0.330 OA
ENDROOT
BRANCH   3  25
ATOM     25  C   UNL     1       1.987   5.968  -2.239  0.00  0.00    +0.210 C 
ATOM     26  O   UNL     1       1.651   6.946  -1.561  0.00  0.00    -0.291 OA
BRANCH  25  27
ATOM     27  C   UNL     1       2.078   4.810  -1.271  0.00  0.00    +0.248 C 
ATOM     28  O   UNL     1       3.260   4.578  -0.728  0.00  0.00    -0.212 OA
ENDBRANCH  25  27
ENDBRANCH   3  25
BRANCH   1  29
ATOM     29  C   UNL     1      -1.749   5.102  -1.867  0.00  0.00    +0.061 C 
BRANCH  29  31
ATOM     30  C   UNL     1      -3.839   6.270  -2.662  0.00  0.00    +0.000 C 
ATOM     31  C   UNL     1      -2.610   5.496  -3.065  0.00  0.00    +0.005 C 
ENDBRANCH  29  31
ENDBRANCH   1  29
TORSDOF 4
ENDMDL
