MODEL 1
REMARK VINA RESULT:     -11.5      0.000      0.000
REMARK  Name = 
REMARK  6 active torsions:
REMARK  status: ('A' for Active; 'I' for Inactive)
REMARK    1  A    between atoms: C_2  and  C_3
REMARK    2  A    between atoms: C_6  and  O_7
REMARK    3  A    between atoms: O_7  and  C_8
REMARK    4  A    between atoms: C_8  and  C_10
REMARK    5  A    between atoms: C_10  and  S_11
REMARK    6  A    between atoms: S_11  and  C_12
REMARK                            x       y       z     vdW  Elec       q    Type
REMARK                         _______ _______ _______ _____ _____    ______ ____
ROOT
ATOM      1  C   UNL     1       2.244   5.798 -10.519  0.00  0.00    +0.050 C 
ATOM      2  C   UNL     1       2.467   5.787 -12.003  0.00  0.00    +0.156 C 
ATOM      3  O   UNL     1       1.184   5.834 -12.777  0.00  0.00    -0.223 OA
ATOM      4  C   UNL     1       3.674   5.739 -12.893  0.00  0.00    +0.031 C 
ATOM      5  C   UNL     1       3.314   5.751 -14.349  0.00  0.00    +0.003 C 
ATOM      6  C   UNL     1       5.156   5.683 -12.669  0.00  0.00    +0.009 C 
ATOM      7  C   UNL     1       6.045   5.652 -11.462  0.00  0.00    +0.061 C 
ATOM      8  C   UNL     1       7.468   5.597 -11.935  0.00  0.00    +0.150 C 
ATOM      9  C   UNL     1       7.457   5.595 -13.435  0.00  0.00    +0.065 C 
ATOM     10  O   UNL     1       8.687   5.552 -11.062  0.00  0.00    -0.296 OA
ATOM     11  C   UNL     1       5.822   5.662  -9.978  0.00  0.00    +0.043 C 
ATOM     12  C   UNL     1       4.367   5.718  -9.618  0.00  0.00    +0.004 C 
ATOM     13  C   UNL     1       3.951   5.736  -8.177  0.00  0.00    +0.000 C 
ATOM     14  C   UNL     1       3.327   5.756 -10.699  0.00  0.00    +0.000 C 
ATOM     15  C   UNL     1       7.105   5.615  -9.204  0.00  0.00    +0.004 C 
ATOM     16  C   UNL     1       4.615   5.710  -9.088  0.00  0.00    +0.169 C 
ATOM     17  C   UNL     1       3.743   5.738 -12.140  0.00  0.00    +0.001 C 
ATOM     18  C   UNL     1       6.028   5.648 -13.889  0.00  0.00    +0.008 C 
ATOM     19  C   UNL     1       3.133   5.766  -9.312  0.00  0.00    +0.050 C 
ATOM     20  C   UNL     1       0.870   5.849 -11.120  0.00  0.00    +0.007 C 
ENDROOT
BRANCH   1  22
ATOM     21  C   UNL     1      -0.174   5.849  -9.572  0.00  0.00    -0.005 C 
ATOM     22  C   UNL     1       1.308   5.835  -9.348  0.00  0.00    -0.024 C 
ENDBRANCH   1  22
BRANCH  16  23
ATOM     23  O   UNL     1       4.976   5.698  -7.632  0.00  0.00    -0.452 OA
BRANCH  23  24
ATOM     24  C   UNL     1       3.931   5.999  -6.599  0.00  0.00    +0.328 C 
ATOM     25  O   UNL     1       3.451   7.406  -6.405  0.00  0.00    -0.249 OA
BRANCH  24  26
ATOM     26  C   UNL     1       3.365   4.891  -5.760  0.00  0.00    +0.167 C 
BRANCH  26  27
ATOM     27  S   UNL     1       2.389   5.203  -4.665  0.00  0.00    -0.129 S 
BRANCH  27  28
ATOM     28  C   UNL     1       0.977   5.577  -5.005  0.00  0.00    +0.051 C 
ATOM     29  C   UNL     1       0.201   4.757  -5.993  0.00  0.00    +0.027 C 
ATOM     30  C   UNL     1      -1.202   5.263  -6.225  0.00  0.00    +0.058 C 
ATOM     31  N   UNL     1      -0.308   5.984  -5.261  0.00  0.00    -0.274 NA
ATOM     32  C   UNL     1      -1.072   7.145  -4.697  0.00  0.00    +0.058 C 
ATOM     33  C   UNL     1      -2.441   7.141  -5.312  0.00  0.00    +0.017 C 
ATOM     34  C   UNL     1       0.411   5.642  -5.208  0.00  0.00    +0.090 C 
ATOM     35  C   UNL     1      -2.521   5.978  -6.257  0.00  0.00    +0.017 C 
ATOM     36  C   UNL     1       0.340   6.771  -4.357  0.00  0.00    +0.027 C 
ENDBRANCH  27  28
ENDBRANCH  26  27
ENDBRANCH  24  26
ENDBRANCH  23  24
ENDBRANCH  16  23
TORSDOF 6
ENDMDL
MODEL 2
REMARK VINA RESULT:     -11.4      2.903      9.089
REMARK  Name = 
REMARK  6 active torsions:
REMARK  status: ('A' for Active; 'I' for Inactive)
REMARK    1  A    between atoms: C_2  and  C_3
REMARK    2  A    between atoms: C_6  and  O_7
REMARK    3  A    between atoms: O_7  and  C_8
REMARK    4  A    between atoms: C_8  and  C_10
REMARK    5  A    between atoms: C_10  and  S_11
REMARK    6  A    between atoms: S_11  and  C_12
REMARK                            x       y       z     vdW  Elec       q    Type
REMARK                         _______ _______ _______ _____ _____    ______ ____
ROOT
ATOM      1  C   UNL     1       3.154   6.153  -3.718  0.00  0.00    +0.050 C 
ATOM      2  C   UNL     1       2.301   6.116  -2.484  0.00  0.00    +0.156 C 
ATOM      3  O   UNL     1       3.101   6.293  -1.228  0.00  0.00    -0.223 OA
ATOM      4  C   UNL     1       0.835   5.945  -2.213  0.00  0.00    +0.031 C 
ATOM      5  C   UNL     1       0.514   5.990  -0.748  0.00  0.00    +0.003 C 
ATOM      6  C   UNL     1      -0.383   5.739  -3.062  0.00  0.00    +0.009 C 
ATOM      7  C   UNL     1      -0.643   5.619  -4.534  0.00  0.00    +0.061 C 
ATOM      8  C   UNL     1      -2.117   5.419  -4.731  0.00  0.00    +0.150 C 
ATOM      9  C   UNL     1      -2.768   5.415  -3.380  0.00  0.00    +0.065 C 
ATOM     10  O   UNL     1      -2.816   5.252  -6.048  0.00  0.00    -0.296 OA
ATOM     11  C   UNL     1       0.210   5.656  -5.768  0.00  0.00    +0.043 C 
ATOM     12  C   UNL     1       1.663   5.860  -5.455  0.00  0.00    +0.004 C 
ATOM     13  C   UNL     1       2.668   5.924  -6.567  0.00  0.00    +0.000 C 
ATOM     14  C   UNL     1       2.111   6.001  -4.031  0.00  0.00    +0.000 C 
ATOM     15  C   UNL     1      -0.590   5.480  -7.024  0.00  0.00    +0.004 C 
ATOM     16  C   UNL     1       1.675   5.828  -6.040  0.00  0.00    +0.169 C 
ATOM     17  C   UNL     1       1.106   5.938  -2.919  0.00  0.00    +0.001 C 
ATOM     18  C   UNL     1      -1.697   5.613  -2.348  0.00  0.00    +0.008 C 
ATOM     19  C   UNL     1       2.895   6.034  -5.191  0.00  0.00    +0.050 C 
ATOM     20  C   UNL     1       4.110   6.342  -2.578  0.00  0.00    +0.007 C 
ENDROOT
BRANCH   1  22
ATOM     21  C   UNL     1       5.501   7.262  -3.811  0.00  0.00    -0.005 C 
ATOM     22  C   UNL     1       4.502   6.288  -4.361  0.00  0.00    -0.024 C 
ENDBRANCH   1  22
BRANCH  16  23
ATOM     23  O   UNL     1       1.997   5.783  -7.504  0.00  0.00    -0.452 OA
BRANCH  23  24
ATOM     24  C   UNL     1       2.490   7.015  -8.201  0.00  0.00    +0.328 C 
ATOM     25  O   UNL     1       2.063   8.371  -7.721  0.00  0.00    -0.249 OA
BRANCH  24  26
ATOM     26  C   UNL     1       3.411   6.893  -9.380  0.00  0.00    +0.167 C 
BRANCH  26  27
ATOM     27  S   UNL     1       4.206   5.638  -9.583  0.00  0.00    -0.129 S 
BRANCH  27  28
ATOM     28  C   UNL     1       5.435   5.660 -10.443  0.00  0.00    +0.051 C 
ATOM     29  C   UNL     1       6.785   5.841  -9.816  0.00  0.00    +0.027 C 
ATOM     30  C   UNL     1       7.918   5.841 -10.814  0.00  0.00    +0.058 C 
ATOM     31  N   UNL     1       6.508   5.669 -11.297  0.00  0.00    -0.274 NA
ATOM     32  C   UNL     1       6.542   5.524 -12.789  0.00  0.00    +0.058 C 
ATOM     33  C   UNL     1       7.974   5.605 -13.230  0.00  0.00    +0.017 C 
ATOM     34  C   UNL     1       5.983   5.683 -10.696  0.00  0.00    +0.090 C 
ATOM     35  C   UNL     1       8.825   5.801 -12.009  0.00  0.00    +0.017 C 
ATOM     36  C   UNL     1       5.313   5.502 -11.929  0.00  0.00    +0.027 C 
ENDBRANCH  27  28
ENDBRANCH  26  27
ENDBRANCH  24  26
ENDBRANCH  23  24
ENDBRANCH  16  23
TORSDOF 6
ENDMDL
MODEL 3
REMARK VINA RESULT:     -11.4      2.788      8.000
REMARK  Name = 
REMARK  6 active torsions:
REMARK  status: ('A' for Active; 'I' for Inactive)
REMARK    1  A    between atoms: C_2  and  C_3
REMARK    2  A    between atoms: C_6  and  O_7
REMARK    3  A    between atoms: O_7  and  C_8
REMARK    4  A    between atoms: C_8  and  C_10
REMARK    5  A    between atoms: C_10  and  S_11
REMARK    6  A    between atoms: S_11  and  C_12
REMARK                            x       y       z     vdW  Elec       q    Type
REMARK                         _______ _______ _______ _____ _____    ______ ____
ROOT
ATOM      1  C   UNL     1      -0.996   5.621  -5.083  0.00  0.00    +0.050 C 
ATOM      2  C   UNL     1      -0.972   5.578  -3.584  0.00  0.00    +0.156 C 
ATOM      3  O   UNL     1      -2.347   5.604  -2.986  0.00  0.00    -0.223 OA
ATOM      4  C   UNL     1       0.107   5.515  -2.542  0.00  0.00    +0.031 C 
ATOM      5  C   UNL     1      -0.444   5.492  -1.147  0.00  0.00    +0.003 C 
ATOM      6  C   UNL     1       1.605   5.469  -2.568  0.00  0.00    +0.009 C 
ATOM      7  C   UNL     1       2.647   5.467  -3.647  0.00  0.00    +0.061 C 
ATOM      8  C   UNL     1       3.995   5.407  -2.990  0.00  0.00    +0.150 C 
ATOM      9  C   UNL     1       3.785   5.371  -1.505  0.00  0.00    +0.065 C 
ATOM     10  O   UNL     1       5.320   5.386  -3.694  0.00  0.00    -0.296 OA
ATOM     11  C   UNL     1       2.623   5.510  -5.146  0.00  0.00    +0.043 C 
ATOM     12  C   UNL     1       1.228   5.569  -5.696  0.00  0.00    +0.004 C 
ATOM     13  C   UNL     1       1.008   5.618  -7.179  0.00  0.00    +0.000 C 
ATOM     14  C   UNL     1       0.054   5.579  -4.762  0.00  0.00    +0.000 C 
ATOM     15  C   UNL     1       3.998   5.485  -5.744  0.00  0.00    +0.004 C 
ATOM     16  C   UNL     1       1.545   5.573  -6.188  0.00  0.00    +0.169 C 
ATOM     17  C   UNL     1       0.275   5.531  -3.279  0.00  0.00    +0.001 C 
ATOM     18  C   UNL     1       2.308   5.410  -1.244  0.00  0.00    +0.008 C 
ATOM     19  C   UNL     1       0.046   5.619  -6.162  0.00  0.00    +0.050 C 
ATOM     20  C   UNL     1      -2.437   5.654  -4.669  0.00  0.00    +0.007 C 
ENDROOT
BRANCH   1  22
ATOM     21  C   UNL     1      -3.176   6.196  -6.374  0.00  0.00    -0.005 C 
ATOM     22  C   UNL     1      -1.768   5.682  -6.368  0.00  0.00    -0.024 C 
ENDBRANCH   1  22
BRANCH  16  23
ATOM     23  O   UNL     1       2.096   5.596  -7.583  0.00  0.00    -0.452 OA
BRANCH  23  24
ATOM     24  C   UNL     1       1.913   6.812  -8.441  0.00  0.00    +0.328 C 
ATOM     25  O   UNL     1       2.050   8.180  -7.843  0.00  0.00    -0.249 OA
BRANCH  24  26
ATOM     26  C   UNL     1       1.592   6.659  -9.900  0.00  0.00    +0.167 C 
BRANCH  26  27
ATOM     27  S   UNL     1       2.572   5.990 -10.816  0.00  0.00    -0.129 S 
BRANCH  27  28
ATOM     28  C   UNL     1       4.045   6.131 -10.572  0.00  0.00    +0.051 C 
ATOM     29  C   UNL     1       4.826   7.192 -11.289  0.00  0.00    +0.027 C 
ATOM     30  C   UNL     1       6.293   7.202 -10.934  0.00  0.00    +0.058 C 
ATOM     31  N   UNL     1       5.386   6.194 -10.293  0.00  0.00    -0.274 NA
ATOM     32  C   UNL     1       6.210   5.352  -9.365  0.00  0.00    +0.058 C 
ATOM     33  C   UNL     1       7.627   5.840  -9.432  0.00  0.00    +0.017 C 
ATOM     34  C   UNL     1       4.633   6.269 -10.544  0.00  0.00    +0.090 C 
ATOM     35  C   UNL     1       7.679   6.984 -10.402  0.00  0.00    +0.017 C 
ATOM     36  C   UNL     1       4.737   5.211  -9.610  0.00  0.00    +0.027 C 
ENDBRANCH  27  28
ENDBRANCH  26  27
ENDBRANCH  24  26
ENDBRANCH  23  24
ENDBRANCH  16  23
TORSDOF 6
ENDMDL
MODEL 4
REMARK VINA RESULT:     -11.3      2.840      8.562
REMARK  Name = 
REMARK  6 active torsions:
REMARK  status: ('A' for Active; 'I' for Inactive)
REMARK    1  A    between atoms: C_2  and  C_3
REMARK    2  A    between atoms: C_6  and  O_7
REMARK    3  A    between atoms: O_7  and  C_8
REMARK    4  A    between atoms: C_8  and  C_10
REMARK    5  A    between atoms: C_10  and  S_11
REMARK    6  A    between atoms: S_11  and  C_12
REMARK                            x       y       z     vdW  Elec       q    Type
REMARK                         _______ _______ _______ _____ _____    ______ ____
ROOT
ATOM      1  C   UNL     1      -0.227   5.271  -6.127  0.00  0.00    +0.050 C 
ATOM      2  C   UNL     1      -1.368   5.697  -5.251  0.00  0.00    +0.156 C 
ATOM      3  O   UNL     1      -2.659   5.813  -6.006  0.00  0.00    -0.223 OA
ATOM      4  C   UNL     1      -1.521   6.035  -3.797  0.00  0.00    +0.031 C 
ATOM      5  C   UNL     1      -2.928   6.409  -3.439  0.00  0.00    +0.003 C 
ATOM      6  C   UNL     1      -0.596   6.086  -2.618  0.00  0.00    +0.009 C 
ATOM      7  C   UNL     1       0.865   5.820  -2.403  0.00  0.00    +0.061 C 
ATOM      8  C   UNL     1       1.171   6.059  -0.954  0.00  0.00    +0.150 C 
ATOM      9  C   UNL     1      -0.100   6.472  -0.274  0.00  0.00    +0.065 C 
ATOM     10  O   UNL     1       2.514   5.911  -0.300  0.00  0.00    -0.296 OA
ATOM     11  C   UNL     1       2.006   5.394  -3.279  0.00  0.00    +0.043 C 
ATOM     12  C   UNL     1       1.588   5.183  -4.704  0.00  0.00    +0.004 C 
ATOM     13  C   UNL     1       2.598   4.754  -5.726  0.00  0.00    +0.000 C 
ATOM     14  C   UNL     1       0.160   5.403  -5.106  0.00  0.00    +0.000 C 
ATOM     15  C   UNL     1       3.297   5.277  -2.524  0.00  0.00    +0.004 C 
ATOM     16  C   UNL     1       2.158   5.056  -4.732  0.00  0.00    +0.169 C 
ATOM     17  C   UNL     1      -0.850   5.832  -4.084  0.00  0.00    +0.001 C 
ATOM     18  C   UNL     1      -1.192   6.489  -1.302  0.00  0.00    +0.008 C 
ATOM     19  C   UNL     1       1.233   5.005  -5.912  0.00  0.00    +0.050 C 
ATOM     20  C   UNL     1      -1.416   5.332  -7.039  0.00  0.00    +0.007 C 
ENDROOT
BRANCH   1  22
ATOM     21  C   UNL     1      -0.183   5.587  -8.705  0.00  0.00    -0.005 C 
ATOM     22  C   UNL     1       0.298   4.876  -7.475  0.00  0.00    -0.024 C 
ENDBRANCH   1  22
BRANCH  16  23
ATOM     23  O   UNL     1       3.566   4.681  -5.090  0.00  0.00    -0.452 OA
BRANCH  23  24
ATOM     24  C   UNL     1       4.352   5.539  -6.036  0.00  0.00    +0.328 C 
ATOM     25  O   UNL     1       4.802   6.905  -5.613  0.00  0.00    -0.249 OA
BRANCH  24  26
ATOM     26  C   UNL     1       4.689   5.029  -7.407  0.00  0.00    +0.167 C 
BRANCH  26  27
ATOM     27  S   UNL     1       4.584   5.941  -8.592  0.00  0.00    -0.129 S 
BRANCH  27  28
ATOM     28  C   UNL     1       5.556   5.810  -9.727  0.00  0.00    +0.051 C 
ATOM     29  C   UNL     1       7.029   5.923  -9.470  0.00  0.00    +0.027 C 
ATOM     30  C   UNL     1       7.872   5.768 -10.713  0.00  0.00    +0.058 C 
ATOM     31  N   UNL     1       6.378   5.679 -10.817  0.00  0.00    -0.274 NA
ATOM     32  C   UNL     1       6.027   5.435 -12.255  0.00  0.00    +0.058 C 
ATOM     33  C   UNL     1       7.303   5.373 -13.040  0.00  0.00    +0.017 C 
ATOM     34  C   UNL     1       6.024   5.773 -10.109  0.00  0.00    +0.090 C 
ATOM     35  C   UNL     1       8.444   5.579 -12.088  0.00  0.00    +0.017 C 
ATOM     36  C   UNL     1       5.055   5.566 -11.120  0.00  0.00    +0.027 C 
ENDBRANCH  27  28
ENDBRANCH  26  27
ENDBRANCH  24  26
ENDBRANCH  23  24
ENDBRANCH  16  23
TORSDOF 6
ENDMDL
MODEL 5
REMARK VINA RESULT:     -11.2      3.476      8.461
REMARK  Name = 
REMARK  6 active torsions:
REMARK  status: ('A' for Active; 'I' for Inactive)
REMARK    1  A    between atoms: C_2  and  C_3
REMARK    2  A    between atoms: C_6  and  O_7
REMARK    3  A    between atoms: O_7  and  C_8
REMARK    4  A    between atoms: C_8  and  C_10
REMARK    5  A    between atoms: C_10  and  S_11
REMARK    6  A    between atoms: S_11  and  C_12
REMARK                            x       y       z     vdW  Elec       q    Type
REMARK                         _______ _______ _______ _____ _____    ______ ____
ROOT
ATOM      1  C   UNL     1      -0.672   5.603  -4.836  0.00  0.00    +0.050 C 
ATOM      2  C   UNL     1      -1.874   5.961  -4.013  0.00  0.00    +0.156 C 
ATOM      3  O   UNL     1      -3.150   5.884  -4.797  0.00  0.00    -0.223 OA
ATOM      4  C   UNL     1      -2.099   6.378  -2.589  0.00  0.00    +0.031 C 
ATOM      5  C   UNL     1      -3.548   6.620  -2.284  0.00  0.00    +0.003 C 
ATOM      6  C   UNL     1      -1.216   6.610  -1.400  0.00  0.00    +0.009 C 
ATOM      7  C   UNL     1       0.259   6.521  -1.140  0.00  0.00    +0.061 C 
ATOM      8  C   UNL     1       0.501   6.890   0.294  0.00  0.00    +0.150 C 
ATOM      9  C   UNL     1      -0.825   7.206   0.920  0.00  0.00    +0.065 C 
ATOM     10  O   UNL     1       1.834   6.934   0.981  0.00  0.00    -0.296 OA
ATOM     11  C   UNL     1       1.461   6.163  -1.963  0.00  0.00    +0.043 C 
ATOM     12  C   UNL     1       1.105   5.812  -3.377  0.00  0.00    +0.004 C 
ATOM     13  C   UNL     1       2.181   5.427  -4.349  0.00  0.00    +0.000 C 
ATOM     14  C   UNL     1      -0.328   5.846  -3.820  0.00  0.00    +0.000 C 
ATOM     15  C   UNL     1       2.737   6.240  -1.179  0.00  0.00    +0.004 C 
ATOM     16  C   UNL     1       1.686   5.746  -3.386  0.00  0.00    +0.169 C 
ATOM     17  C   UNL     1      -1.404   6.231  -2.849  0.00  0.00    +0.001 C 
ATOM     18  C   UNL     1      -1.886   7.034  -0.126  0.00  0.00    +0.008 C 
ATOM     19  C   UNL     1       0.803   5.514  -4.576  0.00  0.00    +0.050 C 
ATOM     20  C   UNL     1      -1.836   5.472  -5.771  0.00  0.00    +0.007 C 
ENDROOT
BRANCH   1  22
ATOM     21  C   UNL     1      -0.932   5.092  -7.369  0.00  0.00    -0.005 C 
ATOM     22  C   UNL     1      -0.073   5.178  -6.143  0.00  0.00    -0.024 C 
ENDBRANCH   1  22
BRANCH  16  23
ATOM     23  O   UNL     1       3.135   5.504  -3.691  0.00  0.00    -0.452 OA
BRANCH  23  24
ATOM     24  C   UNL     1       3.743   6.073  -4.938  0.00  0.00    +0.328 C 
ATOM     25  O   UNL     1       3.833   7.560  -5.118  0.00  0.00    -0.249 OA
BRANCH  24  26
ATOM     26  C   UNL     1       4.263   5.155  -6.006  0.00  0.00    +0.167 C 
BRANCH  26  27
ATOM     27  S   UNL     1       4.428   5.656  -7.409  0.00  0.00    -0.129 S 
BRANCH  27  28
ATOM     28  C   UNL     1       3.246   5.707  -8.332  0.00  0.00    +0.051 C 
ATOM     29  C   UNL     1       2.552   7.012  -8.589  0.00  0.00    +0.027 C 
ATOM     30  C   UNL     1       1.383   6.894  -9.538  0.00  0.00    +0.058 C 
ATOM     31  N   UNL     1       2.175   5.670  -9.186  0.00  0.00    -0.274 NA
ATOM     32  C   UNL     1       1.577   4.505  -9.919  0.00  0.00    +0.058 C 
ATOM     33  C   UNL     1       0.416   5.010 -10.723  0.00  0.00    +0.017 C 
ATOM     34  C   UNL     1       2.769   5.834  -8.680  0.00  0.00    +0.090 C 
ATOM     35  C   UNL     1       0.296   6.487 -10.488  0.00  0.00    +0.017 C 
ATOM     36  C   UNL     1       2.759   4.454  -8.997  0.00  0.00    +0.027 C 
ENDBRANCH  27  28
ENDBRANCH  26  27
ENDBRANCH  24  26
ENDBRANCH  23  24
ENDBRANCH  16  23
TORSDOF 6
ENDMDL
MODEL 6
REMARK VINA RESULT:     -11.0      1.204      1.923
REMARK  Name = 
REMARK  6 active torsions:
REMARK  status: ('A' for Active; 'I' for Inactive)
REMARK    1  A    between atoms: C_2  and  C_3
REMARK    2  A    between atoms: C_6  and  O_7
REMARK    3  A    between atoms: O_7  and  C_8
REMARK    4  A    between atoms: C_8  and  C_10
REMARK    5  A    between atoms: C_10  and  S_11
REMARK    6  A    between atoms: S_11  and  C_12
REMARK                            x       y       z     vdW  Elec       q    Type
REMARK                         _______ _______ _______ _____ _____    ______ ____
ROOT
ATOM      1  C   UNL     1       2.646   5.982 -12.603  0.00  0.00    +0.050 C 
ATOM      2  C   UNL     1       3.682   6.075 -13.683  0.00  0.00    +0.156 C 
ATOM      3  O   UNL     1       3.080   6.285 -15.041  0.00  0.00    -0.223 OA
ATOM      4  C   UNL     1       5.181   6.006 -13.724  0.00  0.00    +0.031 C 
ATOM      5  C   UNL     1       5.725   6.164 -15.113  0.00  0.00    +0.003 C 
ATOM      6  C   UNL     1       6.262   5.817 -12.702  0.00  0.00    +0.009 C 
ATOM      7  C   UNL     1       6.293   5.618 -11.216  0.00  0.00    +0.061 C 
ATOM      8  C   UNL     1       7.728   5.492 -10.795  0.00  0.00    +0.150 C 
ATOM      9  C   UNL     1       8.583   5.613 -12.021  0.00  0.00    +0.065 C 
ATOM     10  O   UNL     1       8.221   5.282  -9.394  0.00  0.00    -0.296 OA
ATOM     11  C   UNL     1       5.256   5.526 -10.135  0.00  0.00    +0.043 C 
ATOM     12  C   UNL     1       3.861   5.665 -10.667  0.00  0.00    +0.004 C 
ATOM     13  C   UNL     1       2.691   5.598  -9.729  0.00  0.00    +0.000 C 
ATOM     14  C   UNL     1       3.634   5.871 -12.135  0.00  0.00    +0.000 C 
ATOM     15  C   UNL     1       5.858   5.316  -8.778  0.00  0.00    +0.004 C 
ATOM     16  C   UNL     1       3.759   5.594 -10.095  0.00  0.00    +0.169 C 
ATOM     17  C   UNL     1       4.804   5.938 -13.072  0.00  0.00    +0.001 C 
ATOM     18  C   UNL     1       7.677   5.814 -13.200  0.00  0.00    +0.008 C 
ATOM     19  C   UNL     1       2.677   5.783 -11.117  0.00  0.00    +0.050 C 
ATOM     20  C   UNL     1       1.870   6.188 -13.870  0.00  0.00    +0.007 C 
ENDROOT
BRANCH   1  22
ATOM     21  C   UNL     1       0.304   7.106 -12.629  0.00  0.00    -0.005 C 
ATOM     22  C   UNL     1       1.207   5.996 -12.179  0.00  0.00    -0.024 C 
ENDBRANCH   1  22
BRANCH  16  23
ATOM     23  O   UNL     1       3.214   5.436  -8.706  0.00  0.00    -0.452 OA
BRANCH  23  24
ATOM     24  C   UNL     1       3.002   6.643  -7.842  0.00  0.00    +0.328 C 
ATOM     25  O   UNL     1       2.442   7.902  -8.436  0.00  0.00    -0.249 OA
BRANCH  24  26
ATOM     26  C   UNL     1       3.350   6.593  -6.383  0.00  0.00    +0.167 C 
BRANCH  26  27
ATOM     27  S   UNL     1       2.460   5.861  -5.425  0.00  0.00    -0.129 S 
BRANCH  27  28
ATOM     28  C   UNL     1       0.970   6.007  -5.524  0.00  0.00    +0.051 C 
ATOM     29  C   UNL     1       0.266   7.063  -4.725  0.00  0.00    +0.027 C 
ATOM     30  C   UNL     1      -1.229   7.081  -4.936  0.00  0.00    +0.058 C 
ATOM     31  N   UNL     1      -0.392   6.076  -5.671  0.00  0.00    -0.274 NA
ATOM     32  C   UNL     1      -1.305   5.245  -6.522  0.00  0.00    +0.058 C 
ATOM     33  C   UNL     1      -2.707   5.735  -6.314  0.00  0.00    +0.017 C 
ATOM     34  C   UNL     1       0.383   6.147  -5.493  0.00  0.00    +0.090 C 
ATOM     35  C   UNL     1      -2.661   6.870  -5.333  0.00  0.00    +0.017 C 
ATOM     36  C   UNL     1       0.185   5.098  -6.423  0.00  0.00    +0.027 C 
ENDBRANCH  27  28
ENDBRANCH  26  27
ENDBRANCH  24  26
ENDBRANCH  23  24
ENDBRANCH  16  23
TORSDOF 6
ENDMDL
MODEL 7
REMARK VINA RESULT:     -10.8      3.127      9.336
REMARK  Name = 
REMARK  6 active torsions:
REMARK  status: ('A' for Active; 'I' for Inactive)
REMARK    1  A    between atoms: C_2  and  C_3
REMARK    2  A    between atoms: C_6  and  O_7
REMARK    3  A    between atoms: O_7  and  C_8
REMARK    4  A    between atoms: C_8  and  C_10
REMARK    5  A    between atoms: C_10  and  S_11
REMARK    6  A    between atoms: S_11  and  C_12
REMARK                            x       y       z     vdW  Elec       q    Type
REMARK                         _______ _______ _______ _____ _____    ______ ____
ROOT
ATOM      1  C   UNL     1       2.093   5.780  -2.083  0.00  0.00    +0.050 C 
ATOM      2  C   UNL     1       0.912   5.975  -1.178  0.00  0.00    +0.156 C 
ATOM      3  O   UNL     1       1.312   6.185   0.252  0.00  0.00    -0.223 OA
ATOM      4  C   UNL     1      -0.577   6.008  -1.369  0.00  0.00    +0.031 C 
ATOM      5  C   UNL     1      -1.315   6.244  -0.085  0.00  0.00    +0.003 C 
ATOM      6  C   UNL     1      -1.499   5.860  -2.542  0.00  0.00    +0.009 C 
ATOM      7  C   UNL     1      -1.316   5.619  -4.011  0.00  0.00    +0.061 C 
ATOM      8  C   UNL     1      -2.675   5.576  -4.647  0.00  0.00    +0.150 C 
ATOM      9  C   UNL     1      -3.696   5.791  -3.570  0.00  0.00    +0.065 C 
ATOM     10  O   UNL     1      -2.961   5.356  -6.103  0.00  0.00    -0.296 OA
ATOM     11  C   UNL     1      -0.135   5.425  -4.916  0.00  0.00    +0.043 C 
ATOM     12  C   UNL     1       1.169   5.486  -4.178  0.00  0.00    +0.004 C 
ATOM     13  C   UNL     1       2.461   5.313  -4.921  0.00  0.00    +0.000 C 
ATOM     14  C   UNL     1       1.182   5.722  -2.696  0.00  0.00    +0.000 C 
ATOM     15  C   UNL     1      -0.535   5.214  -6.346  0.00  0.00    +0.004 C 
ATOM     16  C   UNL     1       1.352   5.391  -4.725  0.00  0.00    +0.169 C 
ATOM     17  C   UNL     1      -0.110   5.895  -1.953  0.00  0.00    +0.001 C 
ATOM     18  C   UNL     1      -2.970   5.967  -2.270  0.00  0.00    +0.008 C 
ATOM     19  C   UNL     1       2.275   5.539  -3.552  0.00  0.00    +0.050 C 
ATOM     20  C   UNL     1       2.677   5.973  -0.715  0.00  0.00    +0.007 C 
ENDROOT
BRANCH   1  22
ATOM     21  C   UNL     1       4.450   5.190  -1.165  0.00  0.00    -0.005 C 
ATOM     22  C   UNL     1       3.576   5.686  -2.279  0.00  0.00    -0.024 C 
ENDBRANCH   1  22
BRANCH  16  23
ATOM     23  O   UNL     1       2.091   5.156  -6.010  0.00  0.00    -0.452 OA
BRANCH  23  24
ATOM     24  C   UNL     1       2.559   6.320  -6.829  0.00  0.00    +0.328 C 
ATOM     25  O   UNL     1       3.431   7.372  -6.210  0.00  0.00    -0.249 OA
BRANCH  24  26
ATOM     26  C   UNL     1       2.156   6.434  -8.271  0.00  0.00    +0.167 C 
BRANCH  26  27
ATOM     27  S   UNL     1       2.814   5.570  -9.304  0.00  0.00    -0.129 S 
BRANCH  27  28
ATOM     28  C   UNL     1       4.182   5.919  -9.812  0.00  0.00    +0.051 C 
ATOM     29  C   UNL     1       4.332   6.743 -11.056  0.00  0.00    +0.027 C 
ATOM     30  C   UNL     1       5.770   7.006 -11.433  0.00  0.00    +0.058 C 
ATOM     31  N   UNL     1       5.465   6.194 -10.210  0.00  0.00    -0.274 NA
ATOM     32  C   UNL     1       6.767   5.791  -9.583  0.00  0.00    +0.058 C 
ATOM     33  C   UNL     1       7.878   6.355 -10.419  0.00  0.00    +0.017 C 
ATOM     34  C   UNL     1       4.680   6.111 -10.095  0.00  0.00    +0.090 C 
ATOM     35  C   UNL     1       7.262   7.106 -11.563  0.00  0.00    +0.017 C 
ATOM     36  C   UNL     1       5.400   5.443  -9.076  0.00  0.00    +0.027 C 
ENDBRANCH  27  28
ENDBRANCH  26  27
ENDBRANCH  24  26
ENDBRANCH  23  24
ENDBRANCH  16  23
TORSDOF 6
ENDMDL
MODEL 8
REMARK VINA RESULT:     -10.7      1.946      3.120
REMARK  Name = 
REMARK  6 active torsions:
REMARK  status: ('A' for Active; 'I' for Inactive)
REMARK    1  A    between atoms: C_2  and  C_3
REMARK    2  A    between atoms: C_6  and  O_7
REMARK    3  A    between atoms: O_7  and  C_8
REMARK    4  A    between atoms: C_8  and  C_10
REMARK    5  A    between atoms: C_10  and  S_11
REMARK    6  A    between atoms: S_11  and  C_12
REMARK                            x       y       z     vdW  Elec       q    Type
REMARK                         _______ _______ _______ _____ _____    ______ ____
ROOT
ATOM      1  C   UNL     1       2.597   6.127 -12.489  0.00  0.00    +0.050 C 
ATOM      2  C   UNL     1       3.610   6.119 -13.595  0.00  0.00    +0.156 C 
ATOM      3  O   UNL     1       2.985   6.295 -14.947  0.00  0.00    -0.223 OA
ATOM      4  C   UNL     1       5.102   5.975 -13.666  0.00  0.00    +0.031 C 
ATOM      5  C   UNL     1       5.619   6.042 -15.072  0.00  0.00    +0.003 C 
ATOM      6  C   UNL     1       6.197   5.781 -12.660  0.00  0.00    +0.009 C 
ATOM      7  C   UNL     1       6.256   5.650 -11.167  0.00  0.00    +0.061 C 
ATOM      8  C   UNL     1       7.693   5.473 -10.773  0.00  0.00    +0.150 C 
ATOM      9  C   UNL     1       8.522   5.495 -12.022  0.00  0.00    +0.065 C 
ATOM     10  O   UNL     1       8.209   5.304  -9.375  0.00  0.00    -0.296 OA
ATOM     11  C   UNL     1       5.243   5.658 -10.061  0.00  0.00    +0.043 C 
ATOM     12  C   UNL     1       3.842   5.841 -10.567  0.00  0.00    +0.004 C 
ATOM     13  C   UNL     1       2.694   5.874  -9.602  0.00  0.00    +0.000 C 
ATOM     14  C   UNL     1       3.590   5.990 -12.038  0.00  0.00    +0.000 C 
ATOM     15  C   UNL     1       5.867   5.482  -8.709  0.00  0.00    +0.004 C 
ATOM     16  C   UNL     1       3.751   5.801  -9.990  0.00  0.00    +0.169 C 
ATOM     17  C   UNL     1       4.738   5.956 -13.003  0.00  0.00    +0.001 C 
ATOM     18  C   UNL     1       7.598   5.686 -13.189  0.00  0.00    +0.008 C 
ATOM     19  C   UNL     1       2.655   5.995 -10.996  0.00  0.00    +0.050 C 
ATOM     20  C   UNL     1       1.801   6.312 -13.746  0.00  0.00    +0.007 C 
ENDROOT
BRANCH   1  22
ATOM     21  C   UNL     1       0.251   7.227 -12.675  0.00  0.00    -0.005 C 
ATOM     22  C   UNL     1       1.171   6.231 -12.034  0.00  0.00    -0.024 C 
ENDBRANCH   1  22
BRANCH  16  23
ATOM     23  O   UNL     1       3.234   5.735  -8.584  0.00  0.00    -0.452 OA
BRANCH  23  24
ATOM     24  C   UNL     1       2.365   4.590  -8.158  0.00  0.00    +0.328 C 
ATOM     25  O   UNL     1       2.578   3.226  -8.746  0.00  0.00    -0.249 OA
BRANCH  24  26
ATOM     26  C   UNL     1       1.281   4.807  -7.143  0.00  0.00    +0.167 C 
BRANCH  26  27
ATOM     27  S   UNL     1       1.560   4.582  -5.687  0.00  0.00    -0.129 S 
BRANCH  27  28
ATOM     28  C   UNL     1       2.544   5.457  -4.969  0.00  0.00    +0.051 C 
ATOM     29  C   UNL     1       4.016   5.232  -5.145  0.00  0.00    +0.027 C 
ATOM     30  C   UNL     1       4.871   6.195  -4.356  0.00  0.00    +0.058 C 
ATOM     31  N   UNL     1       3.377   6.300  -4.278  0.00  0.00    -0.274 NA
ATOM     32  C   UNL     1       3.039   7.433  -3.355  0.00  0.00    +0.058 C 
ATOM     33  C   UNL     1       4.324   8.029  -2.863  0.00  0.00    +0.017 C 
ATOM     34  C   UNL     1       3.016   5.749  -4.728  0.00  0.00    +0.090 C 
ATOM     35  C   UNL     1       5.458   7.264  -3.481  0.00  0.00    +0.017 C 
ATOM     36  C   UNL     1       2.055   6.557  -4.074  0.00  0.00    +0.027 C 
ENDBRANCH  27  28
ENDBRANCH  26  27
ENDBRANCH  24  26
ENDBRANCH  23  24
ENDBRANCH  16  23
TORSDOF 6
ENDMDL
MODEL 9
REMARK VINA RESULT:     -10.6      3.025      8.830
REMARK  Name = 
REMARK  6 active torsions:
REMARK  status: ('A' for Active; 'I' for Inactive)
REMARK    1  A    between atoms: C_2  and  C_3
REMARK    2  A    between atoms: C_6  and  O_7
REMARK    3  A    between atoms: O_7  and  C_8
REMARK    4  A    between atoms: C_8  and  C_10
REMARK    5  A    between atoms: C_10  and  S_11
REMARK    6  A    between atoms: S_11  and  C_12
REMARK                            x       y       z     vdW  Elec       q    Type
REMARK                         _______ _______ _______ _____ _____    ______ ____
ROOT
ATOM      1  C   UNL     1       2.312   6.075  -1.888  0.00  0.00    +0.050 C 
ATOM      2  C   UNL     1       1.126   6.350  -1.010  0.00  0.00    +0.156 C 
ATOM      3  O   UNL     1       1.521   6.707   0.392  0.00  0.00    -0.223 OA
ATOM      4  C   UNL     1      -0.362   6.351  -1.207  0.00  0.00    +0.031 C 
ATOM      5  C   UNL     1      -1.105   6.709   0.046  0.00  0.00    +0.003 C 
ATOM      6  C   UNL     1      -1.279   6.079  -2.361  0.00  0.00    +0.009 C 
ATOM      7  C   UNL     1      -1.090   5.692  -3.798  0.00  0.00    +0.061 C 
ATOM      8  C   UNL     1      -2.447   5.573  -4.428  0.00  0.00    +0.150 C 
ATOM      9  C   UNL     1      -3.473   5.887  -3.381  0.00  0.00    +0.065 C 
ATOM     10  O   UNL     1      -2.727   5.206  -5.855  0.00  0.00    -0.296 OA
ATOM     11  C   UNL     1       0.095   5.417  -4.675  0.00  0.00    +0.043 C 
ATOM     12  C   UNL     1       1.397   5.564  -3.945  0.00  0.00    +0.004 C 
ATOM     13  C   UNL     1       2.692   5.328  -4.664  0.00  0.00    +0.000 C 
ATOM     14  C   UNL     1       1.403   5.948  -2.495  0.00  0.00    +0.000 C 
ATOM     15  C   UNL     1      -0.299   5.060  -6.078  0.00  0.00    +0.004 C 
ATOM     16  C   UNL     1       1.582   5.416  -4.480  0.00  0.00    +0.169 C 
ATOM     17  C   UNL     1       0.108   6.184  -1.775  0.00  0.00    +0.001 C 
ATOM     18  C   UNL     1      -2.752   6.199  -2.103  0.00  0.00    +0.008 C 
ATOM     19  C   UNL     1       2.500   5.689  -3.325  0.00  0.00    +0.050 C 
ATOM     20  C   UNL     1       2.891   6.410  -0.546  0.00  0.00    +0.007 C 
ENDROOT
BRANCH   1  22
ATOM     21  C   UNL     1       4.719   6.669  -1.114  0.00  0.00    -0.005 C 
ATOM     22  C   UNL     1       3.797   5.974  -2.071  0.00  0.00    -0.024 C 
ENDBRANCH   1  22
BRANCH  16  23
ATOM     23  O   UNL     1       2.326   5.058  -5.732  0.00  0.00    -0.452 OA
BRANCH  23  24
ATOM     24  C   UNL     1       3.229   6.064  -6.381  0.00  0.00    +0.328 C 
ATOM     25  O   UNL     1       2.835   7.511  -6.421  0.00  0.00    -0.249 OA
BRANCH  24  26
ATOM     26  C   UNL     1       4.528   5.623  -6.990  0.00  0.00    +0.167 C 
BRANCH  26  27
ATOM     27  S   UNL     1       4.557   5.092  -8.391  0.00  0.00    -0.129 S 
BRANCH  27  28
ATOM     28  C   UNL     1       3.349   5.230  -9.270  0.00  0.00    +0.051 C 
ATOM     29  C   UNL     1       3.278   6.339 -10.278  0.00  0.00    +0.027 C 
ATOM     30  C   UNL     1       2.000   6.340 -11.082  0.00  0.00    +0.058 C 
ATOM     31  N   UNL     1       2.212   5.287 -10.035  0.00  0.00    -0.274 NA
ATOM     32  C   UNL     1       1.005   4.397 -10.021  0.00  0.00    +0.058 C 
ATOM     33  C   UNL     1       0.046   4.899 -11.059  0.00  0.00    +0.017 C 
ATOM     34  C   UNL     1       2.914   5.371  -9.666  0.00  0.00    +0.090 C 
ATOM     35  C   UNL     1       0.661   6.101 -11.716  0.00  0.00    +0.017 C 
ATOM     36  C   UNL     1       2.213   4.259  -9.142  0.00  0.00    +0.027 C 
ENDBRANCH  27  28
ENDBRANCH  26  27
ENDBRANCH  24  26
ENDBRANCH  23  24
ENDBRANCH  16  23
TORSDOF 6
ENDMDL
