MODEL 1
REMARK VINA RESULT:      -4.6      0.000      0.000
REMARK  Name = 
REMARK  3 active torsions:
REMARK  status: ('A' for Active; 'I' for Inactive)
REMARK    1  A    between atoms: CA_2  and  CB_3
REMARK    2  A    between atoms: CA_2  and  C_9
REMARK    3  A    between atoms: CB_3  and  CG_4
REMARK                            x       y       z     vdW  Elec       q    Type
REMARK                         _______ _______ _______ _____ _____    ______ ____
ROOT
ATOM      1  CB  HIS A   1       5.786   5.652 -11.540  0.00  0.00    +0.078 C 
ENDROOT
BRANCH   1   2
ATOM      2  CG  HIS A   1       4.727   5.683 -10.483  0.00  0.00    +0.082 A 
ATOM      3  ND1 HIS A   1       4.908   5.028  -9.316  0.00  0.00    -0.227 NA
ATOM      4  CE1 HIS A   1       3.805   4.423  -8.905  0.00  0.00    +0.199 A 
ATOM      5  NE2 HIS A   1       2.823   4.931  -9.684  0.00  0.00    -0.221 NA
ATOM      6  CD2 HIS A   1       3.363   5.787 -10.588  0.00  0.00    +0.115 A 
ENDBRANCH   1   2
BRANCH   1   8
ATOM      7  N   HIS A   1       7.292   7.295 -10.928  0.00  0.00    -0.120 NA
ATOM      8  CA  HIS A   1       7.217   5.728 -10.728  0.00  0.00    +0.200 C 
BRANCH   8   9
ATOM      9  C   HIS A   1       8.091   5.455 -12.052  0.00  0.00    +0.382 C 
ATOM     10  OXT HIS A   1       7.664   4.599 -12.992  0.00  0.00    -0.244 OA
ATOM     11  O   HIS A   1       9.257   5.847 -12.044  0.00  0.00    -0.244 OA
ENDBRANCH   8   9
ENDBRANCH   1   8
TORSDOF 3
ENDMDL
MODEL 2
REMARK VINA RESULT:      -4.5      2.858      4.557
REMARK  Name = 
REMARK  3 active torsions:
REMARK  status: ('A' for Active; 'I' for Inactive)
REMARK    1  A    between atoms: CA_2  and  CB_3
REMARK    2  A    between atoms: CA_2  and  C_9
REMARK    3  A    between atoms: CB_3  and  CG_4
REMARK                            x       y       z     vdW  Elec       q    Type
REMARK                         _______ _______ _______ _____ _____    ______ ____
ROOT
ATOM      1  CB  HIS A   1       6.157   6.086 -10.153  0.00  0.00    +0.078 C 
ENDROOT
BRANCH   1   2
ATOM      2  CG  HIS A   1       6.948   6.001 -11.422  0.00  0.00    +0.082 A 
ATOM      3  ND1 HIS A   1       6.400   6.384 -12.594  0.00  0.00    -0.227 NA
ATOM      4  CE1 HIS A   1       6.722   5.571 -13.587  0.00  0.00    +0.199 A 
ATOM      5  NE2 HIS A   1       7.724   4.807 -13.095  0.00  0.00    -0.221 NA
ATOM      6  CD2 HIS A   1       7.944   5.135 -11.797  0.00  0.00    +0.115 A 
ENDBRANCH   1   2
BRANCH   1   8
ATOM      7  N   HIS A   1       3.964   6.810 -10.080  0.00  0.00    -0.120 NA
ATOM      8  CA  HIS A   1       4.675   5.468 -10.519  0.00  0.00    +0.200 C 
BRANCH   8   9
ATOM      9  C   HIS A   1       4.483   4.816  -9.060  0.00  0.00    +0.382 C 
ATOM     10  OXT HIS A   1       5.385   5.028  -8.089  0.00  0.00    -0.244 OA
ATOM     11  O   HIS A   1       3.642   3.925  -8.950  0.00  0.00    -0.244 OA
ENDBRANCH   8   9
ENDBRANCH   1   8
TORSDOF 3
ENDMDL
MODEL 3
REMARK VINA RESULT:      -4.4      8.634     10.199
REMARK  Name = 
REMARK  3 active torsions:
REMARK  status: ('A' for Active; 'I' for Inactive)
REMARK    1  A    between atoms: CA_2  and  CB_3
REMARK    2  A    between atoms: CA_2  and  C_9
REMARK    3  A    between atoms: CB_3  and  CG_4
REMARK                            x       y       z     vdW  Elec       q    Type
REMARK                         _______ _______ _______ _____ _____    ______ ____
ROOT
ATOM      1  CB  HIS A   1      -1.761   7.075  -4.686  0.00  0.00    +0.078 C 
ENDROOT
BRANCH   1   2
ATOM      2  CG  HIS A   1      -2.376   6.601  -3.406  0.00  0.00    +0.082 A 
ATOM      3  ND1 HIS A   1      -1.856   6.977  -2.218  0.00  0.00    -0.227 NA
ATOM      4  CE1 HIS A   1      -1.842   5.986  -1.341  0.00  0.00    +0.199 A 
ATOM      5  NE2 HIS A   1      -2.624   5.029  -1.890  0.00  0.00    -0.221 NA
ATOM      6  CD2 HIS A   1      -3.045   5.439  -3.114  0.00  0.00    +0.115 A 
ENDBRANCH   1   2
BRANCH   1   8
ATOM      7  N   HIS A   1       0.306   6.998  -5.717  0.00  0.00    -0.120 NA
ATOM      8  CA  HIS A   1      -0.669   5.914  -5.103  0.00  0.00    +0.200 C 
BRANCH   8   9
ATOM      9  C   HIS A   1      -1.364   5.641  -6.529  0.00  0.00    +0.382 C 
ATOM     10  OXT HIS A   1      -2.699   5.558  -6.638  0.00  0.00    -0.244 OA
ATOM     11  O   HIS A   1      -0.636   5.257  -7.442  0.00  0.00    -0.244 OA
ENDBRANCH   8   9
ENDBRANCH   1   8
TORSDOF 3
ENDMDL
MODEL 4
REMARK VINA RESULT:      -4.4      8.708     10.454
REMARK  Name = 
REMARK  3 active torsions:
REMARK  status: ('A' for Active; 'I' for Inactive)
REMARK    1  A    between atoms: CA_2  and  CB_3
REMARK    2  A    between atoms: CA_2  and  C_9
REMARK    3  A    between atoms: CB_3  and  CG_4
REMARK                            x       y       z     vdW  Elec       q    Type
REMARK                         _______ _______ _______ _____ _____    ______ ____
ROOT
ATOM      1  CB  HIS A   1      -0.718   5.964  -3.704  0.00  0.00    +0.078 C 
ENDROOT
BRANCH   1   2
ATOM      2  CG  HIS A   1       0.374   5.755  -4.707  0.00  0.00    +0.082 A 
ATOM      3  ND1 HIS A   1       0.181   4.942  -5.766  0.00  0.00    -0.227 NA
ATOM      4  CE1 HIS A   1       1.247   4.204  -6.032  0.00  0.00    +0.199 A 
ATOM      5  NE2 HIS A   1       2.240   4.756  -5.298  0.00  0.00    -0.221 NA
ATOM      6  CD2 HIS A   1       1.738   5.779  -4.560  0.00  0.00    +0.115 A 
ENDBRANCH   1   2
BRANCH   1   8
ATOM      7  N   HIS A   1      -2.414   7.279  -4.560  0.00  0.00    -0.120 NA
ATOM      8  CA  HIS A   1      -2.122   5.725  -4.531  0.00  0.00    +0.200 C 
BRANCH   8   9
ATOM      9  C   HIS A   1      -2.988   5.525  -3.188  0.00  0.00    +0.382 C 
ATOM     10  OXT HIS A   1      -3.879   6.451  -2.801  0.00  0.00    -0.244 OA
ATOM     11  O   HIS A   1      -2.621   4.646  -2.411  0.00  0.00    -0.244 OA
ENDBRANCH   8   9
ENDBRANCH   1   8
TORSDOF 3
ENDMDL
MODEL 5
REMARK VINA RESULT:      -4.4      7.921      9.444
REMARK  Name = 
REMARK  3 active torsions:
REMARK  status: ('A' for Active; 'I' for Inactive)
REMARK    1  A    between atoms: CA_2  and  CB_3
REMARK    2  A    between atoms: CA_2  and  C_9
REMARK    3  A    between atoms: CB_3  and  CG_4
REMARK                            x       y       z     vdW  Elec       q    Type
REMARK                         _______ _______ _______ _____ _____    ______ ____
ROOT
ATOM      1  CB  HIS A   1      -0.735   6.310  -4.823  0.00  0.00    +0.078 C 
ENDROOT
BRANCH   1   2
ATOM      2  CG  HIS A   1      -1.725   6.172  -3.708  0.00  0.00    +0.082 A 
ATOM      3  ND1 HIS A   1      -1.401   6.557  -2.456  0.00  0.00    -0.227 NA
ATOM      4  CE1 HIS A   1      -1.853   5.715  -1.541  0.00  0.00    +0.199 A 
ATOM      5  NE2 HIS A   1      -2.723   4.920  -2.203  0.00  0.00    -0.221 NA
ATOM      6  CD2 HIS A   1      -2.733   5.261  -3.517  0.00  0.00    +0.115 A 
ENDBRANCH   1   2
BRANCH   1   8
ATOM      7  N   HIS A   1       1.569   6.477  -4.761  0.00  0.00    -0.120 NA
ATOM      8  CA  HIS A   1       0.529   5.339  -4.407  0.00  0.00    +0.200 C 
BRANCH   8   9
ATOM      9  C   HIS A   1       0.640   4.696  -5.879  0.00  0.00    +0.382 C 
ATOM     10  OXT HIS A   1      -0.245   5.015  -6.836  0.00  0.00    -0.244 OA
ATOM     11  O   HIS A   1       1.384   3.726  -6.011  0.00  0.00    -0.244 OA
ENDBRANCH   8   9
ENDBRANCH   1   8
TORSDOF 3
ENDMDL
MODEL 6
REMARK VINA RESULT:      -4.4      8.186      9.974
REMARK  Name = 
REMARK  3 active torsions:
REMARK  status: ('A' for Active; 'I' for Inactive)
REMARK    1  A    between atoms: CA_2  and  CB_3
REMARK    2  A    between atoms: CA_2  and  C_9
REMARK    3  A    between atoms: CB_3  and  CG_4
REMARK                            x       y       z     vdW  Elec       q    Type
REMARK                         _______ _______ _______ _____ _____    ______ ____
ROOT
ATOM      1  CB  HIS A   1      -0.480   6.318  -4.562  0.00  0.00    +0.078 C 
ENDROOT
BRANCH   1   2
ATOM      2  CG  HIS A   1      -0.292   5.537  -5.825  0.00  0.00    +0.082 A 
ATOM      3  ND1 HIS A   1       0.935   5.415  -6.376  0.00  0.00    -0.227 NA
ATOM      4  CE1 HIS A   1       0.903   5.513  -7.695  0.00  0.00    +0.199 A 
ATOM      5  NE2 HIS A   1      -0.407   5.418  -8.017  0.00  0.00    -0.221 NA
ATOM      6  CD2 HIS A   1      -1.143   5.325  -6.880  0.00  0.00    +0.115 A 
ENDBRANCH   1   2
BRANCH   1   8
ATOM      7  N   HIS A   1      -1.979   7.628  -3.390  0.00  0.00    -0.120 NA
ATOM      8  CA  HIS A   1      -2.106   6.343  -4.303  0.00  0.00    +0.200 C 
BRANCH   8   9
ATOM      9  C   HIS A   1      -2.013   5.357  -3.034  0.00  0.00    +0.382 C 
ATOM     10  OXT HIS A   1      -0.840   5.135  -2.420  0.00  0.00    -0.244 OA
ATOM     11  O   HIS A   1      -2.980   4.628  -2.819  0.00  0.00    -0.244 OA
ENDBRANCH   8   9
ENDBRANCH   1   8
TORSDOF 3
ENDMDL
MODEL 7
REMARK VINA RESULT:      -4.3      5.689      6.926
REMARK  Name = 
REMARK  3 active torsions:
REMARK  status: ('A' for Active; 'I' for Inactive)
REMARK    1  A    between atoms: CA_2  and  CB_3
REMARK    2  A    between atoms: CA_2  and  C_9
REMARK    3  A    between atoms: CB_3  and  CG_4
REMARK                            x       y       z     vdW  Elec       q    Type
REMARK                         _______ _______ _______ _____ _____    ______ ____
ROOT
ATOM      1  CB  HIS A   1       1.356   5.421  -6.216  0.00  0.00    +0.078 C 
ENDROOT
BRANCH   1   2
ATOM      2  CG  HIS A   1      -0.064   5.868  -6.373  0.00  0.00    +0.082 A 
ATOM      3  ND1 HIS A   1      -0.682   6.539  -5.377  0.00  0.00    -0.227 NA
ATOM      4  CE1 HIS A   1      -1.937   6.151  -5.217  0.00  0.00    +0.199 A 
ATOM      5  NE2 HIS A   1      -2.213   5.412  -6.316  0.00  0.00    -0.221 NA
ATOM      6  CD2 HIS A   1      -1.099   5.320  -7.087  0.00  0.00    +0.115 A 
ENDBRANCH   1   2
BRANCH   1   8
ATOM      7  N   HIS A   1       3.479   5.248  -7.113  0.00  0.00    -0.120 NA
ATOM      8  CA  HIS A   1       2.097   5.814  -7.634  0.00  0.00    +0.200 C 
BRANCH   8   9
ATOM      9  C   HIS A   1       2.453   7.305  -7.143  0.00  0.00    +0.382 C 
ATOM     10  OXT HIS A   1       2.155   8.369  -7.905  0.00  0.00    -0.244 OA
ATOM     11  O   HIS A   1       3.226   7.413  -6.193  0.00  0.00    -0.244 OA
ENDBRANCH   8   9
ENDBRANCH   1   8
TORSDOF 3
ENDMDL
MODEL 8
REMARK VINA RESULT:      -4.2      3.709      5.113
REMARK  Name = 
REMARK  3 active torsions:
REMARK  status: ('A' for Active; 'I' for Inactive)
REMARK    1  A    between atoms: CA_2  and  CB_3
REMARK    2  A    between atoms: CA_2  and  C_9
REMARK    3  A    between atoms: CB_3  and  CG_4
REMARK                            x       y       z     vdW  Elec       q    Type
REMARK                         _______ _______ _______ _____ _____    ______ ____
ROOT
ATOM      1  CB  HIS A   1       3.971   6.756  -9.913  0.00  0.00    +0.078 C 
ENDROOT
BRANCH   1   2
ATOM      2  CG  HIS A   1       5.150   5.876 -10.190  0.00  0.00    +0.082 A 
ATOM      3  ND1 HIS A   1       6.119   5.721  -9.262  0.00  0.00    -0.227 NA
ATOM      4  CE1 HIS A   1       7.328   5.711  -9.799  0.00  0.00    +0.199 A 
ATOM      5  NE2 HIS A   1       7.115   5.578 -11.128  0.00  0.00    -0.221 NA
ATOM      6  CD2 HIS A   1       5.780   5.572 -11.370  0.00  0.00    +0.115 A 
ENDBRANCH   1   2
BRANCH   1   8
ATOM      7  N   HIS A   1       2.643   5.084  -9.029  0.00  0.00    -0.120 NA
ATOM      8  CA  HIS A   1       3.435   6.311  -8.420  0.00  0.00    +0.200 C 
BRANCH   8   9
ATOM      9  C   HIS A   1       2.141   7.264  -8.498  0.00  0.00    +0.382 C 
ATOM     10  OXT HIS A   1       1.253   7.138  -9.497  0.00  0.00    -0.244 OA
ATOM     11  O   HIS A   1       2.135   8.261  -7.778  0.00  0.00    -0.244 OA
ENDBRANCH   8   9
ENDBRANCH   1   8
TORSDOF 3
ENDMDL
MODEL 9
REMARK VINA RESULT:      -4.2      9.770     11.331
REMARK  Name = 
REMARK  3 active torsions:
REMARK  status: ('A' for Active; 'I' for Inactive)
REMARK    1  A    between atoms: CA_2  and  CB_3
REMARK    2  A    between atoms: CA_2  and  C_9
REMARK    3  A    between atoms: CB_3  and  CG_4
REMARK                            x       y       z     vdW  Elec       q    Type
REMARK                         _______ _______ _______ _____ _____    ______ ____
ROOT
ATOM      1  CB  HIS A   1      -1.826   6.925  -3.219  0.00  0.00    +0.078 C 
ENDROOT
BRANCH   1   2
ATOM      2  CG  HIS A   1      -1.488   6.691  -4.658  0.00  0.00    +0.082 A 
ATOM      3  ND1 HIS A   1      -2.468   6.588  -5.581  0.00  0.00    -0.227 NA
ATOM      4  CE1 HIS A   1      -2.221   5.638  -6.469  0.00  0.00    +0.199 A 
ATOM      5  NE2 HIS A   1      -0.924   5.311  -6.273  0.00  0.00    -0.221 NA
ATOM      6  CD2 HIS A   1      -0.432   6.029  -5.232  0.00  0.00    +0.115 A 
ENDBRANCH   1   2
BRANCH   1   8
ATOM      7  N   HIS A   1      -2.633   4.940  -2.356  0.00  0.00    -0.120 NA
ATOM      8  CA  HIS A   1      -1.211   5.629  -2.409  0.00  0.00    +0.200 C 
BRANCH   8   9
ATOM      9  C   HIS A   1      -1.421   6.312  -0.967  0.00  0.00    +0.382 C 
ATOM     10  OXT HIS A   1      -2.441   7.155  -0.748  0.00  0.00    -0.244 OA
ATOM     11  O   HIS A   1      -0.484   6.243  -0.173  0.00  0.00    -0.244 OA
ENDBRANCH   8   9
ENDBRANCH   1   8
TORSDOF 3
ENDMDL
