MODEL 1
REMARK VINA RESULT:      -8.6      0.000      0.000
REMARK  Name = 
REMARK  3 active torsions:
REMARK  status: ('A' for Active; 'I' for Inactive)
REMARK    1  A    between atoms: C_2  and  O_4
REMARK    2  A    between atoms: O_4  and  C_5
REMARK    3  A    between atoms: C_5  and  C_6
REMARK                            x       y       z     vdW  Elec       q    Type
REMARK                         _______ _______ _______ _____ _____    ______ ____
ROOT
ATOM      1  C   UNL     1       3.181   6.095  -6.521  0.00  0.00    +0.186 C 
ATOM      2  C   UNL     1       2.563   6.002  -7.828  0.00  0.00    +0.040 C 
ATOM      3  C   UNL     1       3.783   6.608  -8.721  0.00  0.00    +0.008 C 
ATOM      4  C   UNL     1       3.326   5.748 -10.116  0.00  0.00    +0.022 C 
ATOM      5  C   UNL     1       2.212   6.933 -10.622  0.00  0.00    +0.008 C 
ATOM      6  C   UNL     1       1.049   6.366  -9.616  0.00  0.00    +0.001 C 
ATOM      7  C   UNL     1       1.764   6.055 -11.912  0.00  0.00    +0.019 C 
ATOM      8  C   UNL     1       3.016   5.610 -12.579  0.00  0.00    -0.024 C 
ATOM      9  C   UNL     1       2.829   4.872 -13.664  0.00  0.00    +0.033 C 
ATOM     10  C   UNL     1       1.457   4.904 -14.189  0.00  0.00    +0.173 C 
ATOM     11  C   UNL     1       0.613   6.101 -14.010  0.00  0.00    +0.069 C 
ATOM     12  O   UNL     1       0.957   3.891 -14.753  0.00  0.00    -0.291 OA
ATOM     13  C   UNL     1       4.315   6.213 -12.258  0.00  0.00    -0.030 C 
ATOM     14  C   UNL     1       5.412   5.970 -13.215  0.00  0.00    +0.030 C 
ATOM     15  C   UNL     1       0.815   5.004 -11.584  0.00  0.00    +0.004 C 
ATOM     16  C   UNL     1       1.106   7.012 -12.891  0.00  0.00    +0.012 C 
ATOM     17  C   UNL     1       4.506   6.403 -10.951  0.00  0.00    -0.031 C 
ATOM     18  C   UNL     1       4.758   5.396  -8.231  0.00  0.00    +0.004 C 
ATOM     19  C   UNL     1       2.431   4.546  -8.156  0.00  0.00    +0.004 C 
ATOM     20  C   UNL     1       1.446   6.863  -8.225  0.00  0.00    +0.004 C 
ATOM     21  C   UNL     1       4.560   5.475  -6.740  0.00  0.00    +0.047 C 
ENDROOT
BRANCH   1  22
ATOM     22  C   UNL     1       2.410   5.263  -5.541  0.00  0.00    +0.187 C 
ATOM     23  O   UNL     1       2.860   4.317  -4.953  0.00  0.00    -0.292 OA
ATOM     24  C   UNL     1       1.034   5.717  -5.209  0.00  0.00    +0.076 C 
ENDBRANCH   1  22
BRANCH   1  25
ATOM     25  O   UNL     1       3.413   7.345  -5.954  0.00  0.00    -0.449 OA
BRANCH  25  27
ATOM     26  C   UNL     1       3.575   7.578  -3.456  0.00  0.00    +0.121 C 
ATOM     27  C   UNL     1       4.172   7.308  -4.777  0.00  0.00    +0.318 C 
ATOM     28  O   UNL     1       5.437   7.201  -4.802  0.00  0.00    -0.250 OA
ENDBRANCH  25  27
ENDBRANCH   1  25
TORSDOF 3
ENDMDL
MODEL 2
REMARK VINA RESULT:      -8.4      2.681      8.417
REMARK  Name = 
REMARK  3 active torsions:
REMARK  status: ('A' for Active; 'I' for Inactive)
REMARK    1  A    between atoms: C_2  and  O_4
REMARK    2  A    between atoms: O_4  and  C_5
REMARK    3  A    between atoms: C_5  and  C_6
REMARK                            x       y       z     vdW  Elec       q    Type
REMARK                         _______ _______ _______ _____ _____    ______ ____
ROOT
ATOM      1  C   UNL     1       2.551   5.385  -7.977  0.00  0.00    +0.186 C 
ATOM      2  C   UNL     1       3.037   5.842  -6.690  0.00  0.00    +0.040 C 
ATOM      3  C   UNL     1       1.623   5.850  -5.883  0.00  0.00    +0.008 C 
ATOM      4  C   UNL     1       2.365   5.595  -4.373  0.00  0.00    +0.022 C 
ATOM      5  C   UNL     1       2.660   7.253  -4.109  0.00  0.00    +0.008 C 
ATOM      6  C   UNL     1       4.012   7.229  -5.033  0.00  0.00    +0.001 C 
ATOM      7  C   UNL     1       3.411   6.961  -2.700  0.00  0.00    +0.019 C 
ATOM      8  C   UNL     1       2.534   6.038  -1.932  0.00  0.00    -0.024 C 
ATOM      9  C   UNL     1       3.005   5.695  -0.742  0.00  0.00    +0.033 C 
ATOM     10  C   UNL     1       4.119   6.527  -0.268  0.00  0.00    +0.173 C 
ATOM     11  C   UNL     1       4.223   7.942  -0.673  0.00  0.00    +0.069 C 
ATOM     12  O   UNL     1       5.035   6.034   0.448  0.00  0.00    -0.291 OA
ATOM     13  C   UNL     1       1.137   5.807  -2.317  0.00  0.00    -0.030 C 
ATOM     14  C   UNL     1       0.266   5.181  -1.303  0.00  0.00    +0.030 C 
ATOM     15  C   UNL     1       4.789   6.531  -2.867  0.00  0.00    +0.004 C 
ATOM     16  C   UNL     1       3.405   8.264  -1.917  0.00  0.00    +0.012 C 
ATOM     17  C   UNL     1       0.964   5.656  -3.631  0.00  0.00    -0.031 C 
ATOM     18  C   UNL     1       1.460   4.246  -6.130  0.00  0.00    +0.004 C 
ATOM     19  C   UNL     1       3.887   4.748  -6.121  0.00  0.00    +0.004 C 
ATOM     20  C   UNL     1       3.510   7.212  -6.478  0.00  0.00    +0.004 C 
ATOM     21  C   UNL     1       1.688   4.178  -7.617  0.00  0.00    +0.047 C 
ENDROOT
BRANCH   1  22
ATOM     22  C   UNL     1       3.708   4.938  -8.819  0.00  0.00    +0.187 C 
ATOM     23  O   UNL     1       3.969   3.791  -9.058  0.00  0.00    -0.292 OA
ATOM     24  C   UNL     1       4.508   6.002  -9.481  0.00  0.00    +0.076 C 
ENDBRANCH   1  22
BRANCH   1  25
ATOM     25  O   UNL     1       1.740   6.216  -8.743  0.00  0.00    -0.449 OA
BRANCH  25  27
ATOM     26  C   UNL     1       0.790   5.063 -10.765  0.00  0.00    +0.121 C 
ATOM     27  C   UNL     1       0.681   5.555  -9.380  0.00  0.00    +0.318 C 
ATOM     28  O   UNL     1      -0.474   5.489  -8.857  0.00  0.00    -0.250 OA
ENDBRANCH  25  27
ENDBRANCH   1  25
TORSDOF 3
ENDMDL
MODEL 3
REMARK VINA RESULT:      -8.3      2.697      4.350
REMARK  Name = 
REMARK  3 active torsions:
REMARK  status: ('A' for Active; 'I' for Inactive)
REMARK    1  A    between atoms: C_2  and  O_4
REMARK    2  A    between atoms: O_4  and  C_5
REMARK    3  A    between atoms: C_5  and  C_6
REMARK                            x       y       z     vdW  Elec       q    Type
REMARK                         _______ _______ _______ _____ _____    ______ ____
ROOT
ATOM      1  C   UNL     1       2.845   5.933  -2.201  0.00  0.00    +0.186 C 
ATOM      2  C   UNL     1       2.356   5.989  -3.563  0.00  0.00    +0.040 C 
ATOM      3  C   UNL     1       3.779   6.197  -4.327  0.00  0.00    +0.008 C 
ATOM      4  C   UNL     1       3.231   5.470  -5.765  0.00  0.00    +0.022 C 
ATOM      5  C   UNL     1       2.560   6.913  -6.374  0.00  0.00    +0.008 C 
ATOM      6  C   UNL     1       1.192   6.729  -5.492  0.00  0.00    +0.001 C 
ATOM      7  C   UNL     1       2.006   6.169  -7.706  0.00  0.00    +0.019 C 
ATOM      8  C   UNL     1       3.134   5.366  -8.247  0.00  0.00    -0.024 C 
ATOM      9  C   UNL     1       2.848   4.687  -9.348  0.00  0.00    +0.033 C 
ATOM     10  C   UNL     1       1.601   5.100 -10.008  0.00  0.00    +0.173 C 
ATOM     11  C   UNL     1       1.126   6.493  -9.909  0.00  0.00    +0.069 C 
ATOM     12  O   UNL     1       0.887   4.259 -10.623  0.00  0.00    -0.291 OA
ATOM     13  C   UNL     1       4.514   5.578  -7.795  0.00  0.00    -0.030 C 
ATOM     14  C   UNL     1       5.582   5.006  -8.639  0.00  0.00    +0.030 C 
ATOM     15  C   UNL     1       0.767   5.444  -7.480  0.00  0.00    +0.004 C 
ATOM     16  C   UNL     1       1.749   7.250  -8.743  0.00  0.00    +0.012 C 
ATOM     17  C   UNL     1       4.625   5.737  -6.475  0.00  0.00    -0.031 C 
ATOM     18  C   UNL     1       4.311   4.767  -3.748  0.00  0.00    +0.004 C 
ATOM     19  C   UNL     1       1.842   4.625  -3.909  0.00  0.00    +0.004 C 
ATOM     20  C   UNL     1       1.579   7.125  -4.066  0.00  0.00    +0.004 C 
ATOM     21  C   UNL     1       4.000   4.938  -2.284  0.00  0.00    +0.047 C 
ENDROOT
BRANCH   1  22
ATOM     22  C   UNL     1       1.775   5.382  -1.307  0.00  0.00    +0.187 C 
ATOM     23  O   UNL     1       1.838   4.320  -0.750  0.00  0.00    -0.292 OA
ATOM     24  C   UNL     1       0.617   6.269  -1.018  0.00  0.00    +0.076 C 
ENDBRANCH   1  22
BRANCH   1  25
ATOM     25  O   UNL     1       3.371   7.076  -1.608  0.00  0.00    -0.449 OA
BRANCH  25  27
ATOM     26  C   UNL     1       3.405   7.762   0.810  0.00  0.00    +0.121 C 
ATOM     27  C   UNL     1       3.828   6.885  -0.297  0.00  0.00    +0.318 C 
ATOM     28  O   UNL     1       4.746   6.052  -0.026  0.00  0.00    -0.250 OA
ENDBRANCH  25  27
ENDBRANCH   1  25
TORSDOF 3
ENDMDL
MODEL 4
REMARK VINA RESULT:      -8.2      2.423      8.019
REMARK  Name = 
REMARK  3 active torsions:
REMARK  status: ('A' for Active; 'I' for Inactive)
REMARK    1  A    between atoms: C_2  and  O_4
REMARK    2  A    between atoms: O_4  and  C_5
REMARK    3  A    between atoms: C_5  and  C_6
REMARK                            x       y       z     vdW  Elec       q    Type
REMARK                         _______ _______ _______ _____ _____    ______ ____
ROOT
ATOM      1  C   UNL     1       1.244   5.902  -8.978  0.00  0.00    +0.186 C 
ATOM      2  C   UNL     1       1.963   5.897  -7.720  0.00  0.00    +0.040 C 
ATOM      3  C   UNL     1       0.821   6.583  -6.782  0.00  0.00    +0.008 C 
ATOM      4  C   UNL     1       1.380   5.821  -5.367  0.00  0.00    +0.022 C 
ATOM      5  C   UNL     1       2.539   7.026  -5.039  0.00  0.00    +0.008 C 
ATOM      6  C   UNL     1       3.615   6.372  -6.087  0.00  0.00    +0.001 C 
ATOM      7  C   UNL     1       3.080   6.239  -3.726  0.00  0.00    +0.019 C 
ATOM      8  C   UNL     1       1.882   5.860  -2.932  0.00  0.00    -0.024 C 
ATOM      9  C   UNL     1       2.149   5.202  -1.813  0.00  0.00    +0.033 C 
ATOM     10  C   UNL     1       3.558   5.255  -1.400  0.00  0.00    +0.173 C 
ATOM     11  C   UNL     1       4.393   6.425  -1.733  0.00  0.00    +0.069 C 
ATOM     12  O   UNL     1       4.094   4.279  -0.803  0.00  0.00    -0.291 OA
ATOM     13  C   UNL     1       0.566   6.455  -3.195  0.00  0.00    -0.030 C 
ATOM     14  C   UNL     1      -0.454   6.297  -2.139  0.00  0.00    +0.030 C 
ATOM     15  C   UNL     1       3.993   5.155  -4.047  0.00  0.00    +0.004 C 
ATOM     16  C   UNL     1       3.821   7.257  -2.874  0.00  0.00    +0.012 C 
ATOM     17  C   UNL     1       0.274   6.551  -4.493  0.00  0.00    -0.031 C 
ATOM     18  C   UNL     1      -0.199   5.350  -7.103  0.00  0.00    +0.004 C 
ATOM     19  C   UNL     1       2.109   4.468  -7.296  0.00  0.00    +0.004 C 
ATOM     20  C   UNL     1       3.113   6.770  -7.476  0.00  0.00    +0.004 C 
ATOM     21  C   UNL     1      -0.117   5.318  -8.607  0.00  0.00    +0.047 C 
ENDROOT
BRANCH   1  22
ATOM     22  C   UNL     1       1.930   4.990  -9.950  0.00  0.00    +0.187 C 
ATOM     23  O   UNL     1       1.399   4.064 -10.500  0.00  0.00    -0.292 OA
ATOM     24  C   UNL     1       3.327   5.336 -10.326  0.00  0.00    +0.076 C 
ENDBRANCH   1  22
BRANCH   1  25
ATOM     25  O   UNL     1       0.977   7.109  -9.616  0.00  0.00    -0.449 OA
BRANCH  25  27
ATOM     26  C   UNL     1       0.930   7.180 -12.129  0.00  0.00    +0.121 C 
ATOM     27  C   UNL     1       0.277   6.978 -10.823  0.00  0.00    +0.318 C 
ATOM     28  O   UNL     1      -0.985   6.837 -10.849  0.00  0.00    -0.250 OA
ENDBRANCH  25  27
ENDBRANCH   1  25
TORSDOF 3
ENDMDL
MODEL 5
REMARK VINA RESULT:      -7.9      2.004      2.972
REMARK  Name = 
REMARK  3 active torsions:
REMARK  status: ('A' for Active; 'I' for Inactive)
REMARK    1  A    between atoms: C_2  and  O_4
REMARK    2  A    between atoms: O_4  and  C_5
REMARK    3  A    between atoms: C_5  and  C_6
REMARK                            x       y       z     vdW  Elec       q    Type
REMARK                         _______ _______ _______ _____ _____    ______ ____
ROOT
ATOM      1  C   UNL     1       2.617   6.225  -3.621  0.00  0.00    +0.186 C 
ATOM      2  C   UNL     1       1.949   6.189  -4.907  0.00  0.00    +0.040 C 
ATOM      3  C   UNL     1       3.236   6.476  -5.861  0.00  0.00    +0.008 C 
ATOM      4  C   UNL     1       2.565   5.652  -7.190  0.00  0.00    +0.022 C 
ATOM      5  C   UNL     1       1.703   7.013  -7.745  0.00  0.00    +0.008 C 
ATOM      6  C   UNL     1       0.483   6.759  -6.681  0.00  0.00    +0.001 C 
ATOM      7  C   UNL     1       1.040   6.176  -8.968  0.00  0.00    +0.019 C 
ATOM      8  C   UNL     1       2.150   5.442  -9.633  0.00  0.00    -0.024 C 
ATOM      9  C   UNL     1       1.778   4.700 -10.665  0.00  0.00    +0.033 C 
ATOM     10  C   UNL     1       0.425   4.987 -11.162  0.00  0.00    +0.173 C 
ATOM     11  C   UNL     1      -0.146   6.342 -11.040  0.00  0.00    +0.069 C 
ATOM     12  O   UNL     1      -0.293   4.070 -11.651  0.00  0.00    -0.291 OA
ATOM     13  C   UNL     1       3.555   5.778  -9.377  0.00  0.00    -0.030 C 
ATOM     14  C   UNL     1       4.546   5.258 -10.341  0.00  0.00    +0.030 C 
ATOM     15  C   UNL     1      -0.094   5.366  -8.555  0.00  0.00    +0.004 C 
ATOM     16  C   UNL     1       0.561   7.191  -9.991  0.00  0.00    +0.012 C 
ATOM     17  C   UNL     1       3.826   5.998  -8.089  0.00  0.00    -0.031 C 
ATOM     18  C   UNL     1       3.956   5.116  -5.317  0.00  0.00    +0.004 C 
ATOM     19  C   UNL     1       1.508   4.776  -5.140  0.00  0.00    +0.004 C 
ATOM     20  C   UNL     1       1.021   7.240  -5.332  0.00  0.00    +0.004 C 
ATOM     21  C   UNL     1       3.829   5.320  -3.830  0.00  0.00    +0.047 C 
ENDROOT
BRANCH   1  22
ATOM     22  C   UNL     1       1.723   5.629  -2.576  0.00  0.00    +0.187 C 
ATOM     23  O   UNL     1       2.044   4.734  -1.841  0.00  0.00    -0.292 OA
ATOM     24  C   UNL     1       0.397   6.271  -2.377  0.00  0.00    +0.076 C 
ENDBRANCH   1  22
BRANCH   1  25
ATOM     25  O   UNL     1       3.121   7.429  -3.139  0.00  0.00    -0.449 OA
BRANCH  25  27
ATOM     26  C   UNL     1       4.487   7.184  -1.043  0.00  0.00    +0.121 C 
ATOM     27  C   UNL     1       4.366   7.317  -2.506  0.00  0.00    +0.318 C 
ATOM     28  O   UNL     1       5.453   7.484  -3.139  0.00  0.00    -0.250 OA
ENDBRANCH  25  27
ENDBRANCH   1  25
TORSDOF 3
ENDMDL
MODEL 6
REMARK VINA RESULT:      -7.8      2.440      4.973
REMARK  Name = 
REMARK  3 active torsions:
REMARK  status: ('A' for Active; 'I' for Inactive)
REMARK    1  A    between atoms: C_2  and  O_4
REMARK    2  A    between atoms: O_4  and  C_5
REMARK    3  A    between atoms: C_5  and  C_6
REMARK                            x       y       z     vdW  Elec       q    Type
REMARK                         _______ _______ _______ _____ _____    ______ ____
ROOT
ATOM      1  C   UNL     1       3.837   6.120  -3.120  0.00  0.00    +0.186 C 
ATOM      2  C   UNL     1       3.559   6.056  -4.541  0.00  0.00    +0.040 C 
ATOM      3  C   UNL     1       2.169   5.210  -4.481  0.00  0.00    +0.008 C 
ATOM      4  C   UNL     1       1.584   5.871  -5.935  0.00  0.00    +0.022 C 
ATOM      5  C   UNL     1       2.377   4.723  -6.912  0.00  0.00    +0.008 C 
ATOM      6  C   UNL     1       3.793   5.543  -6.844  0.00  0.00    +0.001 C 
ATOM      7  C   UNL     1       1.842   5.418  -8.278  0.00  0.00    +0.019 C 
ATOM      8  C   UNL     1       0.382   5.639  -8.100  0.00  0.00    -0.024 C 
ATOM      9  C   UNL     1      -0.217   6.206  -9.136  0.00  0.00    +0.033 C 
ATOM     10  C   UNL     1       0.579   6.210 -10.371  0.00  0.00    +0.173 C 
ATOM     11  C   UNL     1       1.555   5.135 -10.637  0.00  0.00    +0.069 C 
ATOM     12  O   UNL     1       0.485   7.159 -11.199  0.00  0.00    -0.291 OA
ATOM     13  C   UNL     1      -0.369   4.984  -7.023  0.00  0.00    -0.030 C 
ATOM     14  C   UNL     1      -1.839   4.973  -7.154  0.00  0.00    +0.030 C 
ATOM     15  C   UNL     1       2.616   6.586  -8.663  0.00  0.00    +0.004 C 
ATOM     16  C   UNL     1       1.960   4.377  -9.379  0.00  0.00    +0.012 C 
ATOM     17  C   UNL     1       0.266   4.990  -5.849  0.00  0.00    -0.031 C 
ATOM     18  C   UNL     1       1.473   6.395  -3.603  0.00  0.00    +0.004 C 
ATOM     19  C   UNL     1       3.234   7.446  -4.994  0.00  0.00    +0.004 C 
ATOM     20  C   UNL     1       4.364   5.243  -5.457  0.00  0.00    +0.004 C 
ATOM     21  C   UNL     1       2.507   6.574  -2.523  0.00  0.00    +0.047 C 
ENDROOT
BRANCH   1  22
ATOM     22  C   UNL     1       4.882   7.163  -2.861  0.00  0.00    +0.187 C 
ATOM     23  O   UNL     1       5.990   7.142  -3.324  0.00  0.00    -0.292 OA
ATOM     24  C   UNL     1       4.466   8.348  -2.065  0.00  0.00    +0.076 C 
ENDBRANCH   1  22
BRANCH   1  25
ATOM     25  O   UNL     1       4.187   4.962  -2.432  0.00  0.00    -0.449 OA
BRANCH  25  27
ATOM     26  C   UNL     1       2.368   4.223  -0.863  0.00  0.00    +0.121 C 
ATOM     27  C   UNL     1       3.657   4.883  -1.137  0.00  0.00    +0.318 C 
ATOM     28  O   UNL     1       4.177   5.510  -0.164  0.00  0.00    -0.250 OA
ENDBRANCH  25  27
ENDBRANCH   1  25
TORSDOF 3
ENDMDL
MODEL 7
REMARK VINA RESULT:      -7.8      1.545      3.236
REMARK  Name = 
REMARK  3 active torsions:
REMARK  status: ('A' for Active; 'I' for Inactive)
REMARK    1  A    between atoms: C_2  and  O_4
REMARK    2  A    between atoms: O_4  and  C_5
REMARK    3  A    between atoms: C_5  and  C_6
REMARK                            x       y       z     vdW  Elec       q    Type
REMARK                         _______ _______ _______ _____ _____    ______ ____
ROOT
ATOM      1  C   UNL     1       2.579   5.667  -6.159  0.00  0.00    +0.186 C 
ATOM      2  C   UNL     1       2.619   5.491  -7.596  0.00  0.00    +0.040 C 
ATOM      3  C   UNL     1       1.064   5.840  -7.930  0.00  0.00    +0.008 C 
ATOM      4  C   UNL     1       1.416   6.376  -9.507  0.00  0.00    +0.022 C 
ATOM      5  C   UNL     1       1.331   4.813 -10.180  0.00  0.00    +0.008 C 
ATOM      6  C   UNL     1       2.861   4.456  -9.716  0.00  0.00    +0.001 C 
ATOM      7  C   UNL     1       1.723   5.358 -11.658  0.00  0.00    +0.019 C 
ATOM      8  C   UNL     1       0.853   6.534 -11.924  0.00  0.00    -0.024 C 
ATOM      9  C   UNL     1       1.047   7.106 -13.103  0.00  0.00    +0.033 C 
ATOM     10  C   UNL     1       1.830   6.297 -14.047  0.00  0.00    +0.173 C 
ATOM     11  C   UNL     1       1.785   4.824 -13.990  0.00  0.00    +0.069 C 
ATOM     12  O   UNL     1       2.598   6.846 -14.887  0.00  0.00    -0.291 OA
ATOM     13  C   UNL     1      -0.329   6.817 -11.102  0.00  0.00    -0.030 C 
ATOM     14  C   UNL     1      -1.311   7.767 -11.660  0.00  0.00    +0.030 C 
ATOM     15  C   UNL     1       3.150   5.577 -11.824  0.00  0.00    +0.004 C 
ATOM     16  C   UNL     1       1.280   4.298 -12.652  0.00  0.00    +0.012 C 
ATOM     17  C   UNL     1      -0.120   6.657  -9.793  0.00  0.00    -0.031 C 
ATOM     18  C   UNL     1       1.260   7.342  -7.322  0.00  0.00    +0.004 C 
ATOM     19  C   UNL     1       3.469   6.590  -8.156  0.00  0.00    +0.004 C 
ATOM     20  C   UNL     1       2.768   4.172  -8.216  0.00  0.00    +0.004 C 
ATOM     21  C   UNL     1       1.880   7.015  -5.990  0.00  0.00    +0.047 C 
ENDROOT
BRANCH   1  22
ATOM     22  C   UNL     1       3.977   5.760  -5.626  0.00  0.00    +0.187 C 
ATOM     23  O   UNL     1       4.787   4.876  -5.689  0.00  0.00    -0.292 OA
ATOM     24  C   UNL     1       4.405   7.079  -5.086  0.00  0.00    +0.076 C 
ENDBRANCH   1  22
BRANCH   1  25
ATOM     25  O   UNL     1       1.865   4.769  -5.373  0.00  0.00    -0.449 OA
BRANCH  25  27
ATOM     26  C   UNL     1       1.763   5.605  -3.004  0.00  0.00    +0.121 C 
ATOM     27  C   UNL     1       1.152   5.365  -4.324  0.00  0.00    +0.318 C 
ATOM     28  O   UNL     1      -0.097   5.580  -4.404  0.00  0.00    -0.250 OA
ENDBRANCH  25  27
ENDBRANCH   1  25
TORSDOF 3
ENDMDL
MODEL 8
REMARK VINA RESULT:      -7.7      2.908      5.307
REMARK  Name = 
REMARK  3 active torsions:
REMARK  status: ('A' for Active; 'I' for Inactive)
REMARK    1  A    between atoms: C_2  and  O_4
REMARK    2  A    between atoms: O_4  and  C_5
REMARK    3  A    between atoms: C_5  and  C_6
REMARK                            x       y       z     vdW  Elec       q    Type
REMARK                         _______ _______ _______ _____ _____    ______ ____
ROOT
ATOM      1  C   UNL     1       0.371   5.796  -3.165  0.00  0.00    +0.186 C 
ATOM      2  C   UNL     1       1.290   5.645  -4.275  0.00  0.00    +0.040 C 
ATOM      3  C   UNL     1       0.201   5.543  -5.482  0.00  0.00    +0.008 C 
ATOM      4  C   UNL     1       1.279   6.162  -6.644  0.00  0.00    +0.022 C 
ATOM      5  C   UNL     1       1.970   4.642  -6.982  0.00  0.00    +0.008 C 
ATOM      6  C   UNL     1       2.963   4.729  -5.683  0.00  0.00    +0.001 C 
ATOM      7  C   UNL     1       3.019   5.281  -8.043  0.00  0.00    +0.019 C 
ATOM      8  C   UNL     1       2.231   6.165  -8.942  0.00  0.00    -0.024 C 
ATOM      9  C   UNL     1       2.944   6.773  -9.878  0.00  0.00    +0.033 C 
ATOM     10  C   UNL     1       4.293   6.222 -10.066  0.00  0.00    +0.173 C 
ATOM     11  C   UNL     1       4.563   4.795  -9.806  0.00  0.00    +0.069 C 
ATOM     12  O   UNL     1       5.256   6.969 -10.400  0.00  0.00    -0.291 OA
ATOM     13  C   UNL     1       0.766   6.101  -8.993  0.00  0.00    -0.030 C 
ATOM     14  C   UNL     1       0.116   6.738 -10.154  0.00  0.00    +0.030 C 
ATOM     15  C   UNL     1       4.172   5.894  -7.405  0.00  0.00    +0.004 C 
ATOM     16  C   UNL     1       3.505   4.143  -8.925  0.00  0.00    +0.012 C 
ATOM     17  C   UNL     1       0.194   6.001  -7.791  0.00  0.00    -0.031 C 
ATOM     18  C   UNL     1      -0.350   7.037  -5.125  0.00  0.00    +0.004 C 
ATOM     19  C   UNL     1       2.025   6.941  -4.425  0.00  0.00    +0.004 C 
ATOM     20  C   UNL     1       2.074   4.423  -4.476  0.00  0.00    +0.004 C 
ATOM     21  C   UNL     1      -0.579   6.892  -3.643  0.00  0.00    +0.047 C 
ENDROOT
BRANCH   1  22
ATOM     22  C   UNL     1       1.119   6.278  -1.958  0.00  0.00    +0.187 C 
ATOM     23  O   UNL     1       1.090   7.406  -1.548  0.00  0.00    -0.292 OA
ATOM     24  C   UNL     1       1.853   5.253  -1.169  0.00  0.00    +0.076 C 
ENDBRANCH   1  22
BRANCH   1  25
ATOM     25  O   UNL     1      -0.439   4.730  -2.788  0.00  0.00    -0.449 OA
BRANCH  25  27
ATOM     26  C   UNL     1      -1.880   5.765  -1.007  0.00  0.00    +0.121 C 
ATOM     27  C   UNL     1      -1.702   5.108  -2.315  0.00  0.00    +0.318 C 
ATOM     28  O   UNL     1      -2.768   4.764  -2.912  0.00  0.00    -0.250 OA
ENDBRANCH  25  27
ENDBRANCH   1  25
TORSDOF 3
ENDMDL
MODEL 9
REMARK VINA RESULT:      -7.7      2.886      7.404
REMARK  Name = 
REMARK  3 active torsions:
REMARK  status: ('A' for Active; 'I' for Inactive)
REMARK    1  A    between atoms: C_2  and  O_4
REMARK    2  A    between atoms: O_4  and  C_5
REMARK    3  A    between atoms: C_5  and  C_6
REMARK                            x       y       z     vdW  Elec       q    Type
REMARK                         _______ _______ _______ _____ _____    ______ ____
ROOT
ATOM      1  C   UNL     1       2.761   5.519  -8.832  0.00  0.00    +0.186 C 
ATOM      2  C   UNL     1       2.114   5.731  -7.553  0.00  0.00    +0.040 C 
ATOM      3  C   UNL     1       0.612   6.062  -8.090  0.00  0.00    +0.008 C 
ATOM      4  C   UNL     1      -0.131   5.505  -6.664  0.00  0.00    +0.022 C 
ATOM      5  C   UNL     1       0.035   6.996  -5.857  0.00  0.00    +0.008 C 
ATOM      6  C   UNL     1       1.588   6.676  -5.443  0.00  0.00    +0.001 C 
ATOM      7  C   UNL     1      -0.629   6.409  -4.498  0.00  0.00    +0.019 C 
ATOM      8  C   UNL     1      -1.874   5.704  -4.902  0.00  0.00    -0.024 C 
ATOM      9  C   UNL     1      -2.547   5.159  -3.899  0.00  0.00    +0.033 C 
ATOM     10  C   UNL     1      -2.132   5.622  -2.568  0.00  0.00    +0.173 C 
ATOM     11  C   UNL     1      -1.590   6.981  -2.382  0.00  0.00    +0.069 C 
ATOM     12  O   UNL     1      -2.179   4.848  -1.571  0.00  0.00    -0.291 OA
ATOM     13  C   UNL     1      -2.465   5.889  -6.232  0.00  0.00    -0.030 C 
ATOM     14  C   UNL     1      -3.864   5.449  -6.402  0.00  0.00    +0.030 C 
ATOM     15  C   UNL     1       0.304   5.635  -3.696  0.00  0.00    +0.004 C 
ATOM     16  C   UNL     1      -1.092   7.604  -3.680  0.00  0.00    +0.012 C 
ATOM     17  C   UNL     1      -1.568   5.888  -7.220  0.00  0.00    -0.031 C 
ATOM     18  C   UNL     1       0.520   4.584  -8.775  0.00  0.00    +0.004 C 
ATOM     19  C   UNL     1       2.071   4.408  -6.851  0.00  0.00    +0.004 C 
ATOM     20  C   UNL     1       2.398   6.902  -6.721  0.00  0.00    +0.004 C 
ATOM     21  C   UNL     1       1.810   4.567  -9.553  0.00  0.00    +0.047 C 
ENDROOT
BRANCH   1  22
ATOM     22  C   UNL     1       4.080   4.839  -8.619  0.00  0.00    +0.187 C 
ATOM     23  O   UNL     1       4.327   3.716  -8.966  0.00  0.00    -0.292 OA
ATOM     24  C   UNL     1       5.174   5.660  -8.035  0.00  0.00    +0.076 C 
ENDBRANCH   1  22
BRANCH   1  25
ATOM     25  O   UNL     1       2.951   6.592  -9.696  0.00  0.00    -0.449 OA
BRANCH  25  27
ATOM     26  C   UNL     1       4.141   5.883 -11.795  0.00  0.00    +0.121 C 
ATOM     27  C   UNL     1       2.919   6.248 -11.054  0.00  0.00    +0.318 C 
ATOM     28  O   UNL     1       1.868   6.387 -11.752  0.00  0.00    -0.250 OA
ENDBRANCH  25  27
ENDBRANCH   1  25
TORSDOF 3
ENDMDL
