MODEL 1
REMARK VINA RESULT:      -8.7      0.000      0.000
REMARK  Name = 
REMARK  5 active torsions:
REMARK  status: ('A' for Active; 'I' for Inactive)
REMARK    1  A    between atoms: C_8  and  N_9
REMARK    2  A    between atoms: C_10  and  C_12
REMARK    3  A    between atoms: N_16  and  C_17
REMARK    4  A    between atoms: N_23  and  C_24
REMARK    5  A    between atoms: C_24  and  C_25
REMARK                            x       y       z     vdW  Elec       q    Type
REMARK                         _______ _______ _______ _____ _____    ______ ____
ROOT
ATOM      1  C   UNL     1       3.607   6.125  -8.323  0.00  0.00    +0.107 A 
ATOM      2  S   UNL     1       4.413   5.814  -6.835  0.00  0.00    -0.045 S 
ATOM      3  C   UNL     1       3.622   6.988  -5.862  0.00  0.00    +0.185 A 
ATOM      4  N   UNL     1       4.033   7.650  -4.660  0.00  0.00    -0.170 NA
ATOM      5  N   UNL     1       2.595   7.302  -6.688  0.00  0.00    -0.221 NA
ATOM      6  C   UNL     1       2.965   7.306  -7.966  0.00  0.00    +0.112 A 
ENDROOT
BRANCH   4   7
ATOM      7  C   UNL     1       3.430   7.432  -3.404  0.00  0.00    +0.158 A 
ATOM      8  N   UNL     1       2.632   6.353  -3.214  0.00  0.00    -0.214 NA
ATOM      9  C   UNL     1       1.844   6.410  -2.115  0.00  0.00    +0.142 A 
ATOM     10  C   UNL     1       0.562   5.640  -2.080  0.00  0.00    +0.074 C 
ATOM     11  N   UNL     1       2.341   7.035  -1.039  0.00  0.00    -0.216 NA
ATOM     12  C   UNL     1       3.442   7.817  -1.086  0.00  0.00    +0.136 A 
ATOM     13  N   UNL     1       3.629   8.740  -0.034  0.00  0.00    -0.290 N 
ATOM     14  C   UNL     1       2.547   9.630   0.378  0.00  0.00    +0.109 C 
ATOM     15  C   UNL     1       1.877   9.153   1.645  0.00  0.00    +0.094 C 
ATOM     16  N   UNL     1       2.824   8.790   2.668  0.00  0.00    -0.268 NA
ATOM     17  C   UNL     1       3.838   7.877   2.206  0.00  0.00    +0.094 C 
ATOM     18  C   UNL     1       4.596   8.401   1.007  0.00  0.00    +0.109 C 
ATOM     19  C   UNL     1       4.134   7.845  -2.278  0.00  0.00    +0.070 A 
BRANCH  16  20
ATOM     20  C   UNL     1       3.353   9.918   3.391  0.00  0.00    +0.108 C 
BRANCH  20  21
ATOM     21  C   UNL     1       2.303  10.941   3.731  0.00  0.00    +0.199 C 
ATOM     22  O   UNL     1       2.746  12.244   3.524  0.00  0.00    -0.219 OA
ENDBRANCH  20  21
ENDBRANCH  16  20
ENDBRANCH   4   7
BRANCH   1  24
ATOM     23  N   UNL     1       4.876   6.469 -10.492  0.00  0.00    -0.174 NA
ATOM     24  C   UNL     1       4.028   5.700  -9.665  0.00  0.00    +0.277 C 
ATOM     25  O   UNL     1       3.629   4.594 -10.141  0.00  0.00    -0.267 OA
BRANCH  23  28
ATOM     26  C   UNL     1       7.365   5.669  -9.261  0.00  0.00    +0.032 C 
ATOM     27  C   UNL     1       7.193   5.660 -10.745  0.00  0.00    -0.006 A 
ATOM     28  C   UNL     1       5.894   5.768 -11.221  0.00  0.00    +0.080 A 
ATOM     29  C   UNL     1       5.759   5.644 -12.598  0.00  0.00    +0.073 A 
ATOM     30 CL   UNL     1       4.128   5.387 -13.208  0.00  0.00    -0.081 Cl
ATOM     31  C   UNL     1       6.845   5.791 -13.452  0.00  0.00    +0.013 A 
ATOM     32  C   UNL     1       8.111   6.033 -12.941  0.00  0.00    +0.001 A 
ATOM     33  C   UNL     1       8.289   5.732 -11.597  0.00  0.00    -0.003 A 
ENDBRANCH  23  28
ENDBRANCH   1  24
TORSDOF 5
ENDMDL
MODEL 2
REMARK VINA RESULT:      -8.5      2.441      3.476
REMARK  Name = 
REMARK  5 active torsions:
REMARK  status: ('A' for Active; 'I' for Inactive)
REMARK    1  A    between atoms: C_8  and  N_9
REMARK    2  A    between atoms: C_10  and  C_12
REMARK    3  A    between atoms: N_16  and  C_17
REMARK    4  A    between atoms: N_23  and  C_24
REMARK    5  A    between atoms: C_24  and  C_25
REMARK                            x       y       z     vdW  Elec       q    Type
REMARK                         _______ _______ _______ _____ _____    ______ ____
ROOT
ATOM      1  C   UNL     1       3.818   5.570  -9.894  0.00  0.00    +0.107 A 
ATOM      2  S   UNL     1       3.215   6.729  -8.776  0.00  0.00    -0.045 S 
ATOM      3  C   UNL     1       2.167   5.703  -7.880  0.00  0.00    +0.185 A 
ATOM      4  N   UNL     1       1.002   5.994  -7.100  0.00  0.00    -0.170 NA
ATOM      5  N   UNL     1       2.607   4.500  -8.322  0.00  0.00    -0.221 NA
ATOM      6  C   UNL     1       2.937   4.532  -9.610  0.00  0.00    +0.112 A 
ENDROOT
BRANCH   4   7
ATOM      7  C   UNL     1       0.950   5.864  -5.697  0.00  0.00    +0.158 A 
ATOM      8  N   UNL     1      -0.134   5.302  -5.108  0.00  0.00    -0.214 NA
ATOM      9  C   UNL     1      -0.245   5.526  -3.778  0.00  0.00    +0.142 A 
ATOM     10  C   UNL     1      -1.592   5.494  -3.129  0.00  0.00    +0.074 C 
ATOM     11  N   UNL     1       0.893   5.608  -3.076  0.00  0.00    -0.216 NA
ATOM     12  C   UNL     1       2.107   5.743  -3.655  0.00  0.00    +0.136 A 
ATOM     13  N   UNL     1       3.160   6.234  -2.852  0.00  0.00    -0.290 N 
ATOM     14  C   UNL     1       2.985   7.443  -2.051  0.00  0.00    +0.109 C 
ATOM     15  C   UNL     1       2.750   7.123  -0.594  0.00  0.00    +0.094 C 
ATOM     16  N   UNL     1       3.687   6.155  -0.083  0.00  0.00    -0.268 NA
ATOM     17  C   UNL     1       3.779   4.970  -0.897  0.00  0.00    +0.094 C 
ATOM     18  C   UNL     1       4.130   5.273  -2.336  0.00  0.00    +0.109 C 
ATOM     19  C   UNL     1       2.152   5.655  -5.030  0.00  0.00    +0.070 A 
BRANCH  16  20
ATOM     20  C   UNL     1       4.968   6.716   0.261  0.00  0.00    +0.108 C 
BRANCH  20  21
ATOM     21  C   UNL     1       4.911   7.606   1.472  0.00  0.00    +0.199 C 
ATOM     22  O   UNL     1       4.485   6.928   2.610  0.00  0.00    -0.219 OA
ENDBRANCH  20  21
ENDBRANCH  16  20
ENDBRANCH   4   7
BRANCH   1  24
ATOM     23  N   UNL     1       5.119   7.077 -11.466  0.00  0.00    -0.174 NA
ATOM     24  C   UNL     1       4.515   5.838 -11.160  0.00  0.00    +0.277 C 
ATOM     25  O   UNL     1       4.597   4.937 -12.049  0.00  0.00    -0.267 OA
BRANCH  23  28
ATOM     26  C   UNL     1       5.385   7.336 -14.331  0.00  0.00    +0.032 C 
ATOM     27  C   UNL     1       6.517   6.850 -13.486  0.00  0.00    -0.006 A 
ATOM     28  C   UNL     1       6.397   7.042 -12.117  0.00  0.00    +0.080 A 
ATOM     29  C   UNL     1       7.512   6.681 -11.372  0.00  0.00    +0.073 A 
ATOM     30 CL   UNL     1       7.565   7.254  -9.709  0.00  0.00    -0.081 Cl
ATOM     31  C   UNL     1       8.497   5.850 -11.891  0.00  0.00    +0.013 A 
ATOM     32  C   UNL     1       8.405   5.383 -13.194  0.00  0.00    +0.001 A 
ATOM     33  C   UNL     1       7.539   6.080 -14.027  0.00  0.00    -0.003 A 
ENDBRANCH  23  28
ENDBRANCH   1  24
TORSDOF 5
ENDMDL
MODEL 3
REMARK VINA RESULT:      -8.3      4.427     11.803
REMARK  Name = 
REMARK  5 active torsions:
REMARK  status: ('A' for Active; 'I' for Inactive)
REMARK    1  A    between atoms: C_8  and  N_9
REMARK    2  A    between atoms: C_10  and  C_12
REMARK    3  A    between atoms: N_16  and  C_17
REMARK    4  A    between atoms: N_23  and  C_24
REMARK    5  A    between atoms: C_24  and  C_25
REMARK                            x       y       z     vdW  Elec       q    Type
REMARK                         _______ _______ _______ _____ _____    ______ ____
ROOT
ATOM      1  C   UNL     1       2.693   6.972  -1.210  0.00  0.00    +0.107 A 
ATOM      2  S   UNL     1       3.180   6.916  -2.859  0.00  0.00    -0.045 S 
ATOM      3  C   UNL     1       1.958   5.864  -3.454  0.00  0.00    +0.185 A 
ATOM      4  N   UNL     1       1.933   4.995  -4.592  0.00  0.00    -0.170 NA
ATOM      5  N   UNL     1       1.107   5.897  -2.399  0.00  0.00    -0.221 NA
ATOM      6  C   UNL     1       1.754   5.946  -1.238  0.00  0.00    +0.112 A 
ENDROOT
BRANCH   4   7
ATOM      7  C   UNL     1       1.115   5.210  -5.720  0.00  0.00    +0.158 A 
ATOM      8  N   UNL     1      -0.159   5.646  -5.560  0.00  0.00    -0.214 NA
ATOM      9  C   UNL     1      -0.956   5.499  -6.644  0.00  0.00    +0.142 A 
ATOM     10  C   UNL     1      -2.436   5.379  -6.466  0.00  0.00    +0.074 C 
ATOM     11  N   UNL     1      -0.381   5.632  -7.847  0.00  0.00    -0.216 NA
ATOM     12  C   UNL     1       0.958   5.638  -8.026  0.00  0.00    +0.136 A 
ATOM     13  N   UNL     1       1.443   5.361  -9.323  0.00  0.00    -0.290 N 
ATOM     14  C   UNL     1       0.965   4.197 -10.064  0.00  0.00    +0.109 C 
ATOM     15  C   UNL     1      -0.051   4.577 -11.115  0.00  0.00    +0.094 C 
ATOM     16  N   UNL     1       0.369   5.704 -11.907  0.00  0.00    -0.268 NA
ATOM     17  C   UNL     1       0.786   6.832 -11.114  0.00  0.00    +0.094 C 
ATOM     18  C   UNL     1       1.889   6.487 -10.139  0.00  0.00    +0.109 C 
ATOM     19  C   UNL     1       1.737   5.638  -6.888  0.00  0.00    +0.070 A 
BRANCH  16  20
ATOM     20  C   UNL     1       1.299   5.360 -12.952  0.00  0.00    +0.108 C 
BRANCH  20  21
ATOM     21  C   UNL     1       0.697   4.468 -14.002  0.00  0.00    +0.199 C 
ATOM     22  O   UNL     1       1.603   3.524 -14.480  0.00  0.00    -0.219 OA
ENDBRANCH  20  21
ENDBRANCH  16  20
ENDBRANCH   4   7
BRANCH   1  24
ATOM     23  N   UNL     1       4.036   8.729   0.032  0.00  0.00    -0.174 NA
ATOM     24  C   UNL     1       3.492   7.429  -0.064  0.00  0.00    +0.277 C 
ATOM     25  O   UNL     1       3.729   6.646   0.905  0.00  0.00    -0.267 OA
BRANCH  23  28
ATOM     26  C   UNL     1       1.647  10.081   0.934  0.00  0.00    +0.032 C 
ATOM     27  C   UNL     1       2.959  10.281   1.619  0.00  0.00    -0.006 A 
ATOM     28  C   UNL     1       3.965   9.376   1.310  0.00  0.00    +0.080 A 
ATOM     29  C   UNL     1       5.135   9.522   2.046  0.00  0.00    +0.073 A 
ATOM     30 CL   UNL     1       6.279   8.187   1.976  0.00  0.00    -0.081 Cl
ATOM     31  C   UNL     1       5.416  10.692   2.740  0.00  0.00    +0.013 A 
ATOM     32  C   UNL     1       4.510  11.742   2.744  0.00  0.00    +0.001 A 
ATOM     33  C   UNL     1       3.210  11.419   2.375  0.00  0.00    -0.003 A 
ENDBRANCH  23  28
ENDBRANCH   1  24
TORSDOF 5
ENDMDL
MODEL 4
REMARK VINA RESULT:      -8.3      2.422      3.696
REMARK  Name = 
REMARK  5 active torsions:
REMARK  status: ('A' for Active; 'I' for Inactive)
REMARK    1  A    between atoms: C_8  and  N_9
REMARK    2  A    between atoms: C_10  and  C_12
REMARK    3  A    between atoms: N_16  and  C_17
REMARK    4  A    between atoms: N_23  and  C_24
REMARK    5  A    between atoms: C_24  and  C_25
REMARK                            x       y       z     vdW  Elec       q    Type
REMARK                         _______ _______ _______ _____ _____    ______ ____
ROOT
ATOM      1  C   UNL     1       4.536   5.834 -10.009  0.00  0.00    +0.107 A 
ATOM      2  S   UNL     1       3.538   6.872  -9.068  0.00  0.00    -0.045 S 
ATOM      3  C   UNL     1       2.656   5.674  -8.209  0.00  0.00    +0.185 A 
ATOM      4  N   UNL     1       1.366   5.715  -7.590  0.00  0.00    -0.170 NA
ATOM      5  N   UNL     1       3.420   4.592  -8.494  0.00  0.00    -0.221 NA
ATOM      6  C   UNL     1       3.896   4.630  -9.736  0.00  0.00    +0.112 A 
ENDROOT
BRANCH   4   7
ATOM      7  C   UNL     1       1.167   5.657  -6.195  0.00  0.00    +0.158 A 
ATOM      8  N   UNL     1      -0.013   5.212  -5.697  0.00  0.00    -0.214 NA
ATOM      9  C   UNL     1      -0.233   5.507  -4.394  0.00  0.00    +0.142 A 
ATOM     10  C   UNL     1      -1.635   5.613  -3.884  0.00  0.00    +0.074 C 
ATOM     11  N   UNL     1       0.834   5.531  -3.585  0.00  0.00    -0.216 NA
ATOM     12  C   UNL     1       2.106   5.541  -4.043  0.00  0.00    +0.136 A 
ATOM     13  N   UNL     1       3.113   5.985  -3.159  0.00  0.00    -0.290 N 
ATOM     14  C   UNL     1       2.963   7.240  -2.428  0.00  0.00    +0.109 C 
ATOM     15  C   UNL     1       2.562   7.010  -0.990  0.00  0.00    +0.094 C 
ATOM     16  N   UNL     1       3.359   5.995  -0.350  0.00  0.00    -0.268 NA
ATOM     17  C   UNL     1       3.430   4.769  -1.103  0.00  0.00    +0.094 C 
ATOM     18  C   UNL     1       3.944   4.974  -2.510  0.00  0.00    +0.109 C 
ATOM     19  C   UNL     1       2.277   5.385  -5.402  0.00  0.00    +0.070 A 
BRANCH  16  20
ATOM     20  C   UNL     1       4.643   6.468   0.100  0.00  0.00    +0.108 C 
BRANCH  20  21
ATOM     21  C   UNL     1       4.538   7.531   1.159  0.00  0.00    +0.199 C 
ATOM     22  O   UNL     1       4.203   7.008   2.404  0.00  0.00    -0.219 OA
ENDBRANCH  20  21
ENDBRANCH  16  20
ENDBRANCH   4   7
BRANCH   1  24
ATOM     23  N   UNL     1       5.840   5.235 -12.101  0.00  0.00    -0.174 NA
ATOM     24  C   UNL     1       5.306   6.191 -11.209  0.00  0.00    +0.277 C 
ATOM     25  O   UNL     1       5.525   7.408 -11.491  0.00  0.00    -0.267 OA
BRANCH  23  28
ATOM     26  C   UNL     1       8.153   5.887 -13.705  0.00  0.00    +0.032 C 
ATOM     27  C   UNL     1       6.766   6.127 -14.206  0.00  0.00    -0.006 A 
ATOM     28  C   UNL     1       5.737   5.516 -13.504  0.00  0.00    +0.080 A 
ATOM     29  C   UNL     1       4.473   5.668 -14.060  0.00  0.00    +0.073 A 
ATOM     30 CL   UNL     1       3.210   4.611 -13.442  0.00  0.00    -0.081 Cl
ATOM     31  C   UNL     1       4.206   6.655 -15.001  0.00  0.00    +0.013 A 
ATOM     32  C   UNL     1       5.216   7.499 -15.439  0.00  0.00    +0.001 A 
ATOM     33  C   UNL     1       6.513   7.063 -15.202  0.00  0.00    -0.003 A 
ENDBRANCH  23  28
ENDBRANCH   1  24
TORSDOF 5
ENDMDL
MODEL 5
REMARK VINA RESULT:      -8.0      4.241     12.283
REMARK  Name = 
REMARK  5 active torsions:
REMARK  status: ('A' for Active; 'I' for Inactive)
REMARK    1  A    between atoms: C_8  and  N_9
REMARK    2  A    between atoms: C_10  and  C_12
REMARK    3  A    between atoms: N_16  and  C_17
REMARK    4  A    between atoms: N_23  and  C_24
REMARK    5  A    between atoms: C_24  and  C_25
REMARK                            x       y       z     vdW  Elec       q    Type
REMARK                         _______ _______ _______ _____ _____    ______ ____
ROOT
ATOM      1  C   UNL     1       1.100   5.641  -5.253  0.00  0.00    +0.107 A 
ATOM      2  S   UNL     1       1.606   6.775  -6.444  0.00  0.00    -0.045 S 
ATOM      3  C   UNL     1       2.705   5.773  -7.305  0.00  0.00    +0.185 A 
ATOM      4  N   UNL     1       3.835   6.097  -8.122  0.00  0.00    -0.170 NA
ATOM      5  N   UNL     1       2.354   4.570  -6.790  0.00  0.00    -0.221 NA
ATOM      6  C   UNL     1       2.044   4.649  -5.499  0.00  0.00    +0.112 A 
ENDROOT
BRANCH   4   7
ATOM      7  C   UNL     1       3.872   5.895  -9.518  0.00  0.00    +0.158 A 
ATOM      8  N   UNL     1       4.970   5.347 -10.093  0.00  0.00    -0.214 NA
ATOM      9  C   UNL     1       5.052   5.503 -11.435  0.00  0.00    +0.142 A 
ATOM     10  C   UNL     1       6.390   5.490 -12.103  0.00  0.00    +0.074 C 
ATOM     11  N   UNL     1       3.902   5.502 -12.122  0.00  0.00    -0.216 NA
ATOM     12  C   UNL     1       2.692   5.618 -11.531  0.00  0.00    +0.136 A 
ATOM     13  N   UNL     1       1.609   6.023 -12.341  0.00  0.00    -0.290 N 
ATOM     14  C   UNL     1       1.723   7.193 -13.207  0.00  0.00    +0.109 C 
ATOM     15  C   UNL     1       1.949   6.805 -14.650  0.00  0.00    +0.094 C 
ATOM     16  N   UNL     1       1.046   5.774 -15.093  0.00  0.00    -0.268 NA
ATOM     17  C   UNL     1       1.015   4.632 -14.216  0.00  0.00    +0.094 C 
ATOM     18  C   UNL     1       0.671   4.997 -12.790  0.00  0.00    +0.109 C 
ATOM     19  C   UNL     1       2.670   5.602 -10.153  0.00  0.00    +0.070 A 
BRANCH  16  20
ATOM     20  C   UNL     1      -0.262   6.264 -15.446  0.00  0.00    +0.108 C 
BRANCH  20  21
ATOM     21  C   UNL     1      -0.220   7.345 -16.491  0.00  0.00    +0.199 C 
ATOM     22  O   UNL     1       0.474   6.953 -17.632  0.00  0.00    -0.219 OA
ENDBRANCH  20  21
ENDBRANCH  16  20
ENDBRANCH   4   7
BRANCH   1  24
ATOM     23  N   UNL     1       0.233   4.976  -2.964  0.00  0.00    -0.174 NA
ATOM     24  C   UNL     1       0.408   5.931  -3.989  0.00  0.00    +0.277 C 
ATOM     25  O   UNL     1      -0.072   7.085  -3.772  0.00  0.00    -0.267 OA
BRANCH  23  28
ATOM     26  C   UNL     1      -1.993   5.556  -1.217  0.00  0.00    +0.032 C 
ATOM     27  C   UNL     1      -0.605   5.994  -0.880  0.00  0.00    -0.006 A 
ATOM     28  C   UNL     1       0.423   5.420  -1.614  0.00  0.00    +0.080 A 
ATOM     29  C   UNL     1       1.704   5.764  -1.201  0.00  0.00    +0.073 A 
ATOM     30 CL   UNL     1       3.022   4.781  -1.829  0.00  0.00    -0.081 Cl
ATOM     31  C   UNL     1       1.936   6.870  -0.394  0.00  0.00    +0.013 A 
ATOM     32  C   UNL     1       0.878   7.648   0.052  0.00  0.00    +0.001 A 
ATOM     33  C   UNL     1      -0.377   7.056  -0.013  0.00  0.00    -0.003 A 
ENDBRANCH  23  28
ENDBRANCH   1  24
TORSDOF 5
ENDMDL
MODEL 6
REMARK VINA RESULT:      -7.9      4.992     12.521
REMARK  Name = 
REMARK  5 active torsions:
REMARK  status: ('A' for Active; 'I' for Inactive)
REMARK    1  A    between atoms: C_8  and  N_9
REMARK    2  A    between atoms: C_10  and  C_12
REMARK    3  A    between atoms: N_16  and  C_17
REMARK    4  A    between atoms: N_23  and  C_24
REMARK    5  A    between atoms: C_24  and  C_25
REMARK                            x       y       z     vdW  Elec       q    Type
REMARK                         _______ _______ _______ _____ _____    ______ ____
ROOT
ATOM      1  C   UNL     1       1.604   5.370  -5.599  0.00  0.00    +0.107 A 
ATOM      2  S   UNL     1       1.953   6.575  -6.776  0.00  0.00    -0.045 S 
ATOM      3  C   UNL     1       3.031   5.670  -7.762  0.00  0.00    +0.185 A 
ATOM      4  N   UNL     1       4.073   6.088  -8.650  0.00  0.00    -0.170 NA
ATOM      5  N   UNL     1       2.786   4.430  -7.273  0.00  0.00    -0.221 NA
ATOM      6  C   UNL     1       2.576   4.443  -5.960  0.00  0.00    +0.112 A 
ENDROOT
BRANCH   4   7
ATOM      7  C   UNL     1       4.008   5.941 -10.052  0.00  0.00    +0.158 A 
ATOM      8  N   UNL     1       5.049   5.390 -10.723  0.00  0.00    -0.214 NA
ATOM      9  C   UNL     1       5.044   5.599 -12.061  0.00  0.00    +0.142 A 
ATOM     10  C   UNL     1       6.332   5.580 -12.820  0.00  0.00    +0.074 C 
ATOM     11  N   UNL     1       3.849   5.653 -12.665  0.00  0.00    -0.216 NA
ATOM     12  C   UNL     1       2.686   5.775 -11.987  0.00  0.00    +0.136 A 
ATOM     13  N   UNL     1       1.561   6.239 -12.704  0.00  0.00    -0.290 N 
ATOM     14  C   UNL     1       1.648   7.440 -13.530  0.00  0.00    +0.109 C 
ATOM     15  C   UNL     1       1.764   7.106 -14.999  0.00  0.00    +0.094 C 
ATOM     16  N   UNL     1       0.805   6.116 -15.418  0.00  0.00    -0.268 NA
ATOM     17  C   UNL     1       0.803   4.940 -14.585  0.00  0.00    +0.094 C 
ATOM     18  C   UNL     1       0.568   5.255 -13.125  0.00  0.00    +0.109 C 
ATOM     19  C   UNL     1       2.758   5.704 -10.612  0.00  0.00    +0.070 A 
BRANCH  16  20
ATOM     20  C   UNL     1      -0.510   6.652 -15.659  0.00  0.00    +0.108 C 
BRANCH  20  21
ATOM     21  C   UNL     1      -0.599   7.431 -16.942  0.00  0.00    +0.199 C 
ATOM     22  O   UNL     1       0.212   6.901 -17.942  0.00  0.00    -0.219 OA
ENDBRANCH  20  21
ENDBRANCH  16  20
ENDBRANCH   4   7
BRANCH   1  24
ATOM     23  N   UNL     1      -0.013   6.522  -4.020  0.00  0.00    -0.174 NA
ATOM     24  C   UNL     1       1.001   5.573  -4.274  0.00  0.00    +0.277 C 
ATOM     25  O   UNL     1       1.386   4.881  -3.283  0.00  0.00    -0.267 OA
BRANCH  23  28
ATOM     26  C   UNL     1      -2.394   5.250  -5.047  0.00  0.00    +0.032 C 
ATOM     27  C   UNL     1      -2.345   5.804  -3.661  0.00  0.00    -0.006 A 
ATOM     28  C   UNL     1      -1.089   6.119  -3.162  0.00  0.00    +0.080 A 
ATOM     29  C   UNL     1      -1.068   6.526  -1.834  0.00  0.00    +0.073 A 
ATOM     30 CL   UNL     1       0.506   6.562  -1.047  0.00  0.00    -0.081 Cl
ATOM     31  C   UNL     1      -2.220   6.953  -1.185  0.00  0.00    +0.013 A 
ATOM     32  C   UNL     1      -3.440   6.949  -1.846  0.00  0.00    +0.001 A 
ATOM     33  C   UNL     1      -3.507   6.160  -2.987  0.00  0.00    -0.003 A 
ENDBRANCH  23  28
ENDBRANCH   1  24
TORSDOF 5
ENDMDL
MODEL 7
REMARK VINA RESULT:      -7.8      2.367      3.432
REMARK  Name = 
REMARK  5 active torsions:
REMARK  status: ('A' for Active; 'I' for Inactive)
REMARK    1  A    between atoms: C_8  and  N_9
REMARK    2  A    between atoms: C_10  and  C_12
REMARK    3  A    between atoms: N_16  and  C_17
REMARK    4  A    between atoms: N_23  and  C_24
REMARK    5  A    between atoms: C_24  and  C_25
REMARK                            x       y       z     vdW  Elec       q    Type
REMARK                         _______ _______ _______ _____ _____    ______ ____
ROOT
ATOM      1  C   UNL     1       2.857   7.138  -6.159  0.00  0.00    +0.107 A 
ATOM      2  S   UNL     1       1.557   6.633  -5.153  0.00  0.00    -0.045 S 
ATOM      3  C   UNL     1       2.398   6.571  -3.656  0.00  0.00    +0.185 A 
ATOM      4  N   UNL     1       2.141   5.826  -2.460  0.00  0.00    -0.170 NA
ATOM      5  N   UNL     1       3.522   7.239  -4.007  0.00  0.00    -0.221 NA
ATOM      6  C   UNL     1       3.898   6.964  -5.253  0.00  0.00    +0.112 A 
ENDROOT
BRANCH   4   7
ATOM      7  C   UNL     1       1.737   6.416  -1.244  0.00  0.00    +0.158 A 
ATOM      8  N   UNL     1       0.631   5.962  -0.607  0.00  0.00    -0.214 NA
ATOM      9  C   UNL     1       0.139   6.789   0.346  0.00  0.00    +0.142 A 
ATOM     10  C   UNL     1      -1.313   6.729   0.702  0.00  0.00    +0.074 C 
ATOM     11  N   UNL     1       1.024   7.516   1.040  0.00  0.00    -0.216 NA
ATOM     12  C   UNL     1       2.314   7.659   0.665  0.00  0.00    +0.136 A 
ATOM     13  N   UNL     1       3.031   8.750   1.202  0.00  0.00    -0.290 N 
ATOM     14  C   UNL     1       2.474  10.099   1.166  0.00  0.00    +0.109 C 
ATOM     15  C   UNL     1       1.910  10.512   2.505  0.00  0.00    +0.094 C 
ATOM     16  N   UNL     1       2.809  10.227   3.594  0.00  0.00    -0.268 NA
ATOM     17  C   UNL     1       3.287   8.868   3.595  0.00  0.00    +0.094 C 
ATOM     18  C   UNL     1       3.960   8.483   2.297  0.00  0.00    +0.109 C 
ATOM     19  C   UNL     1       2.736   6.904  -0.409  0.00  0.00    +0.070 A 
BRANCH  16  20
ATOM     20  C   UNL     1       3.855  11.205   3.750  0.00  0.00    +0.108 C 
BRANCH  20  21
ATOM     21  C   UNL     1       3.354  12.620   3.650  0.00  0.00    +0.199 C 
ATOM     22  O   UNL     1       3.947  13.320   2.604  0.00  0.00    -0.219 OA
ENDBRANCH  20  21
ENDBRANCH  16  20
ENDBRANCH   4   7
BRANCH   1  24
ATOM     23  N   UNL     1       3.802   6.220  -8.327  0.00  0.00    -0.174 NA
ATOM     24  C   UNL     1       2.921   7.072  -7.626  0.00  0.00    +0.277 C 
ATOM     25  O   UNL     1       2.165   7.805  -8.333  0.00  0.00    -0.267 OA
BRANCH  23  28
ATOM     26  C   UNL     1       4.602   6.937 -11.008  0.00  0.00    +0.032 C 
ATOM     27  C   UNL     1       3.410   6.073 -10.758  0.00  0.00    -0.006 A 
ATOM     28  C   UNL     1       3.283   5.545  -9.481  0.00  0.00    +0.080 A 
ATOM     29  C   UNL     1       2.226   4.658  -9.314  0.00  0.00    +0.073 A 
ATOM     30 CL   UNL     1       2.249   3.676  -7.854  0.00  0.00    -0.081 Cl
ATOM     31  C   UNL     1       1.171   4.604 -10.215  0.00  0.00    +0.013 A 
ATOM     32  C   UNL     1       1.165   5.420 -11.337  0.00  0.00    +0.001 A 
ATOM     33  C   UNL     1       2.391   5.964 -11.696  0.00  0.00    -0.003 A 
ENDBRANCH  23  28
ENDBRANCH   1  24
TORSDOF 5
ENDMDL
MODEL 8
REMARK VINA RESULT:      -7.8      2.047      2.586
REMARK  Name = 
REMARK  5 active torsions:
REMARK  status: ('A' for Active; 'I' for Inactive)
REMARK    1  A    between atoms: C_8  and  N_9
REMARK    2  A    between atoms: C_10  and  C_12
REMARK    3  A    between atoms: N_16  and  C_17
REMARK    4  A    between atoms: N_23  and  C_24
REMARK    5  A    between atoms: C_24  and  C_25
REMARK                            x       y       z     vdW  Elec       q    Type
REMARK                         _______ _______ _______ _____ _____    ______ ____
ROOT
ATOM      1  C   UNL     1       2.726   5.406  -6.883  0.00  0.00    +0.107 A 
ATOM      2  S   UNL     1       1.654   6.465  -6.054  0.00  0.00    -0.045 S 
ATOM      3  C   UNL     1       1.490   5.576  -4.593  0.00  0.00    +0.185 A 
ATOM      4  N   UNL     1       0.449   5.559  -3.611  0.00  0.00    -0.170 NA
ATOM      5  N   UNL     1       2.515   4.703  -4.751  0.00  0.00    -0.221 NA
ATOM      6  C   UNL     1       2.653   4.320  -6.017  0.00  0.00    +0.112 A 
ENDROOT
BRANCH   4   7
ATOM      7  C   UNL     1       0.602   6.059  -2.301  0.00  0.00    +0.158 A 
ATOM      8  N   UNL     1      -0.315   5.759  -1.350  0.00  0.00    -0.214 NA
ATOM      9  C   UNL     1      -0.273   6.541  -0.246  0.00  0.00    +0.142 A 
ATOM     10  C   UNL     1      -1.507   6.728   0.579  0.00  0.00    +0.074 C 
ATOM     11  N   UNL     1       0.930   6.984   0.143  0.00  0.00    -0.216 NA
ATOM     12  C   UNL     1       2.029   6.912  -0.639  0.00  0.00    +0.136 A 
ATOM     13  N   UNL     1       3.111   7.761  -0.321  0.00  0.00    -0.290 N 
ATOM     14  C   UNL     1       2.898   9.188  -0.096  0.00  0.00    +0.109 C 
ATOM     15  C   UNL     1       2.903   9.533   1.375  0.00  0.00    +0.094 C 
ATOM     16  N   UNL     1       4.011   8.939   2.078  0.00  0.00    -0.268 NA
ATOM     17  C   UNL     1       4.138   7.523   1.845  0.00  0.00    +0.094 C 
ATOM     18  C   UNL     1       4.253   7.178   0.378  0.00  0.00    +0.109 C 
ATOM     19  C   UNL     1       1.900   6.229  -1.830  0.00  0.00    +0.070 A 
BRANCH  16  20
ATOM     20  C   UNL     1       5.248   9.661   1.920  0.00  0.00    +0.108 C 
BRANCH  20  21
ATOM     21  C   UNL     1       6.393   9.031   2.664  0.00  0.00    +0.199 C 
ATOM     22  O   UNL     1       7.492   9.878   2.762  0.00  0.00    -0.219 OA
ENDBRANCH  20  21
ENDBRANCH  16  20
ENDBRANCH   4   7
BRANCH   1  24
ATOM     23  N   UNL     1       3.728   6.421  -8.981  0.00  0.00    -0.174 NA
ATOM     24  C   UNL     1       3.022   5.390  -8.323  0.00  0.00    +0.277 C 
ATOM     25  O   UNL     1       2.637   4.421  -9.045  0.00  0.00    -0.267 OA
BRANCH  23  28
ATOM     26  C   UNL     1       6.243   5.205  -8.244  0.00  0.00    +0.032 C 
ATOM     27  C   UNL     1       6.013   5.743  -9.618  0.00  0.00    -0.006 A 
ATOM     28  C   UNL     1       4.699   6.029  -9.961  0.00  0.00    +0.080 A 
ATOM     29  C   UNL     1       4.506   6.420 -11.280  0.00  0.00    +0.073 A 
ATOM     30 CL   UNL     1       2.847   6.417 -11.867  0.00  0.00    -0.081 Cl
ATOM     31  C   UNL     1       5.561   6.861 -12.070  0.00  0.00    +0.013 A 
ATOM     32  C   UNL     1       6.852   6.888 -11.564  0.00  0.00    +0.001 A 
ATOM     33  C   UNL     1       7.075   6.113 -10.433  0.00  0.00    -0.003 A 
ENDBRANCH  23  28
ENDBRANCH   1  24
TORSDOF 5
ENDMDL
MODEL 9
REMARK VINA RESULT:      -7.7      2.375      3.198
REMARK  Name = 
REMARK  5 active torsions:
REMARK  status: ('A' for Active; 'I' for Inactive)
REMARK    1  A    between atoms: C_8  and  N_9
REMARK    2  A    between atoms: C_10  and  C_12
REMARK    3  A    between atoms: N_16  and  C_17
REMARK    4  A    between atoms: N_23  and  C_24
REMARK    5  A    between atoms: C_24  and  C_25
REMARK                            x       y       z     vdW  Elec       q    Type
REMARK                         _______ _______ _______ _____ _____    ______ ____
ROOT
ATOM      1  C   UNL     1       3.669   6.276  -8.038  0.00  0.00    +0.107 A 
ATOM      2  S   UNL     1       2.207   6.177  -7.137  0.00  0.00    -0.045 S 
ATOM      3  C   UNL     1       2.868   5.705  -5.622  0.00  0.00    +0.185 A 
ATOM      4  N   UNL     1       2.288   5.003  -4.518  0.00  0.00    -0.170 NA
ATOM      5  N   UNL     1       4.176   5.966  -5.863  0.00  0.00    -0.221 NA
ATOM      6  C   UNL     1       4.521   5.678  -7.115  0.00  0.00    +0.112 A 
ENDROOT
BRANCH   4   7
ATOM      7  C   UNL     1       2.027   5.597  -3.265  0.00  0.00    +0.158 A 
ATOM      8  N   UNL     1       0.885   5.298  -2.599  0.00  0.00    -0.214 NA
ATOM      9  C   UNL     1       0.566   6.151  -1.598  0.00  0.00    +0.142 A 
ATOM     10  C   UNL     1      -0.863   6.307  -1.184  0.00  0.00    +0.074 C 
ATOM     11  N   UNL     1       1.580   6.698  -0.915  0.00  0.00    -0.216 NA
ATOM     12  C   UNL     1       2.863   6.650  -1.338  0.00  0.00    +0.136 A 
ATOM     13  N   UNL     1       3.764   7.590  -0.790  0.00  0.00    -0.290 N 
ATOM     14  C   UNL     1       3.428   9.010  -0.755  0.00  0.00    +0.109 C 
ATOM     15  C   UNL     1       2.985   9.449   0.621  0.00  0.00    +0.094 C 
ATOM     16  N   UNL     1       3.865   8.979   1.661  0.00  0.00    -0.268 NA
ATOM     17  C   UNL     1       4.119   7.563   1.592  0.00  0.00    +0.094 C 
ATOM     18  C   UNL     1       4.676   7.131   0.254  0.00  0.00    +0.109 C 
ATOM     19  C   UNL     1       3.120   5.884  -2.455  0.00  0.00    +0.070 A 
BRANCH  16  20
ATOM     20  C   UNL     1       5.059   9.771   1.809  0.00  0.00    +0.108 C 
BRANCH  20  21
ATOM     21  C   UNL     1       4.772  11.235   1.994  0.00  0.00    +0.199 C 
ATOM     22  O   UNL     1       5.330  12.017   0.987  0.00  0.00    -0.219 OA
ENDBRANCH  20  21
ENDBRANCH  16  20
ENDBRANCH   4   7
BRANCH   1  24
ATOM     23  N   UNL     1       3.186   5.381 -10.361  0.00  0.00    -0.174 NA
ATOM     24  C   UNL     1       3.809   6.311  -9.500  0.00  0.00    +0.277 C 
ATOM     25  O   UNL     1       4.519   7.203 -10.055  0.00  0.00    -0.267 OA
BRANCH  23  28
ATOM     26  C   UNL     1       0.618   6.704 -10.388  0.00  0.00    +0.032 C 
ATOM     27  C   UNL     1       1.265   6.237 -11.651  0.00  0.00    -0.006 A 
ATOM     28  C   UNL     1       2.607   5.892 -11.570  0.00  0.00    +0.080 A 
ATOM     29  C   UNL     1       3.206   5.570 -12.782  0.00  0.00    +0.073 A 
ATOM     30 CL   UNL     1       4.965   5.505 -12.796  0.00  0.00    -0.081 Cl
ATOM     31  C   UNL     1       2.453   5.244 -13.902  0.00  0.00    +0.013 A 
ATOM     32  C   UNL     1       1.067   5.267 -13.847  0.00  0.00    +0.001 A 
ATOM     33  C   UNL     1       0.516   5.984 -12.793  0.00  0.00    -0.003 A 
ENDBRANCH  23  28
ENDBRANCH   1  24
TORSDOF 5
ENDMDL
