MODEL 1
REMARK VINA RESULT:      -8.5      0.000      0.000
REMARK  Name = 
REMARK  1 active torsions:
REMARK  status: ('A' for Active; 'I' for Inactive)
REMARK    1  A    between atoms: O_2  and  C_3
REMARK                            x       y       z     vdW  Elec       q    Type
REMARK                         _______ _______ _______ _____ _____    ______ ____
ROOT
ATOM      1  C   UNL     1      -1.228   5.820  -4.609  0.00  0.00    +0.172 A 
ATOM      2  C   UNL     1       0.112   6.098  -4.867  0.00  0.00    +0.168 A 
ATOM      3  O   UNL     1       1.308   6.061  -4.211  0.00  0.00    -0.469 OA
ATOM      4  C   UNL     1       2.284   6.914  -5.061  0.00  0.00    +0.226 C 
ATOM      5  C   UNL     1       1.701   6.454  -6.513  0.00  0.00    +0.068 C 
ATOM      6  C   UNL     1       2.721   5.376  -7.086  0.00  0.00    +0.023 C 
ATOM      7  C   UNL     1       1.849   4.827  -8.442  0.00  0.00    +0.062 C 
ATOM      8  N   UNL     1       2.525   5.949  -9.307  0.00  0.00    -0.272 NA
ATOM      9  C   UNL     1       2.446   7.190  -8.757  0.00  0.00    +0.073 C 
ATOM     10  C   UNL     1       2.099   5.758 -10.654  0.00  0.00    +0.090 C 
ATOM     11  C   UNL     1       0.459   5.659  -8.387  0.00  0.00    +0.042 C 
ATOM     12  C   UNL     1      -0.256   5.254  -7.133  0.00  0.00    -0.022 A 
ATOM     13  C   UNL     1      -1.626   5.439  -6.969  0.00  0.00    -0.001 A 
ATOM     14  C   UNL     1       2.178   4.169  -6.134  0.00  0.00    +0.010 C 
ATOM     15  C   UNL     1       3.144   4.404  -4.972  0.00  0.00    +0.068 C 
ATOM     16  C   UNL     1       1.907   7.567  -7.464  0.00  0.00    +0.025 C 
ATOM     17  C   UNL     1       3.481   5.823  -4.915  0.00  0.00    +0.191 C 
ATOM     18  O   UNL     1       4.098   6.215  -3.923  0.00  0.00    -0.292 OA
ATOM     19  C   UNL     1       0.463   5.956  -6.167  0.00  0.00    +0.014 A 
ATOM     20  C   UNL     1      -2.114   5.710  -5.686  0.00  0.00    +0.040 A 
ENDROOT
BRANCH   1  22
ATOM     21  C   UNL     1      -2.499   5.503  -2.530  0.00  0.00    +0.253 C 
ATOM     22  O   UNL     1      -1.636   5.777  -3.344  0.00  0.00    -0.468 OA
ENDBRANCH   1  22
TORSDOF 1
ENDMDL
MODEL 2
REMARK VINA RESULT:      -8.0      3.520      6.462
REMARK  Name = 
REMARK  1 active torsions:
REMARK  status: ('A' for Active; 'I' for Inactive)
REMARK    1  A    between atoms: O_2  and  C_3
REMARK                            x       y       z     vdW  Elec       q    Type
REMARK                         _______ _______ _______ _____ _____    ______ ____
ROOT
ATOM      1  C   UNL     1       5.162   6.021 -10.974  0.00  0.00    +0.172 A 
ATOM      2  C   UNL     1       3.887   6.219 -10.450  0.00  0.00    +0.168 A 
ATOM      3  O   UNL     1       2.589   6.177 -10.872  0.00  0.00    -0.469 OA
ATOM      4  C   UNL     1       1.767   6.920  -9.789  0.00  0.00    +0.226 C 
ATOM      5  C   UNL     1       2.628   6.380  -8.513  0.00  0.00    +0.068 C 
ATOM      6  C   UNL     1       1.768   5.218  -7.850  0.00  0.00    +0.023 C 
ATOM      7  C   UNL     1       2.897   4.610  -6.729  0.00  0.00    +0.062 C 
ATOM      8  N   UNL     1       2.362   5.633  -5.665  0.00  0.00    -0.272 NA
ATOM      9  C   UNL     1       2.299   6.913  -6.117  0.00  0.00    +0.073 C 
ATOM     10  C   UNL     1       3.042   5.363  -4.440  0.00  0.00    +0.090 C 
ATOM     11  C   UNL     1       4.225   5.505  -6.974  0.00  0.00    +0.042 C 
ATOM     12  C   UNL     1       4.702   5.227  -8.367  0.00  0.00    -0.022 A 
ATOM     13  C   UNL     1       6.010   5.484  -8.769  0.00  0.00    -0.001 A 
ATOM     14  C   UNL     1       2.156   4.111  -8.981  0.00  0.00    +0.010 C 
ATOM     15  C   UNL     1       0.981   4.387  -9.920  0.00  0.00    +0.068 C 
ATOM     16  C   UNL     1       2.572   7.409  -7.453  0.00  0.00    +0.025 C 
ATOM     17  C   UNL     1       0.597   5.790  -9.797  0.00  0.00    +0.191 C 
ATOM     18  O   UNL     1      -0.208   6.227 -10.622  0.00  0.00    -0.292 OA
ATOM     19  C   UNL     1       3.792   5.965  -9.123  0.00  0.00    +0.014 A 
ATOM     20  C   UNL     1       6.238   5.871 -10.093  0.00  0.00    +0.040 A 
ENDROOT
BRANCH   1  22
ATOM     21  C   UNL     1       5.250   5.560 -13.386  0.00  0.00    +0.253 C 
ATOM     22  O   UNL     1       5.323   6.091 -12.292  0.00  0.00    -0.468 OA
ENDBRANCH   1  22
TORSDOF 1
ENDMDL
MODEL 3
REMARK VINA RESULT:      -7.9      1.843      4.229
REMARK  Name = 
REMARK  1 active torsions:
REMARK  status: ('A' for Active; 'I' for Inactive)
REMARK    1  A    between atoms: O_2  and  C_3
REMARK                            x       y       z     vdW  Elec       q    Type
REMARK                         _______ _______ _______ _____ _____    ______ ____
ROOT
ATOM      1  C   UNL     1       3.494   7.478  -2.860  0.00  0.00    +0.172 A 
ATOM      2  C   UNL     1       2.492   6.691  -3.421  0.00  0.00    +0.168 A 
ATOM      3  O   UNL     1       1.160   6.451  -3.244  0.00  0.00    -0.469 OA
ATOM      4  C   UNL     1       0.860   5.136  -4.006  0.00  0.00    +0.226 C 
ATOM      5  C   UNL     1       1.868   5.424  -5.256  0.00  0.00    +0.068 C 
ATOM      6  C   UNL     1       0.955   5.906  -6.467  0.00  0.00    +0.023 C 
ATOM      7  C   UNL     1       2.155   6.399  -7.570  0.00  0.00    +0.062 C 
ATOM      8  N   UNL     1       2.188   4.943  -8.156  0.00  0.00    -0.272 NA
ATOM      9  C   UNL     1       2.324   3.974  -7.212  0.00  0.00    +0.073 C 
ATOM     10  C   UNL     1       3.078   4.956  -9.270  0.00  0.00    +0.090 C 
ATOM     11  C   UNL     1       3.549   6.152  -6.782  0.00  0.00    +0.042 C 
ATOM     12  C   UNL     1       3.558   7.062  -5.591  0.00  0.00    -0.022 A 
ATOM     13  C   UNL     1       4.736   7.419  -4.940  0.00  0.00    -0.001 A 
ATOM     14  C   UNL     1       0.748   7.411  -5.878  0.00  0.00    +0.010 C 
ATOM     15  C   UNL     1      -0.528   7.125  -5.085  0.00  0.00    +0.068 C 
ATOM     16  C   UNL     1       2.348   4.123  -5.769  0.00  0.00    +0.025 C 
ATOM     17  C   UNL     1      -0.510   5.732  -4.646  0.00  0.00    +0.191 C 
ATOM     18  O   UNL     1      -1.371   5.387  -3.835  0.00  0.00    -0.292 OA
ATOM     19  C   UNL     1       2.691   6.394  -4.727  0.00  0.00    +0.014 A 
ATOM     20  C   UNL     1       4.694   7.643  -3.560  0.00  0.00    +0.040 A 
ENDROOT
BRANCH   1  22
ATOM     21  C   UNL     1       3.620   8.748  -0.760  0.00  0.00    +0.253 C 
ATOM     22  O   UNL     1       3.314   7.953  -1.631  0.00  0.00    -0.468 OA
ENDBRANCH   1  22
TORSDOF 1
ENDMDL
MODEL 4
REMARK VINA RESULT:      -7.4      2.299      4.080
REMARK  Name = 
REMARK  1 active torsions:
REMARK  status: ('A' for Active; 'I' for Inactive)
REMARK    1  A    between atoms: O_2  and  C_3
REMARK                            x       y       z     vdW  Elec       q    Type
REMARK                         _______ _______ _______ _____ _____    ______ ____
ROOT
ATOM      1  C   UNL     1      -0.640   5.553  -5.551  0.00  0.00    +0.172 A 
ATOM      2  C   UNL     1       0.612   5.172  -6.027  0.00  0.00    +0.168 A 
ATOM      3  O   UNL     1       1.183   4.782  -7.204  0.00  0.00    -0.469 OA
ATOM      4  C   UNL     1       2.541   4.138  -6.824  0.00  0.00    +0.226 C 
ATOM      5  C   UNL     1       2.889   5.167  -5.608  0.00  0.00    +0.068 C 
ATOM      6  C   UNL     1       3.955   6.198  -6.183  0.00  0.00    +0.023 C 
ATOM      7  C   UNL     1       4.007   7.322  -4.905  0.00  0.00    +0.062 C 
ATOM      8  N   UNL     1       5.156   6.483  -4.240  0.00  0.00    -0.272 NA
ATOM      9  C   UNL     1       4.873   5.159  -4.126  0.00  0.00    +0.073 C 
ATOM     10  C   UNL     1       5.592   7.202  -3.088  0.00  0.00    +0.090 C 
ATOM     11  C   UNL     1       2.929   6.759  -3.834  0.00  0.00    +0.042 C 
ATOM     12  C   UNL     1       1.582   6.806  -4.487  0.00  0.00    -0.022 A 
ATOM     13  C   UNL     1       0.400   6.799  -3.751  0.00  0.00    -0.001 A 
ATOM     14  C   UNL     1       2.856   7.063  -7.020  0.00  0.00    +0.010 C 
ATOM     15  C   UNL     1       2.966   6.283  -8.330  0.00  0.00    +0.068 C 
ATOM     16  C   UNL     1       3.710   4.442  -4.614  0.00  0.00    +0.025 C 
ATOM     17  C   UNL     1       3.323   4.900  -8.028  0.00  0.00    +0.191 C 
ATOM     18  O   UNL     1       3.267   4.089  -8.955  0.00  0.00    -0.292 OA
ATOM     19  C   UNL     1       1.649   5.704  -5.337  0.00  0.00    +0.014 A 
ATOM     20  C   UNL     1      -0.726   6.176  -4.301  0.00  0.00    +0.040 A 
ENDROOT
BRANCH   1  22
ATOM     21  C   UNL     1      -2.901   5.363  -6.494  0.00  0.00    +0.253 C 
ATOM     22  O   UNL     1      -1.716   5.212  -6.253  0.00  0.00    -0.468 OA
ENDBRANCH   1  22
TORSDOF 1
ENDMDL
MODEL 5
REMARK VINA RESULT:      -7.4      2.384      5.211
REMARK  Name = 
REMARK  1 active torsions:
REMARK  status: ('A' for Active; 'I' for Inactive)
REMARK    1  A    between atoms: O_2  and  C_3
REMARK                            x       y       z     vdW  Elec       q    Type
REMARK                         _______ _______ _______ _____ _____    ______ ____
ROOT
ATOM      1  C   UNL     1       5.090   5.418  -9.199  0.00  0.00    +0.172 A 
ATOM      2  C   UNL     1       4.660   5.283  -7.881  0.00  0.00    +0.168 A 
ATOM      3  O   UNL     1       5.142   5.491  -6.621  0.00  0.00    -0.469 OA
ATOM      4  C   UNL     1       4.196   4.713  -5.672  0.00  0.00    +0.226 C 
ATOM      5  C   UNL     1       2.823   5.029  -6.494  0.00  0.00    +0.068 C 
ATOM      6  C   UNL     1       2.078   6.186  -5.697  0.00  0.00    +0.023 C 
ATOM      7  C   UNL     1       0.837   6.561  -6.802  0.00  0.00    +0.062 C 
ATOM      8  N   UNL     1      -0.074   5.482  -6.116  0.00  0.00    -0.272 NA
ATOM      9  C   UNL     1       0.525   4.270  -5.972  0.00  0.00    +0.073 C 
ATOM     10  C   UNL     1      -1.355   5.553  -6.738  0.00  0.00    +0.090 C 
ATOM     11  C   UNL     1       1.113   5.579  -8.061  0.00  0.00    +0.042 C 
ATOM     12  C   UNL     1       2.438   5.963  -8.647  0.00  0.00    -0.022 A 
ATOM     13  C   UNL     1       2.797   5.631  -9.951  0.00  0.00    -0.001 A 
ATOM     14  C   UNL     1       3.053   7.369  -6.250  0.00  0.00    +0.010 C 
ATOM     15  C   UNL     1       4.078   7.307  -5.117  0.00  0.00    +0.068 C 
ATOM     16  C   UNL     1       1.892   3.900  -6.284  0.00  0.00    +0.025 C 
ATOM     17  C   UNL     1       4.137   5.940  -4.607  0.00  0.00    +0.191 C 
ATOM     18  O   UNL     1       5.048   5.672  -3.820  0.00  0.00    -0.292 OA
ATOM     19  C   UNL     1       3.320   5.398  -7.726  0.00  0.00    +0.014 A 
ATOM     20  C   UNL     1       4.143   5.371 -10.227  0.00  0.00    +0.040 A 
ENDROOT
BRANCH   1  22
ATOM     21  C   UNL     1       7.374   6.128  -9.765  0.00  0.00    +0.253 C 
ATOM     22  O   UNL     1       6.397   5.478  -9.436  0.00  0.00    -0.468 OA
ENDBRANCH   1  22
TORSDOF 1
ENDMDL
MODEL 6
REMARK VINA RESULT:      -7.2      1.836      2.406
REMARK  Name = 
REMARK  1 active torsions:
REMARK  status: ('A' for Active; 'I' for Inactive)
REMARK    1  A    between atoms: O_2  and  C_3
REMARK                            x       y       z     vdW  Elec       q    Type
REMARK                         _______ _______ _______ _____ _____    ______ ____
ROOT
ATOM      1  C   UNL     1       0.879   6.129  -2.336  0.00  0.00    +0.172 A 
ATOM      2  C   UNL     1       1.960   6.460  -3.150  0.00  0.00    +0.168 A 
ATOM      3  O   UNL     1       3.295   6.718  -3.023  0.00  0.00    -0.469 OA
ATOM      4  C   UNL     1       3.720   7.406  -4.345  0.00  0.00    +0.226 C 
ATOM      5  C   UNL     1       2.761   6.520  -5.321  0.00  0.00    +0.068 C 
ATOM      6  C   UNL     1       3.698   5.435  -6.009  0.00  0.00    +0.023 C 
ATOM      7  C   UNL     1       2.525   4.461  -6.768  0.00  0.00    +0.062 C 
ATOM      8  N   UNL     1       2.620   5.372  -8.043  0.00  0.00    -0.272 NA
ATOM      9  C   UNL     1       2.503   6.700  -7.778  0.00  0.00    +0.073 C 
ATOM     10  C   UNL     1       1.789   4.788  -9.043  0.00  0.00    +0.090 C 
ATOM     11  C   UNL     1       1.113   5.135  -6.348  0.00  0.00    +0.042 C 
ATOM     12  C   UNL     1       0.983   5.010  -4.860  0.00  0.00    -0.022 A 
ATOM     13  C   UNL     1      -0.248   5.095  -4.214  0.00  0.00    -0.001 A 
ATOM     14  C   UNL     1       3.774   4.478  -4.692  0.00  0.00    +0.010 C 
ATOM     15  C   UNL     1       5.024   5.108  -4.078  0.00  0.00    +0.068 C 
ATOM     16  C   UNL     1       2.396   7.353  -6.487  0.00  0.00    +0.025 C 
ATOM     17  C   UNL     1       5.078   6.518  -4.455  0.00  0.00    +0.191 C 
ATOM     18  O   UNL     1       5.918   7.220  -3.890  0.00  0.00    -0.292 OA
ATOM     19  C   UNL     1       1.847   6.012  -4.422  0.00  0.00    +0.014 A 
ATOM     20  C   UNL     1      -0.292   5.648  -2.930  0.00  0.00    +0.040 A 
ENDROOT
BRANCH   1  22
ATOM     21  C   UNL     1       0.830   7.167  -0.108  0.00  0.00    +0.253 C 
ATOM     22  O   UNL     1       0.964   6.386  -1.033  0.00  0.00    -0.468 OA
ENDBRANCH   1  22
TORSDOF 1
ENDMDL
MODEL 7
REMARK VINA RESULT:      -7.2      2.467      4.193
REMARK  Name = 
REMARK  1 active torsions:
REMARK  status: ('A' for Active; 'I' for Inactive)
REMARK    1  A    between atoms: O_2  and  C_3
REMARK                            x       y       z     vdW  Elec       q    Type
REMARK                         _______ _______ _______ _____ _____    ______ ____
ROOT
ATOM      1  C   UNL     1      -0.194   6.178  -6.111  0.00  0.00    +0.172 A 
ATOM      2  C   UNL     1       0.157   5.638  -7.346  0.00  0.00    +0.168 A 
ATOM      3  O   UNL     1      -0.416   5.418  -8.566  0.00  0.00    -0.469 OA
ATOM      4  C   UNL     1       0.504   4.400  -9.288  0.00  0.00    +0.226 C 
ATOM      5  C   UNL     1       1.910   4.998  -8.717  0.00  0.00    +0.068 C 
ATOM      6  C   UNL     1       2.545   5.856  -9.895  0.00  0.00    +0.023 C 
ATOM      7  C   UNL     1       3.835   6.598  -9.067  0.00  0.00    +0.062 C 
ATOM      8  N   UNL     1       4.751   5.379  -9.441  0.00  0.00    -0.272 NA
ATOM      9  C   UNL     1       4.204   4.170  -9.145  0.00  0.00    +0.073 C 
ATOM     10  C   UNL     1       6.065   5.680  -8.975  0.00  0.00    +0.090 C 
ATOM     11  C   UNL     1       3.689   6.067  -7.543  0.00  0.00    +0.042 C 
ATOM     12  C   UNL     1       2.388   6.584  -7.011  0.00  0.00    -0.022 A 
ATOM     13  C   UNL     1       2.131   6.679  -5.645  0.00  0.00    -0.001 A 
ATOM     14  C   UNL     1       1.551   7.130  -9.676  0.00  0.00    +0.010 C 
ATOM     15  C   UNL     1       0.459   6.680 -10.647  0.00  0.00    +0.068 C 
ATOM     16  C   UNL     1       2.880   3.886  -8.627  0.00  0.00    +0.025 C 
ATOM     17  C   UNL     1       0.434   5.221 -10.689  0.00  0.00    +0.191 C 
ATOM     18  O   UNL     1      -0.511   4.692 -11.277  0.00  0.00    -0.292 OA
ATOM     19  C   UNL     1       1.477   5.731  -7.633  0.00  0.00    +0.014 A 
ATOM     20  C   UNL     1       0.819   6.488  -5.198  0.00  0.00    +0.040 A 
ENDROOT
BRANCH   1  22
ATOM     21  C   UNL     1      -2.383   6.868  -5.232  0.00  0.00    +0.253 C 
ATOM     22  O   UNL     1      -1.484   6.278  -5.806  0.00  0.00    -0.468 OA
ENDBRANCH   1  22
TORSDOF 1
ENDMDL
MODEL 8
REMARK VINA RESULT:      -7.0      2.956      3.994
REMARK  Name = 
REMARK  1 active torsions:
REMARK  status: ('A' for Active; 'I' for Inactive)
REMARK    1  A    between atoms: O_2  and  C_3
REMARK                            x       y       z     vdW  Elec       q    Type
REMARK                         _______ _______ _______ _____ _____    ______ ____
ROOT
ATOM      1  C   UNL     1      -0.269   5.954  -1.554  0.00  0.00    +0.172 A 
ATOM      2  C   UNL     1       1.095   6.218  -1.461  0.00  0.00    +0.168 A 
ATOM      3  O   UNL     1       2.086   6.164  -0.523  0.00  0.00    -0.469 OA
ATOM      4  C   UNL     1       3.253   7.011  -1.090  0.00  0.00    +0.226 C 
ATOM      5  C   UNL     1       3.053   6.566  -2.646  0.00  0.00    +0.068 C 
ATOM      6  C   UNL     1       4.175   5.480  -2.951  0.00  0.00    +0.023 C 
ATOM      7  C   UNL     1       3.671   4.950  -4.488  0.00  0.00    +0.062 C 
ATOM      8  N   UNL     1       4.555   6.068  -5.144  0.00  0.00    -0.272 NA
ATOM      9  C   UNL     1       4.350   7.307  -4.622  0.00  0.00    +0.073 C 
ATOM     10  C   UNL     1       4.483   5.891  -6.557  0.00  0.00    +0.090 C 
ATOM     11  C   UNL     1       2.320   5.796  -4.781  0.00  0.00    +0.042 C 
ATOM     12  C   UNL     1       1.307   5.392  -3.753  0.00  0.00    -0.022 A 
ATOM     13  C   UNL     1      -0.058   5.591  -3.940  0.00  0.00    -0.001 A 
ATOM     14  C   UNL     1       3.398   4.274  -2.178  0.00  0.00    +0.010 C 
ATOM     15  C   UNL     1       4.039   4.491  -0.807  0.00  0.00    +0.068 C 
ATOM     16  C   UNL     1       3.505   7.682  -3.505  0.00  0.00    +0.025 C 
ATOM     17  C   UNL     1       4.364   5.906  -0.655  0.00  0.00    +0.191 C 
ATOM     18  O   UNL     1       4.712   6.285   0.465  0.00  0.00    -0.292 OA
ATOM     19  C   UNL     1       1.764   6.080  -2.630  0.00  0.00    +0.014 A 
ATOM     20  C   UNL     1      -0.853   5.860  -2.821  0.00  0.00    +0.040 A 
ENDROOT
BRANCH   1  22
ATOM     21  C   UNL     1      -1.630   6.488   0.422  0.00  0.00    +0.253 C 
ATOM     22  O   UNL     1      -0.984   5.909  -0.434  0.00  0.00    -0.468 OA
ENDBRANCH   1  22
TORSDOF 1
ENDMDL
MODEL 9
REMARK VINA RESULT:      -6.9      3.953      6.286
REMARK  Name = 
REMARK  1 active torsions:
REMARK  status: ('A' for Active; 'I' for Inactive)
REMARK    1  A    between atoms: O_2  and  C_3
REMARK                            x       y       z     vdW  Elec       q    Type
REMARK                         _______ _______ _______ _____ _____    ______ ____
ROOT
ATOM      1  C   UNL     1       1.077   6.546 -12.607  0.00  0.00    +0.172 A 
ATOM      2  C   UNL     1       2.197   6.054 -11.940  0.00  0.00    +0.168 A 
ATOM      3  O   UNL     1       3.544   5.955 -12.139  0.00  0.00    -0.469 OA
ATOM      4  C   UNL     1       4.048   4.911 -11.111  0.00  0.00    +0.226 C 
ATOM      5  C   UNL     1       3.047   5.355  -9.903  0.00  0.00    +0.068 C 
ATOM      6  C   UNL     1       3.916   6.228  -8.897  0.00  0.00    +0.023 C 
ATOM      7  C   UNL     1       2.691   6.810  -7.867  0.00  0.00    +0.062 C 
ATOM      8  N   UNL     1       2.881   5.544  -6.957  0.00  0.00    -0.272 NA
ATOM      9  C   UNL     1       2.857   4.369  -7.639  0.00  0.00    +0.073 C 
ATOM     10  C   UNL     1       2.030   5.707  -5.824  0.00  0.00    +0.090 C 
ATOM     11  C   UNL     1       1.324   6.201  -8.488  0.00  0.00    +0.042 C 
ATOM     12  C   UNL     1       1.152   6.791  -9.855  0.00  0.00    -0.022 A 
ATOM     13  C   UNL     1      -0.083   6.825 -10.498  0.00  0.00    -0.001 A 
ATOM     14  C   UNL     1       3.892   7.563  -9.832  0.00  0.00    +0.010 C 
ATOM     15  C   UNL     1       5.171   7.264 -10.612  0.00  0.00    +0.068 C 
ATOM     16  C   UNL     1       2.770   4.163  -9.073  0.00  0.00    +0.025 C 
ATOM     17  C   UNL     1       5.338   5.817 -10.713  0.00  0.00    +0.191 C 
ATOM     18  O   UNL     1       6.216   5.403 -11.473  0.00  0.00    -0.292 OA
ATOM     19  C   UNL     1       2.079   6.055 -10.592  0.00  0.00    +0.014 A 
ATOM     20  C   UNL     1      -0.113   6.716 -11.892  0.00  0.00    +0.040 A 
ENDROOT
BRANCH   1  22
ATOM     21  C   UNL     1       0.714   6.517 -15.037  0.00  0.00    +0.253 C 
ATOM     22  O   UNL     1       1.153   6.733 -13.921  0.00  0.00    -0.468 OA
ENDBRANCH   1  22
TORSDOF 1
ENDMDL
