MODEL 1
REMARK VINA RESULT:      -7.7      0.000      0.000
REMARK  Name = 
REMARK  4 active torsions:
REMARK  status: ('A' for Active; 'I' for Inactive)
REMARK    1  A    between atoms: O_2  and  N_3
REMARK    2  A    between atoms: C_16  and  C_17
REMARK    3  A    between atoms: N_21  and  C_22
REMARK    4  A    between atoms: C_26  and  C_27
REMARK                            x       y       z     vdW  Elec       q    Type
REMARK                         _______ _______ _______ _____ _____    ______ ____
ROOT
ATOM      1  N   UNL     1       2.546   5.263  -4.520  0.00  0.00    -0.090 NA
ATOM      2  C   UNL     1       1.900   5.444  -5.624  0.00  0.00    +0.097 C 
ATOM      3  C   UNL     1       1.257   6.905  -5.800  0.00  0.00    +0.080 C 
ATOM      4  C   UNL     1       2.243   7.299  -7.044  0.00  0.00    +0.100 C 
ATOM      5  N   UNL     1       2.151   6.101  -7.845  0.00  0.00    -0.286 N 
ATOM      6  C   UNL     1       3.044   5.975  -8.957  0.00  0.00    +0.161 A 
ATOM      7  C   UNL     1       4.400   5.924  -8.647  0.00  0.00    +0.172 A 
ATOM      8  F   UNL     1       4.759   4.995  -7.713  0.00  0.00    -0.201 F 
ATOM      9  C   UNL     1       5.317   6.406  -9.578  0.00  0.00    +0.039 A 
ATOM     10  C   UNL     1       4.808   6.699 -10.842  0.00  0.00    +0.076 A 
ATOM     11  C   UNL     1       5.668   6.972 -11.901  0.00  0.00    +0.206 A 
ATOM     12  C   UNL     1       5.622   6.276 -13.106  0.00  0.00    +0.136 A 
ATOM     13  C   UNL     1       4.411   5.690 -13.360  0.00  0.00    +0.087 A 
ATOM     14  N   UNL     1       3.384   5.722 -12.471  0.00  0.00    -0.313 N 
ATOM     15  O   UNL     1       6.648   7.710 -11.625  0.00  0.00    -0.286 OA
ATOM     16  C   UNL     1       3.563   6.204 -11.218  0.00  0.00    +0.148 A 
ATOM     17  N   UNL     1       2.642   6.084 -10.241  0.00  0.00    -0.211 NA
ATOM     18  C   UNL     1       2.047   4.931  -6.970  0.00  0.00    +0.137 C 
ENDROOT
BRANCH  14  19
ATOM     19  C   UNL     1       2.262   4.866 -12.742  0.00  0.00    +0.087 C 
ATOM     20  C   UNL     1       0.929   5.394 -13.092  0.00  0.00    +0.025 C 
ATOM     21  C   UNL     1       1.769   4.623 -14.113  0.00  0.00    +0.025 C 
ENDBRANCH  14  19
BRANCH  12  22
ATOM     22  C   UNL     1       6.872   5.951 -13.808  0.00  0.00    +0.392 C 
ATOM     23  O   UNL     1       7.525   4.790 -13.376  0.00  0.00    -0.240 OA
ATOM     24  O   UNL     1       6.803   6.029 -15.077  0.00  0.00    -0.240 OA
ENDBRANCH  12  22
BRANCH   1  26
ATOM     25  C   UNL     1       4.827   4.527  -4.308  0.00  0.00    +0.288 C 
ATOM     26  O   UNL     1       3.477   4.275  -4.524  0.00  0.00    -0.374 OA
ENDBRANCH   1  26
BRANCH   3  27
ATOM     27  C   UNL     1       0.068   6.364  -6.791  0.00  0.00    +0.117 C 
ATOM     28  N   UNL     1      -0.988   6.236  -5.784  0.00  0.00    -0.131 NA
ENDBRANCH   3  27
TORSDOF 4
ENDMDL
MODEL 2
REMARK VINA RESULT:      -7.5      3.580      9.154
REMARK  Name = 
REMARK  4 active torsions:
REMARK  status: ('A' for Active; 'I' for Inactive)
REMARK    1  A    between atoms: O_2  and  N_3
REMARK    2  A    between atoms: C_16  and  C_17
REMARK    3  A    between atoms: N_21  and  C_22
REMARK    4  A    between atoms: C_26  and  C_27
REMARK                            x       y       z     vdW  Elec       q    Type
REMARK                         _______ _______ _______ _____ _____    ______ ____
ROOT
ATOM      1  N   UNL     1       1.925   5.196 -10.860  0.00  0.00    -0.090 NA
ATOM      2  C   UNL     1       2.619   5.403  -9.792  0.00  0.00    +0.097 C 
ATOM      3  C   UNL     1       3.262   6.872  -9.677  0.00  0.00    +0.080 C 
ATOM      4  C   UNL     1       2.332   7.287  -8.398  0.00  0.00    +0.100 C 
ATOM      5  N   UNL     1       2.467   6.107  -7.576  0.00  0.00    -0.286 N 
ATOM      6  C   UNL     1       1.627   6.001  -6.422  0.00  0.00    +0.161 A 
ATOM      7  C   UNL     1       0.258   5.937  -6.668  0.00  0.00    +0.172 A 
ATOM      8  F   UNL     1      -0.138   4.987  -7.565  0.00  0.00    -0.201 F 
ATOM      9  C   UNL     1      -0.617   6.435  -5.707  0.00  0.00    +0.039 A 
ATOM     10  C   UNL     1      -0.052   6.758  -4.474  0.00  0.00    +0.076 A 
ATOM     11  C   UNL     1      -0.865   7.050  -3.382  0.00  0.00    +0.206 A 
ATOM     12  C   UNL     1      -0.760   6.381  -2.167  0.00  0.00    +0.136 A 
ATOM     13  C   UNL     1       0.465   5.805  -1.955  0.00  0.00    +0.087 A 
ATOM     14  N   UNL     1       1.450   5.823  -2.891  0.00  0.00    -0.313 N 
ATOM     15  O   UNL     1      -1.861   7.777  -3.629  0.00  0.00    -0.286 OA
ATOM     16  C   UNL     1       1.211   6.277  -4.145  0.00  0.00    +0.148 A 
ATOM     17  N   UNL     1       2.087   6.140  -5.160  0.00  0.00    -0.211 NA
ATOM     18  C   UNL     1       2.537   4.919  -8.430  0.00  0.00    +0.137 C 
ENDROOT
BRANCH  14  19
ATOM     19  C   UNL     1       2.588   4.978  -2.654  0.00  0.00    +0.087 C 
ATOM     20  C   UNL     1       3.907   5.517  -2.267  0.00  0.00    +0.025 C 
ATOM     21  C   UNL     1       3.076   4.678  -1.293  0.00  0.00    +0.025 C 
ENDBRANCH  14  19
BRANCH  12  22
ATOM     22  C   UNL     1      -1.974   6.065  -1.400  0.00  0.00    +0.392 C 
ATOM     23  O   UNL     1      -2.696   4.949  -1.843  0.00  0.00    -0.240 OA
ATOM     24  O   UNL     1      -1.823   6.078  -0.137  0.00  0.00    -0.240 OA
ENDBRANCH  12  22
BRANCH   1  26
ATOM     25  C   UNL     1      -0.325   4.398 -11.166  0.00  0.00    +0.288 C 
ATOM     26  O   UNL     1       1.001   4.203 -10.792  0.00  0.00    -0.374 OA
ENDBRANCH   1  26
BRANCH   3  27
ATOM     27  C   UNL     1       4.498   6.357  -8.730  0.00  0.00    +0.117 C 
ATOM     28  N   UNL     1       5.490   6.158  -9.790  0.00  0.00    -0.131 NA
ENDBRANCH   3  27
TORSDOF 4
ENDMDL
MODEL 3
REMARK VINA RESULT:      -7.5      2.881      8.402
REMARK  Name = 
REMARK  4 active torsions:
REMARK  status: ('A' for Active; 'I' for Inactive)
REMARK    1  A    between atoms: O_2  and  N_3
REMARK    2  A    between atoms: C_16  and  C_17
REMARK    3  A    between atoms: N_21  and  C_22
REMARK    4  A    between atoms: C_26  and  C_27
REMARK                            x       y       z     vdW  Elec       q    Type
REMARK                         _______ _______ _______ _____ _____    ______ ____
ROOT
ATOM      1  N   UNL     1       3.524   6.301 -10.857  0.00  0.00    -0.090 NA
ATOM      2  C   UNL     1       2.406   6.095 -10.244  0.00  0.00    +0.097 C 
ATOM      3  C   UNL     1       1.886   4.575 -10.276  0.00  0.00    +0.080 C 
ATOM      4  C   UNL     1       2.084   4.368  -8.667  0.00  0.00    +0.100 C 
ATOM      5  N   UNL     1       1.484   5.583  -8.167  0.00  0.00    -0.286 N 
ATOM      6  C   UNL     1       1.632   5.873  -6.773  0.00  0.00    +0.161 A 
ATOM      7  C   UNL     1       2.936   6.077  -6.328  0.00  0.00    +0.172 A 
ATOM      8  F   UNL     1       3.663   6.997  -7.028  0.00  0.00    -0.201 F 
ATOM      9  C   UNL     1       3.250   5.758  -5.010  0.00  0.00    +0.039 A 
ATOM     10  C   UNL     1       2.170   5.466  -4.178  0.00  0.00    +0.076 A 
ATOM     11  C   UNL     1       2.351   5.354  -2.803  0.00  0.00    +0.206 A 
ATOM     12  C   UNL     1       1.614   6.096  -1.884  0.00  0.00    +0.136 A 
ATOM     13  C   UNL     1       0.412   6.540  -2.368  0.00  0.00    +0.087 A 
ATOM     14  N   UNL     1       0.024   6.337  -3.654  0.00  0.00    -0.313 N 
ATOM     15  O   UNL     1       3.382   4.731  -2.442  0.00  0.00    -0.286 OA
ATOM     16  C   UNL     1       0.882   5.821  -4.566  0.00  0.00    +0.148 A 
ATOM     17  N   UNL     1       0.617   5.778  -5.888  0.00  0.00    -0.211 NA
ATOM     18  C   UNL     1       1.771   6.687  -9.086  0.00  0.00    +0.137 C 
ENDROOT
BRANCH  14  19
ATOM     19  C   UNL     1      -1.133   7.059  -4.106  0.00  0.00    +0.087 C 
ATOM     20  C   UNL     1      -2.484   6.464  -4.115  0.00  0.00    +0.025 C 
ATOM     21  C   UNL     1      -2.131   7.614  -3.169  0.00  0.00    +0.025 C 
ENDBRANCH  14  19
BRANCH  12  22
ATOM     22  C   UNL     1       2.266   6.608  -0.670  0.00  0.00    +0.392 C 
ATOM     23  O   UNL     1       2.969   7.810  -0.821  0.00  0.00    -0.240 OA
ATOM     24  O   UNL     1       1.532   6.600   0.370  0.00  0.00    -0.240 OA
ENDBRANCH  12  22
BRANCH   1  26
ATOM     25  C   UNL     1       5.532   7.627 -10.894  0.00  0.00    +0.288 C 
ATOM     26  O   UNL     1       4.227   7.396 -10.471  0.00  0.00    -0.374 OA
ENDBRANCH   1  26
BRANCH   3  27
ATOM     27  C   UNL     1       0.313   5.013 -10.122  0.00  0.00    +0.117 C 
ATOM     28  N   UNL     1      -0.124   4.663 -11.475  0.00  0.00    -0.131 NA
ENDBRANCH   3  27
TORSDOF 4
ENDMDL
MODEL 4
REMARK VINA RESULT:      -7.4      2.725      4.203
REMARK  Name = 
REMARK  4 active torsions:
REMARK  status: ('A' for Active; 'I' for Inactive)
REMARK    1  A    between atoms: O_2  and  N_3
REMARK    2  A    between atoms: C_16  and  C_17
REMARK    3  A    between atoms: N_21  and  C_22
REMARK    4  A    between atoms: C_26  and  C_27
REMARK                            x       y       z     vdW  Elec       q    Type
REMARK                         _______ _______ _______ _____ _____    ______ ____
ROOT
ATOM      1  N   UNL     1       0.335   6.355  -4.057  0.00  0.00    -0.090 NA
ATOM      2  C   UNL     1       1.473   6.184  -4.644  0.00  0.00    +0.097 C 
ATOM      3  C   UNL     1       2.062   4.692  -4.555  0.00  0.00    +0.080 C 
ATOM      4  C   UNL     1       1.904   4.426  -6.160  0.00  0.00    +0.100 C 
ATOM      5  N   UNL     1       2.455   5.652  -6.689  0.00  0.00    -0.286 N 
ATOM      6  C   UNL     1       2.318   5.891  -8.093  0.00  0.00    +0.161 A 
ATOM      7  C   UNL     1       1.015   6.019  -8.566  0.00  0.00    +0.172 A 
ATOM      8  F   UNL     1       0.233   6.924  -7.908  0.00  0.00    -0.201 F 
ATOM      9  C   UNL     1       0.740   5.645  -9.879  0.00  0.00    +0.039 A 
ATOM     10  C   UNL     1       1.848   5.378 -10.683  0.00  0.00    +0.076 A 
ATOM     11  C   UNL     1       1.697   5.216 -12.057  0.00  0.00    +0.206 A 
ATOM     12  C   UNL     1       2.414   5.963 -12.986  0.00  0.00    +0.136 A 
ATOM     13  C   UNL     1       3.586   6.478 -12.496  0.00  0.00    +0.087 A 
ATOM     14  N   UNL     1       3.959   6.333 -11.198  0.00  0.00    -0.313 N 
ATOM     15  O   UNL     1       0.703   4.533 -12.414  0.00  0.00    -0.286 OA
ATOM     16  C   UNL     1       3.110   5.806 -10.284  0.00  0.00    +0.148 A 
ATOM     17  N   UNL     1       3.352   5.816  -8.958  0.00  0.00    -0.211 NA
ATOM     18  C   UNL     1       2.100   6.769  -5.810  0.00  0.00    +0.137 C 
ENDROOT
BRANCH  14  19
ATOM     19  C   UNL     1       5.073   7.123 -10.750  0.00  0.00    +0.087 C 
ATOM     20  C   UNL     1       6.430   6.563 -10.596  0.00  0.00    +0.025 C 
ATOM     21  C   UNL     1       6.120   7.604 -11.674  0.00  0.00    +0.025 C 
ENDBRANCH  14  19
BRANCH  12  22
ATOM     22  C   UNL     1       1.762   6.405 -14.226  0.00  0.00    +0.392 C 
ATOM     23  O   UNL     1       0.919   7.517 -14.104  0.00  0.00    -0.240 OA
ATOM     24  O   UNL     1       2.535   6.489 -15.233  0.00  0.00    -0.240 OA
ENDBRANCH  12  22
BRANCH   1  26
ATOM     25  C   UNL     1      -1.742   7.260  -4.869  0.00  0.00    +0.288 C 
ATOM     26  O   UNL     1      -0.411   7.403  -4.489  0.00  0.00    -0.374 OA
ENDBRANCH   1  26
BRANCH   3  27
ATOM     27  C   UNL     1       3.615   5.198  -4.697  0.00  0.00    +0.117 C 
ATOM     28  N   UNL     1       4.001   5.053  -3.292  0.00  0.00    -0.131 NA
ENDBRANCH   3  27
TORSDOF 4
ENDMDL
MODEL 5
REMARK VINA RESULT:      -6.9      1.150      1.265
REMARK  Name = 
REMARK  4 active torsions:
REMARK  status: ('A' for Active; 'I' for Inactive)
REMARK    1  A    between atoms: O_2  and  N_3
REMARK    2  A    between atoms: C_16  and  C_17
REMARK    3  A    between atoms: N_21  and  C_22
REMARK    4  A    between atoms: C_26  and  C_27
REMARK                            x       y       z     vdW  Elec       q    Type
REMARK                         _______ _______ _______ _____ _____    ______ ____
ROOT
ATOM      1  N   UNL     1       1.994   5.458  -3.551  0.00  0.00    -0.090 NA
ATOM      2  C   UNL     1       1.287   5.571  -4.626  0.00  0.00    +0.097 C 
ATOM      3  C   UNL     1       0.582   7.001  -4.825  0.00  0.00    +0.080 C 
ATOM      4  C   UNL     1       1.489   7.378  -6.133  0.00  0.00    +0.100 C 
ATOM      5  N   UNL     1       1.402   6.146  -6.881  0.00  0.00    -0.286 N 
ATOM      6  C   UNL     1       2.242   6.006  -8.032  0.00  0.00    +0.161 A 
ATOM      7  C   UNL     1       3.613   6.015  -7.791  0.00  0.00    +0.172 A 
ATOM      8  F   UNL     1       4.053   5.138  -6.841  0.00  0.00    -0.201 F 
ATOM      9  C   UNL     1       4.463   6.491  -8.785  0.00  0.00    +0.039 A 
ATOM     10  C   UNL     1       3.881   6.715 -10.032  0.00  0.00    +0.076 A 
ATOM     11  C   UNL     1       4.676   6.974 -11.144  0.00  0.00    +0.206 A 
ATOM     12  C   UNL     1       4.596   6.229 -12.316  0.00  0.00    +0.136 A 
ATOM     13  C   UNL     1       3.396   5.590 -12.485  0.00  0.00    +0.087 A 
ATOM     14  N   UNL     1       2.414   5.623 -11.546  0.00  0.00    -0.313 N 
ATOM     15  O   UNL     1       5.641   7.757 -10.948  0.00  0.00    -0.286 OA
ATOM     16  C   UNL     1       2.638   6.161 -10.324  0.00  0.00    +0.148 A 
ATOM     17  N   UNL     1       1.772   6.048  -9.297  0.00  0.00    -0.211 NA
ATOM     18  C   UNL     1       1.386   5.009  -5.957  0.00  0.00    +0.137 C 
ENDROOT
BRANCH  14  19
ATOM     19  C   UNL     1       1.313   4.717 -11.725  0.00  0.00    +0.087 C 
ATOM     20  C   UNL     1      -0.085   5.181 -11.825  0.00  0.00    +0.025 C 
ATOM     21  C   UNL     1       0.630   4.555 -13.025  0.00  0.00    +0.025 C 
ENDBRANCH  14  19
BRANCH  12  22
ATOM     22  C   UNL     1       5.820   5.920 -13.070  0.00  0.00    +0.392 C 
ATOM     23  O   UNL     1       6.610   4.890 -12.544  0.00  0.00    -0.240 OA
ATOM     24  O   UNL     1       5.657   5.816 -14.327  0.00  0.00    -0.240 OA
ENDBRANCH  12  22
BRANCH   1  26
ATOM     25  C   UNL     1       4.314   4.819  -3.565  0.00  0.00    +0.288 C 
ATOM     26  O   UNL     1       2.959   4.504  -3.565  0.00  0.00    -0.374 OA
ENDBRANCH   1  26
BRANCH   3  27
ATOM     27  C   UNL     1      -0.634   6.378  -5.732  0.00  0.00    +0.117 C 
ATOM     28  N   UNL     1      -1.733   6.648  -4.802  0.00  0.00    -0.131 NA
ENDBRANCH   3  27
TORSDOF 4
ENDMDL
MODEL 6
REMARK VINA RESULT:      -6.8      3.864      5.954
REMARK  Name = 
REMARK  4 active torsions:
REMARK  status: ('A' for Active; 'I' for Inactive)
REMARK    1  A    between atoms: O_2  and  N_3
REMARK    2  A    between atoms: C_16  and  C_17
REMARK    3  A    between atoms: N_21  and  C_22
REMARK    4  A    between atoms: C_26  and  C_27
REMARK                            x       y       z     vdW  Elec       q    Type
REMARK                         _______ _______ _______ _____ _____    ______ ____
ROOT
ATOM      1  N   UNL     1       4.567   5.389  -0.190  0.00  0.00    -0.090 NA
ATOM      2  C   UNL     1       3.428   5.830  -0.609  0.00  0.00    +0.097 C 
ATOM      3  C   UNL     1       3.249   7.425  -0.533  0.00  0.00    +0.080 C 
ATOM      4  C   UNL     1       3.205   7.598  -2.158  0.00  0.00    +0.100 C 
ATOM      5  N   UNL     1       2.288   6.540  -2.513  0.00  0.00    -0.286 N 
ATOM      6  C   UNL     1       2.130   6.236  -3.903  0.00  0.00    +0.161 A 
ATOM      7  C   UNL     1       3.266   5.766  -4.557  0.00  0.00    +0.172 A 
ATOM      8  F   UNL     1       3.896   4.709  -3.965  0.00  0.00    -0.201 F 
ATOM      9  C   UNL     1       3.407   6.022  -5.918  0.00  0.00    +0.039 A 
ATOM     10  C   UNL     1       2.285   6.541  -6.563  0.00  0.00    +0.076 A 
ATOM     11  C   UNL     1       2.245   6.623  -7.951  0.00  0.00    +0.206 A 
ATOM     12  C   UNL     1       1.223   6.059  -8.709  0.00  0.00    +0.136 A 
ATOM     13  C   UNL     1       0.057   5.874  -8.015  0.00  0.00    +0.087 A 
ATOM     14  N   UNL     1      -0.052   6.144  -6.688  0.00  0.00    -0.313 N 
ATOM     15  O   UNL     1       3.306   7.019  -8.500  0.00  0.00    -0.286 OA
ATOM     16  C   UNL     1       1.038   6.461  -5.950  0.00  0.00    +0.148 A 
ATOM     17  N   UNL     1       1.020   6.549  -4.605  0.00  0.00    -0.211 NA
ATOM     18  C   UNL     1       2.493   5.393  -1.625  0.00  0.00    +0.137 C 
ENDROOT
BRANCH  14  19
ATOM     19  C   UNL     1      -1.238   5.677  -6.025  0.00  0.00    +0.087 C 
ATOM     20  C   UNL     1      -2.241   6.598  -5.454  0.00  0.00    +0.025 C 
ATOM     21  C   UNL     1      -2.569   5.722  -6.666  0.00  0.00    +0.025 C 
ENDBRANCH  14  19
BRANCH  12  22
ATOM     22  C   UNL     1       1.535   5.431 -10.001  0.00  0.00    +0.392 C 
ATOM     23  O   UNL     1       0.856   4.237 -10.274  0.00  0.00    -0.240 OA
ATOM     24  O   UNL     1       1.535   6.229 -10.993  0.00  0.00    -0.240 OA
ENDBRANCH  12  22
BRANCH   1  26
ATOM     25  C   UNL     1       4.092   3.078  -0.663  0.00  0.00    +0.288 C 
ATOM     26  O   UNL     1       4.949   4.174  -0.658  0.00  0.00    -0.374 OA
ENDBRANCH   1  26
BRANCH   3  27
ATOM     27  C   UNL     1       1.617   7.329  -0.405  0.00  0.00    +0.117 C 
ATOM     28  N   UNL     1       1.529   7.383   1.056  0.00  0.00    -0.131 NA
ENDBRANCH   3  27
TORSDOF 4
ENDMDL
MODEL 7
REMARK VINA RESULT:      -6.8      2.629      8.287
REMARK  Name = 
REMARK  4 active torsions:
REMARK  status: ('A' for Active; 'I' for Inactive)
REMARK    1  A    between atoms: O_2  and  N_3
REMARK    2  A    between atoms: C_16  and  C_17
REMARK    3  A    between atoms: N_21  and  C_22
REMARK    4  A    between atoms: C_26  and  C_27
REMARK                            x       y       z     vdW  Elec       q    Type
REMARK                         _______ _______ _______ _____ _____    ______ ____
ROOT
ATOM      1  N   UNL     1       3.308   5.667 -12.447  0.00  0.00    -0.090 NA
ATOM      2  C   UNL     1       3.967   5.728 -11.338  0.00  0.00    +0.097 C 
ATOM      3  C   UNL     1       4.676   7.140 -11.048  0.00  0.00    +0.080 C 
ATOM      4  C   UNL     1       3.716   7.474  -9.768  0.00  0.00    +0.100 C 
ATOM      5  N   UNL     1       3.757   6.212  -9.068  0.00  0.00    -0.286 N 
ATOM      6  C   UNL     1       2.865   6.035  -7.963  0.00  0.00    +0.161 A 
ATOM      7  C   UNL     1       1.507   6.070  -8.264  0.00  0.00    +0.172 A 
ATOM      8  F   UNL     1       1.101   5.238  -9.268  0.00  0.00    -0.201 F 
ATOM      9  C   UNL     1       0.618   6.515  -7.289  0.00  0.00    +0.039 A 
ATOM     10  C   UNL     1       1.145   6.681  -6.010  0.00  0.00    +0.076 A 
ATOM     11  C   UNL     1       0.304   6.904  -4.924  0.00  0.00    +0.206 A 
ATOM     12  C   UNL     1       0.324   6.111  -3.781  0.00  0.00    +0.136 A 
ATOM     13  C   UNL     1       1.509   5.452  -3.586  0.00  0.00    +0.087 A 
ATOM     14  N   UNL     1       2.532   5.511  -4.478  0.00  0.00    -0.313 N 
ATOM     15  O   UNL     1      -0.644   7.705  -5.131  0.00  0.00    -0.286 OA
ATOM     16  C   UNL     1       2.368   6.101  -5.686  0.00  0.00    +0.148 A 
ATOM     17  N   UNL     1       3.278   6.020  -6.677  0.00  0.00    -0.211 NA
ATOM     18  C   UNL     1       3.804   5.114 -10.037  0.00  0.00    +0.137 C 
ENDROOT
BRANCH  14  19
ATOM     19  C   UNL     1       3.615   4.586  -4.288  0.00  0.00    +0.087 C 
ATOM     20  C   UNL     1       5.025   5.020  -4.228  0.00  0.00    +0.025 C 
ATOM     21  C   UNL     1       4.318   4.452  -2.996  0.00  0.00    +0.025 C 
ENDBRANCH  14  19
BRANCH  12  22
ATOM     22  C   UNL     1      -0.936   5.785  -3.097  0.00  0.00    +0.392 C 
ATOM     23  O   UNL     1      -1.990   5.384  -3.927  0.00  0.00    -0.240 OA
ATOM     24  O   UNL     1      -0.807   5.036  -2.076  0.00  0.00    -0.240 OA
ENDBRANCH  12  22
BRANCH   1  26
ATOM     25  C   UNL     1       0.989   5.055 -12.641  0.00  0.00    +0.288 C 
ATOM     26  O   UNL     1       2.334   4.724 -12.515  0.00  0.00    -0.374 OA
ENDBRANCH   1  26
BRANCH   3  27
ATOM     27  C   UNL     1       5.845   6.467 -10.115  0.00  0.00    +0.117 C 
ATOM     28  N   UNL     1       6.991   7.177 -10.688  0.00  0.00    -0.131 NA
ENDBRANCH   3  27
TORSDOF 4
ENDMDL
MODEL 8
REMARK VINA RESULT:      -6.5      8.057     11.359
REMARK  Name = 
REMARK  4 active torsions:
REMARK  status: ('A' for Active; 'I' for Inactive)
REMARK    1  A    between atoms: O_2  and  N_3
REMARK    2  A    between atoms: C_16  and  C_17
REMARK    3  A    between atoms: N_21  and  C_22
REMARK    4  A    between atoms: C_26  and  C_27
REMARK                            x       y       z     vdW  Elec       q    Type
REMARK                         _______ _______ _______ _____ _____    ______ ____
ROOT
ATOM      1  N   UNL     1       4.396  11.140   3.008  0.00  0.00    -0.090 NA
ATOM      2  C   UNL     1       4.655  10.040   2.383  0.00  0.00    +0.097 C 
ATOM      3  C   UNL     1       4.904   8.766   3.329  0.00  0.00    +0.080 C 
ATOM      4  C   UNL     1       3.550   8.001   2.825  0.00  0.00    +0.100 C 
ATOM      5  N   UNL     1       3.661   8.178   1.396  0.00  0.00    -0.286 N 
ATOM      6  C   UNL     1       2.539   7.802   0.591  0.00  0.00    +0.161 A 
ATOM      7  C   UNL     1       1.365   8.519   0.808  0.00  0.00    +0.172 A 
ATOM      8  F   UNL     1       1.483   9.878   0.754  0.00  0.00    -0.201 F 
ATOM      9  C   UNL     1       0.145   7.889   0.577  0.00  0.00    +0.039 A 
ATOM     10  C   UNL     1       0.207   6.654  -0.068  0.00  0.00    +0.076 A 
ATOM     11  C   UNL     1      -0.953   6.049  -0.542  0.00  0.00    +0.206 A 
ATOM     12  C   UNL     1      -1.103   5.645  -1.866  0.00  0.00    +0.136 A 
ATOM     13  C   UNL     1       0.083   5.422  -2.514  0.00  0.00    +0.087 A 
ATOM     14  N   UNL     1       1.288   5.658  -1.932  0.00  0.00    -0.313 N 
ATOM     15  O   UNL     1      -1.947   6.110   0.225  0.00  0.00    -0.286 OA
ATOM     16  C   UNL     1       1.371   6.278  -0.731  0.00  0.00    +0.148 A 
ATOM     17  N   UNL     1       2.533   6.708  -0.200  0.00  0.00    -0.211 NA
ATOM     18  C   UNL     1       4.246   9.490   1.108  0.00  0.00    +0.137 C 
ENDROOT
BRANCH  14  19
ATOM     19  C   UNL     1       2.441   5.627  -2.788  0.00  0.00    +0.087 C 
ATOM     20  C   UNL     1       2.346   5.340  -4.234  0.00  0.00    +0.025 C 
ATOM     21  C   UNL     1       2.756   6.724  -3.726  0.00  0.00    +0.025 C 
ENDBRANCH  14  19
BRANCH  12  22
ATOM     22  C   UNL     1      -2.403   5.801  -2.533  0.00  0.00    +0.392 C 
ATOM     23  O   UNL     1      -2.449   6.760  -3.553  0.00  0.00    -0.240 OA
ATOM     24  O   UNL     1      -2.964   4.708  -2.866  0.00  0.00    -0.240 OA
ENDBRANCH  12  22
BRANCH   1  26
ATOM     25  C   UNL     1       4.365  13.212   1.785  0.00  0.00    +0.288 C 
ATOM     26  O   UNL     1       3.729  12.089   2.304  0.00  0.00    -0.374 OA
ENDBRANCH   1  26
BRANCH   3  27
ATOM     27  C   UNL     1       5.854   8.015   2.223  0.00  0.00    +0.117 C 
ATOM     28  N   UNL     1       7.107   8.051   2.980  0.00  0.00    -0.131 NA
ENDBRANCH   3  27
TORSDOF 4
ENDMDL
MODEL 9
REMARK VINA RESULT:      -5.6      5.646      8.608
REMARK  Name = 
REMARK  4 active torsions:
REMARK  status: ('A' for Active; 'I' for Inactive)
REMARK    1  A    between atoms: O_2  and  N_3
REMARK    2  A    between atoms: C_16  and  C_17
REMARK    3  A    between atoms: N_21  and  C_22
REMARK    4  A    between atoms: C_26  and  C_27
REMARK                            x       y       z     vdW  Elec       q    Type
REMARK                         _______ _______ _______ _____ _____    ______ ____
ROOT
ATOM      1  N   UNL     1       5.251   8.275   2.735  0.00  0.00    -0.090 NA
ATOM      2  C   UNL     1       4.108   8.444   2.158  0.00  0.00    +0.097 C 
ATOM      3  C   UNL     1       3.836   9.932   1.617  0.00  0.00    +0.080 C 
ATOM      4  C   UNL     1       3.854   9.473   0.048  0.00  0.00    +0.100 C 
ATOM      5  N   UNL     1       3.016   8.298   0.105  0.00  0.00    -0.286 N 
ATOM      6  C   UNL     1       2.938   7.480  -1.067  0.00  0.00    +0.161 A 
ATOM      7  C   UNL     1       4.126   6.878  -1.471  0.00  0.00    +0.172 A 
ATOM      8  F   UNL     1       4.788   6.171  -0.508  0.00  0.00    -0.201 F 
ATOM      9  C   UNL     1       4.313   6.609  -2.824  0.00  0.00    +0.039 A 
ATOM     10  C   UNL     1       3.192   6.766  -3.639  0.00  0.00    +0.076 A 
ATOM     11  C   UNL     1       3.209   6.313  -4.954  0.00  0.00    +0.206 A 
ATOM     12  C   UNL     1       2.256   5.434  -5.460  0.00  0.00    +0.136 A 
ATOM     13  C   UNL     1       1.072   5.445  -4.770  0.00  0.00    +0.087 A 
ATOM     14  N   UNL     1       0.889   6.189  -3.648  0.00  0.00    -0.313 N 
ATOM     15  O   UNL     1       4.269   6.544  -5.591  0.00  0.00    -0.286 OA
ATOM     16  C   UNL     1       1.926   6.837  -3.066  0.00  0.00    +0.148 A 
ATOM     17  N   UNL     1       1.844   7.426  -1.856  0.00  0.00    -0.211 NA
ATOM     18  C   UNL     1       3.246   7.591   1.367  0.00  0.00    +0.137 C 
ENDROOT
BRANCH  14  19
ATOM     19  C   UNL     1      -0.297   5.926  -2.880  0.00  0.00    +0.087 C 
ATOM     20  C   UNL     1      -1.469   6.824  -2.902  0.00  0.00    +0.025 C 
ATOM     21  C   UNL     1      -1.538   5.415  -3.498  0.00  0.00    +0.025 C 
ENDBRANCH  14  19
BRANCH  12  22
ATOM     22  C   UNL     1       2.660   4.387  -6.409  0.00  0.00    +0.392 C 
ATOM     23  O   UNL     1       1.993   3.162  -6.280  0.00  0.00    -0.240 OA
ATOM     24  O   UNL     1       2.743   4.771  -7.619  0.00  0.00    -0.240 OA
ENDBRANCH  12  22
BRANCH   1  26
ATOM     25  C   UNL     1       6.614   6.571   3.749  0.00  0.00    +0.288 C 
ATOM     26  O   UNL     1       5.723   7.003   2.772  0.00  0.00    -0.374 OA
ENDBRANCH   1  26
BRANCH   3  27
ATOM     27  C   UNL     1       2.208   9.778   1.741  0.00  0.00    +0.117 C 
ATOM     28  N   UNL     1       2.018  10.620   2.925  0.00  0.00    -0.131 NA
ENDBRANCH   3  27
TORSDOF 4
ENDMDL
