MODEL 1
REMARK VINA RESULT:      -7.5      0.000      0.000
REMARK  Name = 
REMARK  4 active torsions:
REMARK  status: ('A' for Active; 'I' for Inactive)
REMARK    1  A    between atoms: C_2  and  O_3
REMARK    2  A    between atoms: O_3  and  C_4
REMARK    3  A    between atoms: C_4  and  C_5
REMARK    4  A    between atoms: C_5  and  N_6
REMARK                            x       y       z     vdW  Elec       q    Type
REMARK                         _______ _______ _______ _____ _____    ______ ____
ROOT
ATOM      1  N   UNL     1       3.978   6.407  -9.498  0.00  0.00    -0.297 N 
ATOM      2  C   UNL     1       4.038   5.693  -8.355  0.00  0.00    +0.201 A 
ATOM      3  N   UNL     1       3.132   5.778  -7.248  0.00  0.00    -0.278 N 
ATOM      4  C   UNL     1       2.488   4.523  -6.962  0.00  0.00    +0.111 C 
ATOM      5  C   UNL     1       1.885   4.454  -5.589  0.00  0.00    +0.094 C 
ATOM      6  N   UNL     1       0.782   5.352  -5.393  0.00  0.00    -0.270 NA
ATOM      7  C   UNL     1       0.130   5.049  -4.144  0.00  0.00    +0.090 C 
ATOM      8  C   UNL     1       1.161   6.745  -5.456  0.00  0.00    +0.074 C 
ATOM      9  C   UNL     1       2.624   6.929  -5.158  0.00  0.00    +0.039 C 
ATOM     10  C   UNL     1       3.367   6.979  -6.460  0.00  0.00    +0.095 C 
ATOM     11  N   UNL     1       5.344   5.381  -8.205  0.00  0.00    -0.214 NA
ATOM     12  C   UNL     1       6.011   5.649  -9.329  0.00  0.00    +0.100 A 
ATOM     13  C   UNL     1       7.377   5.693  -9.569  0.00  0.00    +0.021 A 
ATOM     14  C   UNL     1       7.784   6.212 -10.776  0.00  0.00    +0.002 A 
ATOM     15  C   UNL     1       7.012   7.202 -11.351  0.00  0.00    +0.002 A 
ATOM     16  C   UNL     1       5.662   7.301 -11.039  0.00  0.00    +0.019 A 
ATOM     17  C   UNL     1       5.149   6.355 -10.158  0.00  0.00    +0.080 A 
ENDROOT
BRANCH   1  18
ATOM     18  C   UNL     1       2.709   6.776 -10.105  0.00  0.00    +0.141 C 
BRANCH  18  19
ATOM     19  C   UNL     1       2.304   5.716 -11.091  0.00  0.00    +0.167 C 
BRANCH  19  20
ATOM     20  O   UNL     1       0.924   5.625 -11.180  0.00  0.00    -0.352 OA
BRANCH  20  22
ATOM     21  C   UNL     1      -0.564   7.484 -11.599  0.00  0.00    +0.035 C 
ATOM     22  C   UNL     1       0.276   6.718 -10.617  0.00  0.00    +0.142 C 
ENDBRANCH  20  22
ENDBRANCH  19  20
ENDBRANCH  18  19
ENDBRANCH   1  18
TORSDOF 4
ENDMDL
MODEL 2
REMARK VINA RESULT:      -7.3      3.200      8.008
REMARK  Name = 
REMARK  4 active torsions:
REMARK  status: ('A' for Active; 'I' for Inactive)
REMARK    1  A    between atoms: C_2  and  O_3
REMARK    2  A    between atoms: O_3  and  C_4
REMARK    3  A    between atoms: C_4  and  C_5
REMARK    4  A    between atoms: C_5  and  N_6
REMARK                            x       y       z     vdW  Elec       q    Type
REMARK                         _______ _______ _______ _____ _____    ______ ____
ROOT
ATOM      1  N   UNL     1       0.377   5.644  -3.428  0.00  0.00    -0.297 N 
ATOM      2  C   UNL     1       0.249   5.371  -4.744  0.00  0.00    +0.201 A 
ATOM      3  N   UNL     1       1.279   5.451  -5.736  0.00  0.00    -0.278 N 
ATOM      4  C   UNL     1       1.509   4.194  -6.398  0.00  0.00    +0.111 C 
ATOM      5  C   UNL     1       2.245   4.324  -7.701  0.00  0.00    +0.094 C 
ATOM      6  N   UNL     1       3.598   4.784  -7.560  0.00  0.00    -0.270 NA
ATOM      7  C   UNL     1       4.284   4.653  -8.821  0.00  0.00    +0.090 C 
ATOM      8  C   UNL     1       3.692   6.135  -7.056  0.00  0.00    +0.074 C 
ATOM      9  C   UNL     1       2.429   6.908  -7.319  0.00  0.00    +0.039 C 
ATOM     10  C   UNL     1       1.567   6.832  -6.093  0.00  0.00    +0.095 C 
ATOM     11  N   UNL     1      -1.052   5.605  -5.025  0.00  0.00    -0.214 NA
ATOM     12  C   UNL     1      -1.746   5.748  -3.894  0.00  0.00    +0.100 A 
ATOM     13  C   UNL     1      -3.041   6.203  -3.692  0.00  0.00    +0.021 A 
ATOM     14  C   UNL     1      -3.422   6.450  -2.394  0.00  0.00    +0.002 A 
ATOM     15  C   UNL     1      -2.457   6.882  -1.505  0.00  0.00    +0.002 A 
ATOM     16  C   UNL     1      -1.120   6.579  -1.729  0.00  0.00    +0.019 A 
ATOM     17  C   UNL     1      -0.827   5.819  -2.855  0.00  0.00    +0.080 A 
ENDROOT
BRANCH   1  18
ATOM     18  C   UNL     1       1.597   5.337  -2.699  0.00  0.00    +0.141 C 
BRANCH  18  19
ATOM     19  C   UNL     1       2.415   6.589  -2.553  0.00  0.00    +0.167 C 
BRANCH  19  20
ATOM     20  O   UNL     1       3.626   6.470  -3.218  0.00  0.00    -0.352 OA
BRANCH  20  22
ATOM     21  C   UNL     1       5.535   7.589  -4.192  0.00  0.00    +0.035 C 
ATOM     22  C   UNL     1       4.203   7.701  -3.508  0.00  0.00    +0.142 C 
ENDBRANCH  20  22
ENDBRANCH  19  20
ENDBRANCH  18  19
ENDBRANCH   1  18
TORSDOF 4
ENDMDL
MODEL 3
REMARK VINA RESULT:      -7.2      2.615      6.328
REMARK  Name = 
REMARK  4 active torsions:
REMARK  status: ('A' for Active; 'I' for Inactive)
REMARK    1  A    between atoms: C_2  and  O_3
REMARK    2  A    between atoms: O_3  and  C_4
REMARK    3  A    between atoms: C_4  and  C_5
REMARK    4  A    between atoms: C_5  and  N_6
REMARK                            x       y       z     vdW  Elec       q    Type
REMARK                         _______ _______ _______ _____ _____    ______ ____
ROOT
ATOM      1  N   UNL     1       2.526   5.850  -4.816  0.00  0.00    -0.297 N 
ATOM      2  C   UNL     1       3.135   6.614  -5.748  0.00  0.00    +0.201 A 
ATOM      3  N   UNL     1       3.470   6.223  -7.085  0.00  0.00    -0.278 N 
ATOM      4  C   UNL     1       2.848   7.058  -8.078  0.00  0.00    +0.111 C 
ATOM      5  C   UNL     1       3.492   6.968  -9.432  0.00  0.00    +0.094 C 
ATOM      6  N   UNL     1       3.349   5.684 -10.059  0.00  0.00    -0.270 NA
ATOM      7  C   UNL     1       3.787   5.766 -11.429  0.00  0.00    +0.090 C 
ATOM      8  C   UNL     1       4.037   4.625  -9.356  0.00  0.00    +0.074 C 
ATOM      9  C   UNL     1       5.152   5.167  -8.503  0.00  0.00    +0.039 C 
ATOM     10  C   UNL     1       4.631   5.345  -7.107  0.00  0.00    +0.095 C 
ATOM     11  N   UNL     1       3.867   7.507  -5.045  0.00  0.00    -0.214 NA
ATOM     12  C   UNL     1       3.515   7.474  -3.758  0.00  0.00    +0.100 A 
ATOM     13  C   UNL     1       4.126   8.045  -2.651  0.00  0.00    +0.021 A 
ATOM     14  C   UNL     1       3.662   7.664  -1.414  0.00  0.00    +0.002 A 
ATOM     15  C   UNL     1       3.173   6.380  -1.271  0.00  0.00    +0.002 A 
ATOM     16  C   UNL     1       2.676   5.698  -2.375  0.00  0.00    +0.019 A 
ATOM     17  C   UNL     1       2.682   6.377  -3.589  0.00  0.00    +0.080 A 
ENDROOT
BRANCH   1  18
ATOM     18  C   UNL     1       1.501   4.882  -5.171  0.00  0.00    +0.141 C 
BRANCH  18  19
ATOM     19  C   UNL     1       0.222   5.606  -5.485  0.00  0.00    +0.167 C 
BRANCH  19  20
ATOM     20  O   UNL     1      -0.704   5.440  -4.466  0.00  0.00    -0.352 OA
BRANCH  20  22
ATOM     21  C   UNL     1      -2.268   5.603  -6.303  0.00  0.00    +0.035 C 
ATOM     22  C   UNL     1      -1.988   5.815  -4.842  0.00  0.00    +0.142 C 
ENDBRANCH  20  22
ENDBRANCH  19  20
ENDBRANCH  18  19
ENDBRANCH   1  18
TORSDOF 4
ENDMDL
MODEL 4
REMARK VINA RESULT:      -7.2      2.466      3.376
REMARK  Name = 
REMARK  4 active torsions:
REMARK  status: ('A' for Active; 'I' for Inactive)
REMARK    1  A    between atoms: C_2  and  O_3
REMARK    2  A    between atoms: O_3  and  C_4
REMARK    3  A    between atoms: C_4  and  C_5
REMARK    4  A    between atoms: C_5  and  N_6
REMARK                            x       y       z     vdW  Elec       q    Type
REMARK                         _______ _______ _______ _____ _____    ______ ____
ROOT
ATOM      1  N   UNL     1       3.104   6.246  -7.391  0.00  0.00    -0.297 N 
ATOM      2  C   UNL     1       3.935   5.760  -6.447  0.00  0.00    +0.201 A 
ATOM      3  N   UNL     1       3.916   6.074  -5.048  0.00  0.00    -0.278 N 
ATOM      4  C   UNL     1       3.722   4.912  -4.222  0.00  0.00    +0.111 C 
ATOM      5  C   UNL     1       4.118   5.119  -2.789  0.00  0.00    +0.094 C 
ATOM      6  N   UNL     1       3.294   6.064  -2.089  0.00  0.00    -0.270 NA
ATOM      7  C   UNL     1       3.599   6.018  -0.681  0.00  0.00    +0.090 C 
ATOM      8  C   UNL     1       3.409   7.410  -2.601  0.00  0.00    +0.074 C 
ATOM      9  C   UNL     1       4.710   7.611  -3.329  0.00  0.00    +0.039 C 
ATOM     10  C   UNL     1       4.468   7.396  -4.794  0.00  0.00    +0.095 C 
ATOM     11  N   UNL     1       5.073   5.450  -7.107  0.00  0.00    -0.214 NA
ATOM     12  C   UNL     1       4.861   5.484  -8.424  0.00  0.00    +0.100 A 
ATOM     13  C   UNL     1       5.765   5.449  -9.476  0.00  0.00    +0.021 A 
ATOM     14  C   UNL     1       5.276   5.720 -10.732  0.00  0.00    +0.002 A 
ATOM     15  C   UNL     1       4.218   6.602 -10.840  0.00  0.00    +0.002 A 
ATOM     16  C   UNL     1       3.357   6.791  -9.767  0.00  0.00    +0.019 A 
ATOM     17  C   UNL     1       3.604   6.041  -8.622  0.00  0.00    +0.080 A 
ENDROOT
BRANCH   1  18
ATOM     18  C   UNL     1       1.704   6.524  -7.109  0.00  0.00    +0.141 C 
BRANCH  18  19
ATOM     19  C   UNL     1       0.896   5.276  -7.329  0.00  0.00    +0.167 C 
BRANCH  19  20
ATOM     20  O   UNL     1       0.394   4.794  -6.129  0.00  0.00    -0.352 OA
BRANCH  20  22
ATOM     21  C   UNL     1      -1.902   5.475  -6.465  0.00  0.00    +0.035 C 
ATOM     22  C   UNL     1      -0.652   5.566  -5.637  0.00  0.00    +0.142 C 
ENDBRANCH  20  22
ENDBRANCH  19  20
ENDBRANCH  18  19
ENDBRANCH   1  18
TORSDOF 4
ENDMDL
MODEL 5
REMARK VINA RESULT:      -7.2      2.268      6.512
REMARK  Name = 
REMARK  4 active torsions:
REMARK  status: ('A' for Active; 'I' for Inactive)
REMARK    1  A    between atoms: C_2  and  O_3
REMARK    2  A    between atoms: O_3  and  C_4
REMARK    3  A    between atoms: C_4  and  C_5
REMARK    4  A    between atoms: C_5  and  N_6
REMARK                            x       y       z     vdW  Elec       q    Type
REMARK                         _______ _______ _______ _____ _____    ______ ____
ROOT
ATOM      1  N   UNL     1       3.092   5.363 -10.294  0.00  0.00    -0.297 N 
ATOM      2  C   UNL     1       3.795   5.753 -11.377  0.00  0.00    +0.201 A 
ATOM      3  N   UNL     1       5.206   6.000 -11.436  0.00  0.00    -0.278 N 
ATOM      4  C   UNL     1       5.875   5.163 -12.396  0.00  0.00    +0.111 C 
ATOM      5  C   UNL     1       7.231   5.668 -12.795  0.00  0.00    +0.094 C 
ATOM      6  N   UNL     1       8.195   5.648 -11.730  0.00  0.00    -0.270 NA
ATOM      7  C   UNL     1       9.506   5.924 -12.262  0.00  0.00    +0.090 C 
ATOM      8  C   UNL     1       7.872   6.553 -10.651  0.00  0.00    +0.074 C 
ATOM      9  C   UNL     1       6.965   7.660 -11.116  0.00  0.00    +0.039 C 
ATOM     10  C   UNL     1       5.549   7.268 -10.809  0.00  0.00    +0.095 C 
ATOM     11  N   UNL     1       2.908   6.416 -12.151  0.00  0.00    -0.214 NA
ATOM     12  C   UNL     1       1.668   6.210 -11.704  0.00  0.00    +0.100 A 
ATOM     13  C   UNL     1       0.479   6.844 -12.040  0.00  0.00    +0.021 A 
ATOM     14  C   UNL     1      -0.618   6.572 -11.258  0.00  0.00    +0.002 A 
ATOM     15  C   UNL     1      -0.410   6.293  -9.921  0.00  0.00    +0.002 A 
ATOM     16  C   UNL     1       0.814   5.789  -9.498  0.00  0.00    +0.019 A 
ATOM     17  C   UNL     1       1.776   5.568 -10.477  0.00  0.00    +0.080 A 
ENDROOT
BRANCH   1  18
ATOM     18  C   UNL     1       3.652   4.458  -9.303  0.00  0.00    +0.141 C 
BRANCH  18  19
ATOM     19  C   UNL     1       3.996   5.233  -8.062  0.00  0.00    +0.167 C 
BRANCH  19  20
ATOM     20  O   UNL     1       3.238   4.803  -6.984  0.00  0.00    -0.352 OA
BRANCH  20  22
ATOM     21  C   UNL     1       2.898   7.194  -6.860  0.00  0.00    +0.035 C 
ATOM     22  C   UNL     1       2.787   5.853  -6.192  0.00  0.00    +0.142 C 
ENDBRANCH  20  22
ENDBRANCH  19  20
ENDBRANCH  18  19
ENDBRANCH   1  18
TORSDOF 4
ENDMDL
MODEL 6
REMARK VINA RESULT:      -7.1      2.425      6.771
REMARK  Name = 
REMARK  4 active torsions:
REMARK  status: ('A' for Active; 'I' for Inactive)
REMARK    1  A    between atoms: C_2  and  O_3
REMARK    2  A    between atoms: O_3  and  C_4
REMARK    3  A    between atoms: C_4  and  C_5
REMARK    4  A    between atoms: C_5  and  N_6
REMARK                            x       y       z     vdW  Elec       q    Type
REMARK                         _______ _______ _______ _____ _____    ______ ____
ROOT
ATOM      1  N   UNL     1       0.972   5.809  -7.583  0.00  0.00    -0.297 N 
ATOM      2  C   UNL     1       0.165   5.422  -8.593  0.00  0.00    +0.201 A 
ATOM      3  N   UNL     1       0.399   5.612  -9.994  0.00  0.00    -0.278 N 
ATOM      4  C   UNL     1       0.439   4.371 -10.722  0.00  0.00    +0.111 C 
ATOM      5  C   UNL     1       0.251   4.535 -12.203  0.00  0.00    +0.094 C 
ATOM      6  N   UNL     1       1.322   5.239 -12.850  0.00  0.00    -0.270 NA
ATOM      7  C   UNL     1       1.168   5.140 -14.280  0.00  0.00    +0.090 C 
ATOM      8  C   UNL     1       1.432   6.618 -12.434  0.00  0.00    +0.074 C 
ATOM      9  C   UNL     1       0.129   7.131 -11.884  0.00  0.00    +0.039 C 
ATOM     10  C   UNL     1       0.162   6.992 -10.390  0.00  0.00    +0.095 C 
ATOM     11  N   UNL     1      -1.076   5.397  -8.060  0.00  0.00    -0.214 NA
ATOM     12  C   UNL     1      -1.005   5.496  -6.731  0.00  0.00    +0.100 A 
ATOM     13  C   UNL     1      -2.006   5.725  -5.797  0.00  0.00    +0.021 A 
ATOM     14  C   UNL     1      -1.610   5.995  -4.508  0.00  0.00    +0.002 A 
ATOM     15  C   UNL     1      -0.412   6.657  -4.323  0.00  0.00    +0.002 A 
ATOM     16  C   UNL     1       0.581   6.584  -5.292  0.00  0.00    +0.019 A 
ATOM     17  C   UNL     1       0.310   5.808  -6.413  0.00  0.00    +0.080 A 
ENDROOT
BRANCH   1  18
ATOM     18  C   UNL     1       2.421   5.782  -7.708  0.00  0.00    +0.141 C 
BRANCH  18  19
ATOM     19  C   UNL     1       2.889   4.354  -7.739  0.00  0.00    +0.167 C 
BRANCH  19  20
ATOM     20  O   UNL     1       3.627   4.100  -8.885  0.00  0.00    -0.352 OA
BRANCH  20  22
ATOM     21  C   UNL     1       4.433   5.324 -10.809  0.00  0.00    +0.035 C 
ATOM     22  C   UNL     1       4.350   5.207  -9.314  0.00  0.00    +0.142 C 
ENDBRANCH  20  22
ENDBRANCH  19  20
ENDBRANCH  18  19
ENDBRANCH   1  18
TORSDOF 4
ENDMDL
MODEL 7
REMARK VINA RESULT:      -7.0      2.776      4.822
REMARK  Name = 
REMARK  4 active torsions:
REMARK  status: ('A' for Active; 'I' for Inactive)
REMARK    1  A    between atoms: C_2  and  O_3
REMARK    2  A    between atoms: O_3  and  C_4
REMARK    3  A    between atoms: C_4  and  C_5
REMARK    4  A    between atoms: C_5  and  N_6
REMARK                            x       y       z     vdW  Elec       q    Type
REMARK                         _______ _______ _______ _____ _____    ______ ____
ROOT
ATOM      1  N   UNL     1       2.292   5.250  -6.888  0.00  0.00    -0.297 N 
ATOM      2  C   UNL     1       1.427   6.276  -6.750  0.00  0.00    +0.201 A 
ATOM      3  N   UNL     1       0.169   6.245  -6.064  0.00  0.00    -0.278 N 
ATOM      4  C   UNL     1       0.102   7.197  -4.987  0.00  0.00    +0.111 C 
ATOM      5  C   UNL     1      -1.298   7.499  -4.535  0.00  0.00    +0.094 C 
ATOM      6  N   UNL     1      -1.965   6.383  -3.924  0.00  0.00    -0.270 NA
ATOM      7  C   UNL     1      -3.195   6.829  -3.321  0.00  0.00    +0.090 C 
ATOM      8  C   UNL     1      -2.201   5.289  -4.839  0.00  0.00    +0.074 C 
ATOM      9  C   UNL     1      -2.214   5.761  -6.267  0.00  0.00    +0.039 C 
ATOM     10  C   UNL     1      -0.845   5.551  -6.844  0.00  0.00    +0.095 C 
ATOM     11  N   UNL     1       1.653   7.073  -7.818  0.00  0.00    -0.214 NA
ATOM     12  C   UNL     1       2.780   6.705  -8.431  0.00  0.00    +0.100 A 
ATOM     13  C   UNL     1       3.289   7.083  -9.666  0.00  0.00    +0.021 A 
ATOM     14  C   UNL     1       4.368   6.375 -10.141  0.00  0.00    +0.002 A 
ATOM     15  C   UNL     1       4.471   5.041  -9.799  0.00  0.00    +0.002 A 
ATOM     16  C   UNL     1       3.859   4.569  -8.644  0.00  0.00    +0.019 A 
ATOM     17  C   UNL     1       3.179   5.500  -7.867  0.00  0.00    +0.080 A 
ENDROOT
BRANCH   1  18
ATOM     18  C   UNL     1       2.486   4.265  -5.836  0.00  0.00    +0.141 C 
BRANCH  18  19
ATOM     19  C   UNL     1       3.555   4.747  -4.897  0.00  0.00    +0.167 C 
BRANCH  19  20
ATOM     20  O   UNL     1       3.002   5.437  -3.828  0.00  0.00    -0.352 OA
BRANCH  20  22
ATOM     21  C   UNL     1       4.363   7.237  -4.695  0.00  0.00    +0.035 C 
ATOM     22  C   UNL     1       3.713   6.587  -3.507  0.00  0.00    +0.142 C 
ENDBRANCH  20  22
ENDBRANCH  19  20
ENDBRANCH  18  19
ENDBRANCH   1  18
TORSDOF 4
ENDMDL
MODEL 8
REMARK VINA RESULT:      -6.9      1.797      2.227
REMARK  Name = 
REMARK  4 active torsions:
REMARK  status: ('A' for Active; 'I' for Inactive)
REMARK    1  A    between atoms: C_2  and  O_3
REMARK    2  A    between atoms: O_3  and  C_4
REMARK    3  A    between atoms: C_4  and  C_5
REMARK    4  A    between atoms: C_5  and  N_6
REMARK                            x       y       z     vdW  Elec       q    Type
REMARK                         _______ _______ _______ _____ _____    ______ ____
ROOT
ATOM      1  N   UNL     1       4.410   5.479 -11.711  0.00  0.00    -0.297 N 
ATOM      2  C   UNL     1       4.547   5.274 -10.384  0.00  0.00    +0.201 A 
ATOM      3  N   UNL     1       3.539   5.461  -9.383  0.00  0.00    -0.278 N 
ATOM      4  C   UNL     1       3.259   4.256  -8.648  0.00  0.00    +0.111 C 
ATOM      5  C   UNL     1       2.554   4.496  -7.344  0.00  0.00    +0.094 C 
ATOM      6  N   UNL     1       1.222   5.014  -7.491  0.00  0.00    -0.270 NA
ATOM      7  C   UNL     1       0.552   4.988  -6.215  0.00  0.00    +0.090 C 
ATOM      8  C   UNL     1       1.186   6.337  -8.070  0.00  0.00    +0.074 C 
ATOM      9  C   UNL     1       2.490   7.060  -7.869  0.00  0.00    +0.039 C 
ATOM     10  C   UNL     1       3.326   6.872  -9.101  0.00  0.00    +0.095 C 
ATOM     11  N   UNL     1       5.862   5.458 -10.135  0.00  0.00    -0.214 NA
ATOM     12  C   UNL     1       6.543   5.502 -11.282  0.00  0.00    +0.100 A 
ATOM     13  C   UNL     1       7.855   5.880 -11.529  0.00  0.00    +0.021 A 
ATOM     14  C   UNL     1       8.226   6.035 -12.844  0.00  0.00    +0.002 A 
ATOM     15  C   UNL     1       7.268   6.464 -13.742  0.00  0.00    +0.002 A 
ATOM     16  C   UNL     1       5.921   6.242 -13.482  0.00  0.00    +0.019 A 
ATOM     17  C   UNL     1       5.611   5.561 -12.310  0.00  0.00    +0.080 A 
ENDROOT
BRANCH   1  18
ATOM     18  C   UNL     1       3.163   5.193 -12.404  0.00  0.00    +0.141 C 
BRANCH  18  19
ATOM     19  C   UNL     1       2.371   6.463 -12.543  0.00  0.00    +0.167 C 
BRANCH  19  20
ATOM     20  O   UNL     1       1.192   6.392 -11.817  0.00  0.00    -0.352 OA
BRANCH  20  22
ATOM     21  C   UNL     1       0.556   7.834 -13.651  0.00  0.00    +0.035 C 
ATOM     22  C   UNL     1       0.196   7.214 -12.332  0.00  0.00    +0.142 C 
ENDBRANCH  20  22
ENDBRANCH  19  20
ENDBRANCH  18  19
ENDBRANCH   1  18
TORSDOF 4
ENDMDL
MODEL 9
REMARK VINA RESULT:      -6.8      3.575      5.254
REMARK  Name = 
REMARK  4 active torsions:
REMARK  status: ('A' for Active; 'I' for Inactive)
REMARK    1  A    between atoms: C_2  and  O_3
REMARK    2  A    between atoms: O_3  and  C_4
REMARK    3  A    between atoms: C_4  and  C_5
REMARK    4  A    between atoms: C_5  and  N_6
REMARK                            x       y       z     vdW  Elec       q    Type
REMARK                         _______ _______ _______ _____ _____    ______ ____
ROOT
ATOM      1  N   UNL     1       1.413   6.088  -5.766  0.00  0.00    -0.297 N 
ATOM      2  C   UNL     1       2.482   5.576  -5.123  0.00  0.00    +0.201 A 
ATOM      3  N   UNL     1       3.160   6.152  -4.000  0.00  0.00    -0.278 N 
ATOM      4  C   UNL     1       3.161   5.287  -2.850  0.00  0.00    +0.111 C 
ATOM      5  C   UNL     1       4.198   5.648  -1.825  0.00  0.00    +0.094 C 
ATOM      6  N   UNL     1       3.968   6.913  -1.186  0.00  0.00    -0.270 NA
ATOM      7  C   UNL     1       4.868   7.059  -0.070  0.00  0.00    +0.090 C 
ATOM      8  C   UNL     1       4.073   8.036  -2.090  0.00  0.00    +0.074 C 
ATOM      9  C   UNL     1       4.911   7.696  -3.292  0.00  0.00    +0.039 C 
ATOM     10  C   UNL     1       3.993   7.276  -4.402  0.00  0.00    +0.095 C 
ATOM     11  N   UNL     1       3.117   4.820  -6.046  0.00  0.00    -0.214 NA
ATOM     12  C   UNL     1       2.337   4.653  -7.116  0.00  0.00    +0.100 A 
ATOM     13  C   UNL     1       2.639   4.145  -8.371  0.00  0.00    +0.021 A 
ATOM     14  C   UNL     1       1.687   4.293  -9.352  0.00  0.00    +0.002 A 
ATOM     15  C   UNL     1       0.873   5.409  -9.304  0.00  0.00    +0.002 A 
ATOM     16  C   UNL     1       0.645   6.052  -8.093  0.00  0.00    +0.019 A 
ATOM     17  C   UNL     1       1.250   5.505  -6.967  0.00  0.00    +0.080 A 
ENDROOT
BRANCH   1  18
ATOM     18  C   UNL     1       0.371   6.817  -5.059  0.00  0.00    +0.141 C 
BRANCH  18  19
ATOM     19  C   UNL     1      -0.450   5.851  -4.253  0.00  0.00    +0.167 C 
BRANCH  19  20
ATOM     20  O   UNL     1      -1.780   6.241  -4.218  0.00  0.00    -0.352 OA
BRANCH  20  22
ATOM     21  C   UNL     1      -2.602   5.462  -6.354  0.00  0.00    +0.035 C 
ATOM     22  C   UNL     1      -2.260   6.623  -5.465  0.00  0.00    +0.142 C 
ENDBRANCH  20  22
ENDBRANCH  19  20
ENDBRANCH  18  19
ENDBRANCH   1  18
TORSDOF 4
ENDMDL
