MODEL 1
REMARK VINA RESULT:      -8.5      0.000      0.000
REMARK  Name = 
REMARK  8 active torsions:
REMARK  status: ('A' for Active; 'I' for Inactive)
REMARK    1  A    between atoms: C_2  and  O_3
REMARK    2  A    between atoms: O_3  and  C_4
REMARK    3  A    between atoms: C_6  and  C_7
REMARK    4  A    between atoms: C_7  and  C_8
REMARK    5  A    between atoms: C_7  and  N_13
REMARK    6  A    between atoms: C_8  and  S_9
REMARK    7  A    between atoms: C_20  and  N_21
REMARK    8  A    between atoms: C_30  and  O_31
REMARK                            x       y       z     vdW  Elec       q    Type
REMARK                         _______ _______ _______ _____ _____    ______ ____
ROOT
ATOM      1  C   UNL     1       1.505   6.825  -6.126  0.00  0.00    +0.129 C 
ENDROOT
BRANCH   1   2
ATOM      2  N   UNL     1       1.445   5.767  -7.292  0.00  0.00    -0.219 N 
ATOM      3  C   UNL     1       2.593   5.841  -8.160  0.00  0.00    +0.257 C 
ATOM      4  O   UNL     1       3.751   6.283  -7.900  0.00  0.00    -0.269 OA
ATOM      5  C   UNL     1       2.149   5.718  -9.557  0.00  0.00    +0.074 A 
ATOM      6  C   UNL     1       0.929   5.060  -9.443  0.00  0.00    +0.060 A 
ATOM      7  C   UNL     1       0.279   4.736 -10.618  0.00  0.00    +0.005 A 
ATOM      8  C   UNL     1       0.842   5.116 -11.829  0.00  0.00    +0.001 A 
ATOM      9  C   UNL     1       1.807   6.114 -11.894  0.00  0.00    +0.017 A 
ATOM     10  C   UNL     1       2.617   6.218 -10.768  0.00  0.00    +0.078 A 
ATOM     11  C   UNL     1       0.390   5.528  -8.154  0.00  0.00    +0.255 C 
ATOM     12  O   UNL     1      -0.783   5.425  -7.710  0.00  0.00    -0.269 OA
BRANCH  10  13
ATOM     13  N   UNL     1       3.946   6.722 -10.846  0.00  0.00    -0.179 NA
ATOM     14  C   UNL     1       5.035   5.810 -11.041  0.00  0.00    +0.246 C 
ATOM     15  O   UNL     1       4.862   5.045 -12.037  0.00  0.00    -0.273 OA
ATOM     16  C   UNL     1       6.436   6.162 -10.652  0.00  0.00    +0.097 C 
ENDBRANCH  10  13
ENDBRANCH   1   2
BRANCH   1  21
ATOM     17  C   UNL     1      -0.533   5.266  -3.337  0.00  0.00    +0.172 A 
ATOM     18  C   UNL     1      -1.695   6.031  -3.361  0.00  0.00    +0.172 A 
ATOM     19  C   UNL     1      -1.752   7.138  -4.203  0.00  0.00    +0.040 A 
ATOM     20  C   UNL     1      -0.653   7.444  -4.999  0.00  0.00    +0.001 A 
ATOM     21  C   UNL     1       0.134   6.363  -5.391  0.00  0.00    +0.001 A 
ATOM     22  C   UNL     1       0.289   5.390  -4.429  0.00  0.00    +0.037 A 
BRANCH  18  23
ATOM     23  O   UNL     1      -2.733   5.685  -2.523  0.00  0.00    -0.468 OA
ATOM     24  C   UNL     1      -3.853   6.529  -2.453  0.00  0.00    +0.253 C 
ENDBRANCH  18  23
BRANCH  17  25
ATOM     25  O   UNL     1      -0.100   4.730  -2.119  0.00  0.00    -0.472 OA
BRANCH  25  27
ATOM     26  C   UNL     1       0.778   6.421  -0.630  0.00  0.00    +0.051 C 
ATOM     27  C   UNL     1       1.091   5.301  -1.580  0.00  0.00    +0.206 C 
ENDBRANCH  25  27
ENDBRANCH  17  25
ENDBRANCH   1  21
BRANCH   1  28
ATOM     28  C   UNL     1       2.419   5.917  -5.122  0.00  0.00    +0.176 C 
BRANCH  28  29
ATOM     29  S   UNL     1       3.648   6.629  -4.294  0.00  0.00    -0.006 S 
ATOM     30  O   UNL     1       3.123   7.546  -3.200  0.00  0.00    -0.173 OA
ATOM     31  O   UNL     1       4.717   7.426  -4.929  0.00  0.00    -0.173 OA
ATOM     32  C   UNL     1       4.392   5.294  -3.333  0.00  0.00    +0.176 C 
ENDBRANCH  28  29
ENDBRANCH   1  28
TORSDOF 8
ENDMDL
MODEL 2
REMARK VINA RESULT:      -8.5      2.392      8.876
REMARK  Name = 
REMARK  8 active torsions:
REMARK  status: ('A' for Active; 'I' for Inactive)
REMARK    1  A    between atoms: C_2  and  O_3
REMARK    2  A    between atoms: O_3  and  C_4
REMARK    3  A    between atoms: C_6  and  C_7
REMARK    4  A    between atoms: C_7  and  C_8
REMARK    5  A    between atoms: C_7  and  N_13
REMARK    6  A    between atoms: C_8  and  S_9
REMARK    7  A    between atoms: C_20  and  N_21
REMARK    8  A    between atoms: C_30  and  O_31
REMARK                            x       y       z     vdW  Elec       q    Type
REMARK                         _______ _______ _______ _____ _____    ______ ____
ROOT
ATOM      1  C   UNL     1       3.155   6.802  -9.624  0.00  0.00    +0.129 C 
ENDROOT
BRANCH   1   2
ATOM      2  N   UNL     1       3.261   5.820  -8.397  0.00  0.00    -0.219 N 
ATOM      3  C   UNL     1       2.117   5.903  -7.525  0.00  0.00    +0.257 C 
ATOM      4  O   UNL     1       0.941   6.286  -7.802  0.00  0.00    -0.269 OA
ATOM      5  C   UNL     1       2.573   5.882  -6.127  0.00  0.00    +0.074 A 
ATOM      6  C   UNL     1       3.816   5.264  -6.211  0.00  0.00    +0.060 A 
ATOM      7  C   UNL     1       4.484   5.036  -5.024  0.00  0.00    +0.005 A 
ATOM      8  C   UNL     1       3.914   5.468  -3.833  0.00  0.00    +0.001 A 
ATOM      9  C   UNL     1       2.913   6.431  -3.821  0.00  0.00    +0.017 A 
ATOM     10  C   UNL     1       2.093   6.437  -4.945  0.00  0.00    +0.078 A 
ATOM     11  C   UNL     1       4.330   5.673  -7.530  0.00  0.00    +0.255 C 
ATOM     12  O   UNL     1       5.503   5.586  -7.976  0.00  0.00    -0.269 OA
BRANCH  10  13
ATOM     13  N   UNL     1       0.746   6.895  -4.887  0.00  0.00    -0.179 NA
ATOM     14  C   UNL     1      -0.310   5.952  -4.662  0.00  0.00    +0.246 C 
ATOM     15  O   UNL     1      -0.112   5.228  -3.640  0.00  0.00    -0.273 OA
ATOM     16  C   UNL     1      -1.721   6.240  -5.066  0.00  0.00    +0.097 C 
ENDBRANCH  10  13
ENDBRANCH   1   2
BRANCH   1  21
ATOM     17  C   UNL     1       5.529   5.325 -12.183  0.00  0.00    +0.172 A 
ATOM     18  C   UNL     1       6.587   6.229 -12.156  0.00  0.00    +0.172 A 
ATOM     19  C   UNL     1       6.460   7.388 -11.396  0.00  0.00    +0.040 A 
ATOM     20  C   UNL     1       5.287   7.607 -10.681  0.00  0.00    +0.001 A 
ATOM     21  C   UNL     1       4.614   6.466 -10.252  0.00  0.00    +0.001 A 
ATOM     22  C   UNL     1       4.634   5.419 -11.146  0.00  0.00    +0.037 A 
BRANCH  18  23
ATOM     23  O   UNL     1       7.707   5.958 -12.912  0.00  0.00    -0.468 OA
ATOM     24  C   UNL     1       8.931   5.751 -12.254  0.00  0.00    +0.253 C 
ENDBRANCH  18  23
BRANCH  17  25
ATOM     25  O   UNL     1       5.237   4.660 -13.379  0.00  0.00    -0.472 OA
BRANCH  25  27
ATOM     26  C   UNL     1       3.954   6.228 -14.698  0.00  0.00    +0.051 C 
ATOM     27  C   UNL     1       3.956   4.931 -13.941  0.00  0.00    +0.206 C 
ENDBRANCH  25  27
ENDBRANCH  17  25
ENDBRANCH   1  21
BRANCH   1  28
ATOM     28  C   UNL     1       2.416   5.743 -10.623  0.00  0.00    +0.176 C 
BRANCH  28  29
ATOM     29  S   UNL     1       0.937   6.119 -11.236  0.00  0.00    -0.006 S 
ATOM     30  O   UNL     1       0.963   6.178 -12.755  0.00  0.00    -0.173 OA
ATOM     31  O   UNL     1       0.170   7.323 -10.857  0.00  0.00    -0.173 OA
ATOM     32  C   UNL     1      -0.073   4.653 -10.939  0.00  0.00    +0.176 C 
ENDBRANCH  28  29
ENDBRANCH   1  28
TORSDOF 8
ENDMDL
MODEL 3
REMARK VINA RESULT:      -8.4      2.684      5.591
REMARK  Name = 
REMARK  8 active torsions:
REMARK  status: ('A' for Active; 'I' for Inactive)
REMARK    1  A    between atoms: C_2  and  O_3
REMARK    2  A    between atoms: O_3  and  C_4
REMARK    3  A    between atoms: C_6  and  C_7
REMARK    4  A    between atoms: C_7  and  C_8
REMARK    5  A    between atoms: C_7  and  N_13
REMARK    6  A    between atoms: C_8  and  S_9
REMARK    7  A    between atoms: C_20  and  N_21
REMARK    8  A    between atoms: C_30  and  O_31
REMARK                            x       y       z     vdW  Elec       q    Type
REMARK                         _______ _______ _______ _____ _____    ______ ____
ROOT
ATOM      1  C   UNL     1       2.460   5.152  -9.913  0.00  0.00    +0.129 C 
ENDROOT
BRANCH   1   2
ATOM      2  N   UNL     1       3.808   5.957 -10.043  0.00  0.00    -0.219 N 
ATOM      3  C   UNL     1       4.219   6.123 -11.415  0.00  0.00    +0.257 C 
ATOM      4  O   UNL     1       3.504   6.108 -12.459  0.00  0.00    -0.269 OA
ATOM      5  C   UNL     1       5.669   5.896 -11.513  0.00  0.00    +0.074 A 
ATOM      6  C   UNL     1       6.116   6.147 -10.221  0.00  0.00    +0.060 A 
ATOM      7  C   UNL     1       7.478   6.077 -10.003  0.00  0.00    +0.005 A 
ATOM      8  C   UNL     1       8.313   5.721 -11.054  0.00  0.00    +0.001 A 
ATOM      9  C   UNL     1       7.818   5.078 -12.182  0.00  0.00    +0.017 A 
ATOM     10  C   UNL     1       6.505   5.397 -12.508  0.00  0.00    +0.078 A 
ATOM     11  C   UNL     1       4.992   5.726  -9.366  0.00  0.00    +0.255 C 
ATOM     12  O   UNL     1       4.985   5.520  -8.125  0.00  0.00    -0.269 OA
BRANCH  10  13
ATOM     13  N   UNL     1       6.028   5.331 -13.848  0.00  0.00    -0.179 NA
ATOM     14  C   UNL     1       6.002   6.520 -14.647  0.00  0.00    +0.246 C 
ATOM     15  O   UNL     1       7.120   7.119 -14.673  0.00  0.00    -0.273 OA
ATOM     16  C   UNL     1       5.099   6.653 -15.833  0.00  0.00    +0.097 C 
ENDBRANCH  10  13
ENDBRANCH   1   2
BRANCH   1  21
ATOM     17  C   UNL     1       0.841   5.903  -6.569  0.00  0.00    +0.172 A 
ATOM     18  C   UNL     1       1.323   4.868  -5.773  0.00  0.00    +0.172 A 
ATOM     19  C   UNL     1       2.071   3.856  -6.368  0.00  0.00    +0.040 A 
ATOM     20  C   UNL     1       2.321   3.909  -7.735  0.00  0.00    +0.001 A 
ATOM     21  C   UNL     1       2.386   5.184  -8.292  0.00  0.00    +0.001 A 
ATOM     22  C   UNL     1       1.483   6.083  -7.769  0.00  0.00    +0.037 A 
BRANCH  18  23
ATOM     23  O   UNL     1       1.011   4.867  -4.430  0.00  0.00    -0.468 OA
ATOM     24  C   UNL     1       1.703   5.742  -3.576  0.00  0.00    +0.253 C 
ENDBRANCH  18  23
BRANCH  17  25
ATOM     25  O   UNL     1      -0.425   6.432  -6.299  0.00  0.00    -0.472 OA
BRANCH  25  27
ATOM     26  C   UNL     1      -2.549   5.535  -5.570  0.00  0.00    +0.051 C 
ATOM     27  C   UNL     1      -1.531   5.611  -6.671  0.00  0.00    +0.206 C 
ENDBRANCH  25  27
ENDBRANCH  17  25
ENDBRANCH   1  21
BRANCH   1  28
ATOM     28  C   UNL     1       1.476   6.450 -10.043  0.00  0.00    +0.176 C 
BRANCH  28  29
ATOM     29  S   UNL     1       0.322   6.466 -11.214  0.00  0.00    -0.006 S 
ATOM     30  O   UNL     1       0.782   7.242 -12.437  0.00  0.00    -0.173 OA
ATOM     31  O   UNL     1      -1.060   6.942 -11.002  0.00  0.00    -0.173 OA
ATOM     32  C   UNL     1       0.278   4.775 -11.843  0.00  0.00    +0.176 C 
ENDBRANCH  28  29
ENDBRANCH   1  28
TORSDOF 8
ENDMDL
MODEL 4
REMARK VINA RESULT:      -7.7      2.788      5.731
REMARK  Name = 
REMARK  8 active torsions:
REMARK  status: ('A' for Active; 'I' for Inactive)
REMARK    1  A    between atoms: C_2  and  O_3
REMARK    2  A    between atoms: O_3  and  C_4
REMARK    3  A    between atoms: C_6  and  C_7
REMARK    4  A    between atoms: C_7  and  C_8
REMARK    5  A    between atoms: C_7  and  N_13
REMARK    6  A    between atoms: C_8  and  S_9
REMARK    7  A    between atoms: C_20  and  N_21
REMARK    8  A    between atoms: C_30  and  O_31
REMARK                            x       y       z     vdW  Elec       q    Type
REMARK                         _______ _______ _______ _____ _____    ______ ____
ROOT
ATOM      1  C   UNL     1       2.858   4.807  -9.990  0.00  0.00    +0.129 C 
ENDROOT
BRANCH   1   2
ATOM      2  N   UNL     1       4.135   5.720 -10.121  0.00  0.00    -0.219 N 
ATOM      3  C   UNL     1       4.433   6.055 -11.490  0.00  0.00    +0.257 C 
ATOM      4  O   UNL     1       3.645   6.094 -12.481  0.00  0.00    -0.269 OA
ATOM      5  C   UNL     1       5.883   5.949 -11.708  0.00  0.00    +0.074 A 
ATOM      6  C   UNL     1       6.406   6.100 -10.428  0.00  0.00    +0.060 A 
ATOM      7  C   UNL     1       7.782   6.110 -10.309  0.00  0.00    +0.005 A 
ATOM      8  C   UNL     1       8.560   5.928 -11.445  0.00  0.00    +0.001 A 
ATOM      9  C   UNL     1       8.028   5.368 -12.600  0.00  0.00    +0.017 A 
ATOM     10  C   UNL     1       6.676   5.619 -12.803  0.00  0.00    +0.078 A 
ATOM     11  C   UNL     1       5.379   5.510  -9.551  0.00  0.00    +0.255 C 
ATOM     12  O   UNL     1       5.476   5.178  -8.342  0.00  0.00    -0.269 OA
BRANCH  10  13
ATOM     13  N   UNL     1       6.108   5.654 -14.109  0.00  0.00    -0.179 NA
ATOM     14  C   UNL     1       5.718   6.912 -14.674  0.00  0.00    +0.246 C 
ATOM     15  O   UNL     1       6.647   7.775 -14.642  0.00  0.00    -0.273 OA
ATOM     16  C   UNL     1       4.703   7.003 -15.770  0.00  0.00    +0.097 C 
ENDBRANCH  10  13
ENDBRANCH   1   2
BRANCH   1  21
ATOM     17  C   UNL     1       2.524   5.197  -6.235  0.00  0.00    +0.172 A 
ATOM     18  C   UNL     1       2.331   6.569  -6.099  0.00  0.00    +0.172 A 
ATOM     19  C   UNL     1       2.444   7.377  -7.227  0.00  0.00    +0.040 A 
ATOM     20  C   UNL     1       2.737   6.792  -8.455  0.00  0.00    +0.001 A 
ATOM     21  C   UNL     1       2.290   5.485  -8.629  0.00  0.00    +0.001 A 
ATOM     22  C   UNL     1       2.381   4.695  -7.504  0.00  0.00    +0.037 A 
BRANCH  18  23
ATOM     23  O   UNL     1       2.073   7.080  -4.845  0.00  0.00    -0.468 OA
ATOM     24  C   UNL     1       0.865   6.739  -4.214  0.00  0.00    +0.253 C 
ENDBRANCH  18  23
BRANCH  17  25
ATOM     25  O   UNL     1       3.176   4.500  -5.211  0.00  0.00    -0.472 OA
BRANCH  25  27
ATOM     26  C   UNL     1       4.691   5.249  -3.482  0.00  0.00    +0.051 C 
ATOM     27  C   UNL     1       4.512   4.915  -4.935  0.00  0.00    +0.206 C 
ENDBRANCH  25  27
ENDBRANCH  17  25
ENDBRANCH   1  21
BRANCH   1  28
ATOM     28  C   UNL     1       1.892   5.734 -10.925  0.00  0.00    +0.176 C 
BRANCH  28  29
ATOM     29  S   UNL     1       0.401   5.176 -11.336  0.00  0.00    -0.006 S 
ATOM     30  O   UNL     1      -0.611   6.308 -11.423  0.00  0.00    -0.173 OA
ATOM     31  O   UNL     1      -0.320   4.125 -10.590  0.00  0.00    -0.173 OA
ATOM     32  C   UNL     1       0.552   4.682 -13.065  0.00  0.00    +0.176 C 
ENDBRANCH  28  29
ENDBRANCH   1  28
TORSDOF 8
ENDMDL
MODEL 5
REMARK VINA RESULT:      -7.7      1.989      7.543
REMARK  Name = 
REMARK  8 active torsions:
REMARK  status: ('A' for Active; 'I' for Inactive)
REMARK    1  A    between atoms: C_2  and  O_3
REMARK    2  A    between atoms: O_3  and  C_4
REMARK    3  A    between atoms: C_6  and  C_7
REMARK    4  A    between atoms: C_7  and  C_8
REMARK    5  A    between atoms: C_7  and  N_13
REMARK    6  A    between atoms: C_8  and  S_9
REMARK    7  A    between atoms: C_20  and  N_21
REMARK    8  A    between atoms: C_30  and  O_31
REMARK                            x       y       z     vdW  Elec       q    Type
REMARK                         _______ _______ _______ _____ _____    ______ ____
ROOT
ATOM      1  C   UNL     1       2.584   5.517  -5.451  0.00  0.00    +0.129 C 
ENDROOT
BRANCH   1   2
ATOM      2  N   UNL     1       1.204   6.265  -5.305  0.00  0.00    -0.219 N 
ATOM      3  C   UNL     1       0.771   6.354  -3.933  0.00  0.00    +0.257 C 
ATOM      4  O   UNL     1       1.474   6.322  -2.880  0.00  0.00    -0.269 OA
ATOM      5  C   UNL     1      -0.670   6.069  -3.864  0.00  0.00    +0.074 A 
ATOM      6  C   UNL     1      -1.111   6.360  -5.151  0.00  0.00    +0.060 A 
ATOM      7  C   UNL     1      -2.467   6.248  -5.390  0.00  0.00    +0.005 A 
ATOM      8  C   UNL     1      -3.300   5.815  -4.367  0.00  0.00    +0.001 A 
ATOM      9  C   UNL     1      -2.795   5.143  -3.261  0.00  0.00    +0.017 A 
ATOM     10  C   UNL     1      -1.499   5.497  -2.904  0.00  0.00    +0.078 A 
ATOM     11  C   UNL     1       0.038   6.018  -6.008  0.00  0.00    +0.255 C 
ATOM     12  O   UNL     1       0.069   5.867  -7.256  0.00  0.00    -0.269 OA
BRANCH  10  13
ATOM     13  N   UNL     1      -1.036   5.390  -1.561  0.00  0.00    -0.179 NA
ATOM     14  C   UNL     1      -1.095   6.535  -0.701  0.00  0.00    +0.246 C 
ATOM     15  O   UNL     1      -2.248   7.061  -0.663  0.00  0.00    -0.273 OA
ATOM     16  C   UNL     1      -0.217   6.662   0.503  0.00  0.00    +0.097 C 
ENDBRANCH  10  13
ENDBRANCH   1   2
BRANCH   1  21
ATOM     17  C   UNL     1       4.094   6.044  -8.887  0.00  0.00    +0.172 A 
ATOM     18  C   UNL     1       3.540   4.995  -9.614  0.00  0.00    +0.172 A 
ATOM     19  C   UNL     1       2.778   4.043  -8.943  0.00  0.00    +0.040 A 
ATOM     20  C   UNL     1       2.585   4.170  -7.571  0.00  0.00    +0.001 A 
ATOM     21  C   UNL     1       2.594   5.471  -7.073  0.00  0.00    +0.001 A 
ATOM     22  C   UNL     1       3.509   6.307  -7.673  0.00  0.00    +0.037 A 
BRANCH  18  23
ATOM     23  O   UNL     1       3.797   4.918 -10.966  0.00  0.00    -0.468 OA
ATOM     24  C   UNL     1       3.167   5.834 -11.825  0.00  0.00    +0.253 C 
ENDBRANCH  18  23
BRANCH  17  25
ATOM     25  O   UNL     1       5.368   6.508  -9.231  0.00  0.00    -0.472 OA
BRANCH  25  27
ATOM     26  C   UNL     1       7.521   5.783 -10.061  0.00  0.00    +0.051 C 
ATOM     27  C   UNL     1       6.435   5.581  -9.043  0.00  0.00    +0.206 C 
ENDBRANCH  25  27
ENDBRANCH  17  25
ENDBRANCH   1  21
BRANCH   1  28
ATOM     28  C   UNL     1       3.508   6.864  -5.425  0.00  0.00    +0.176 C 
BRANCH  28  29
ATOM     29  S   UNL     1       4.598   7.064  -4.210  0.00  0.00    -0.006 S 
ATOM     30  O   UNL     1       4.067   8.001  -3.137  0.00  0.00    -0.173 OA
ATOM     31  O   UNL     1       5.986   7.525  -4.416  0.00  0.00    -0.173 OA
ATOM     32  C   UNL     1       4.619   5.481  -3.343  0.00  0.00    +0.176 C 
ENDBRANCH  28  29
ENDBRANCH   1  28
TORSDOF 8
ENDMDL
MODEL 6
REMARK VINA RESULT:      -7.0      3.816      8.612
REMARK  Name = 
REMARK  8 active torsions:
REMARK  status: ('A' for Active; 'I' for Inactive)
REMARK    1  A    between atoms: C_2  and  O_3
REMARK    2  A    between atoms: O_3  and  C_4
REMARK    3  A    between atoms: C_6  and  C_7
REMARK    4  A    between atoms: C_7  and  C_8
REMARK    5  A    between atoms: C_7  and  N_13
REMARK    6  A    between atoms: C_8  and  S_9
REMARK    7  A    between atoms: C_20  and  N_21
REMARK    8  A    between atoms: C_30  and  O_31
REMARK                            x       y       z     vdW  Elec       q    Type
REMARK                         _______ _______ _______ _____ _____    ______ ____
ROOT
ATOM      1  C   UNL     1       2.566   7.226 -10.695  0.00  0.00    +0.129 C 
ENDROOT
BRANCH   1   2
ATOM      2  N   UNL     1       1.865   6.476  -9.500  0.00  0.00    -0.219 N 
ATOM      3  C   UNL     1       2.104   7.119  -8.233  0.00  0.00    +0.257 C 
ATOM      4  O   UNL     1       2.393   8.331  -8.005  0.00  0.00    -0.269 OA
ATOM      5  C   UNL     1       2.387   6.093  -7.218  0.00  0.00    +0.074 A 
ATOM      6  C   UNL     1       1.793   4.953  -7.748  0.00  0.00    +0.060 A 
ATOM      7  C   UNL     1       1.834   3.807  -6.978  0.00  0.00    +0.005 A 
ATOM      8  C   UNL     1       2.493   3.838  -5.756  0.00  0.00    +0.001 A 
ATOM      9  C   UNL     1       3.414   4.834  -5.459  0.00  0.00    +0.017 A 
ATOM     10  C   UNL     1       3.166   6.060  -6.066  0.00  0.00    +0.078 A 
ATOM     11  C   UNL     1       1.927   5.125  -9.206  0.00  0.00    +0.255 C 
ATOM     12  O   UNL     1       1.775   4.269 -10.114  0.00  0.00    -0.269 OA
BRANCH  10  13
ATOM     13  N   UNL     1       3.596   7.286  -5.482  0.00  0.00    -0.179 NA
ATOM     14  C   UNL     1       4.485   7.258  -4.358  0.00  0.00    +0.246 C 
ATOM     15  O   UNL     1       5.520   6.556  -4.568  0.00  0.00    -0.273 OA
ATOM     16  C   UNL     1       4.590   8.408  -3.407  0.00  0.00    +0.097 C 
ENDBRANCH  10  13
ENDBRANCH   1   2
BRANCH   1  21
ATOM     17  C   UNL     1       5.416   5.311 -12.299  0.00  0.00    +0.172 A 
ATOM     18  C   UNL     1       6.461   5.542 -11.409  0.00  0.00    +0.172 A 
ATOM     19  C   UNL     1       6.262   6.432 -10.358  0.00  0.00    +0.040 A 
ATOM     20  C   UNL     1       5.027   7.058 -10.221  0.00  0.00    +0.001 A 
ATOM     21  C   UNL     1       3.928   6.343 -10.690  0.00  0.00    +0.001 A 
ATOM     22  C   UNL     1       4.160   5.627 -11.843  0.00  0.00    +0.037 A 
BRANCH  18  23
ATOM     23  O   UNL     1       7.666   4.908 -11.624  0.00  0.00    -0.468 OA
ATOM     24  C   UNL     1       8.773   5.680 -12.014  0.00  0.00    +0.253 C 
ENDBRANCH  18  23
BRANCH  17  25
ATOM     25  O   UNL     1       5.709   5.132 -13.655  0.00  0.00    -0.472 OA
BRANCH  25  27
ATOM     26  C   UNL     1       6.453   7.212 -14.638  0.00  0.00    +0.051 C 
ATOM     27  C   UNL     1       5.342   6.209 -14.514  0.00  0.00    +0.206 C 
ENDBRANCH  25  27
ENDBRANCH  17  25
ENDBRANCH   1  21
BRANCH   1  28
ATOM     28  C   UNL     1       1.907   6.312 -11.877  0.00  0.00    +0.176 C 
BRANCH  28  29
ATOM     29  S   UNL     1       0.729   6.957 -12.826  0.00  0.00    -0.006 S 
ATOM     30  O   UNL     1       0.173   5.927 -13.797  0.00  0.00    -0.173 OA
ATOM     31  O   UNL     1       0.913   8.159 -13.665  0.00  0.00    -0.173 OA
ATOM     32  C   UNL     1      -0.671   7.213 -11.716  0.00  0.00    +0.176 C 
ENDBRANCH  28  29
ENDBRANCH   1  28
TORSDOF 8
ENDMDL
MODEL 7
REMARK VINA RESULT:      -6.6      2.956      5.334
REMARK  Name = 
REMARK  8 active torsions:
REMARK  status: ('A' for Active; 'I' for Inactive)
REMARK    1  A    between atoms: C_2  and  O_3
REMARK    2  A    between atoms: O_3  and  C_4
REMARK    3  A    between atoms: C_6  and  C_7
REMARK    4  A    between atoms: C_7  and  C_8
REMARK    5  A    between atoms: C_7  and  N_13
REMARK    6  A    between atoms: C_8  and  S_9
REMARK    7  A    between atoms: C_20  and  N_21
REMARK    8  A    between atoms: C_30  and  O_31
REMARK                            x       y       z     vdW  Elec       q    Type
REMARK                         _______ _______ _______ _____ _____    ______ ____
ROOT
ATOM      1  C   UNL     1       4.241   6.716 -10.314  0.00  0.00    +0.129 C 
ENDROOT
BRANCH   1   2
ATOM      2  N   UNL     1       3.474   5.695 -11.237  0.00  0.00    -0.219 N 
ATOM      3  C   UNL     1       3.795   5.867 -12.631  0.00  0.00    +0.257 C 
ATOM      4  O   UNL     1       4.838   6.371 -13.144  0.00  0.00    -0.269 OA
ATOM      5  C   UNL     1       2.562   5.763 -13.426  0.00  0.00    +0.074 A 
ATOM      6  C   UNL     1       1.717   5.028 -12.601  0.00  0.00    +0.060 A 
ATOM      7  C   UNL     1       0.473   4.704 -13.106  0.00  0.00    +0.005 A 
ATOM      8  C   UNL     1       0.118   5.157 -14.370  0.00  0.00    +0.001 A 
ATOM      9  C   UNL     1       0.790   6.213 -14.972  0.00  0.00    +0.017 A 
ATOM     10  C   UNL     1       2.130   6.330 -14.621  0.00  0.00    +0.078 A 
ATOM     11  C   UNL     1       2.118   5.420 -11.238  0.00  0.00    +0.255 C 
ATOM     12  O   UNL     1       1.507   5.230 -10.155  0.00  0.00    -0.269 OA
BRANCH  10  13
ATOM     13  N   UNL     1       3.086   6.917 -15.498  0.00  0.00    -0.179 NA
ATOM     14  C   UNL     1       2.663   7.912 -16.438  0.00  0.00    +0.246 C 
ATOM     15  O   UNL     1       2.018   8.859 -15.894  0.00  0.00    -0.273 OA
ATOM     16  C   UNL     1       3.446   8.208 -17.678  0.00  0.00    +0.097 C 
ENDBRANCH  10  13
ENDBRANCH   1   2
BRANCH   1  21
ATOM     17  C   UNL     1       3.652   6.116  -6.618  0.00  0.00    +0.172 A 
ATOM     18  C   UNL     1       2.456   6.793  -6.399  0.00  0.00    +0.172 A 
ATOM     19  C   UNL     1       1.916   7.553  -7.433  0.00  0.00    +0.040 A 
ATOM     20  C   UNL     1       2.581   7.609  -8.654  0.00  0.00    +0.001 A 
ATOM     21  C   UNL     1       3.330   6.485  -8.991  0.00  0.00    +0.001 A 
ATOM     22  C   UNL     1       3.983   5.894  -7.932  0.00  0.00    +0.037 A 
BRANCH  18  23
ATOM     23  O   UNL     1       1.870   6.715  -5.154  0.00  0.00    -0.468 OA
ATOM     24  C   UNL     1       0.931   5.698  -4.914  0.00  0.00    +0.253 C 
ENDBRANCH  18  23
BRANCH  17  25
ATOM     25  O   UNL     1       4.583   6.031  -5.577  0.00  0.00    -0.472 OA
BRANCH  25  27
ATOM     26  C   UNL     1       4.443   5.079  -3.359  0.00  0.00    +0.051 C 
ATOM     27  C   UNL     1       4.568   4.815  -4.832  0.00  0.00    +0.206 C 
ENDBRANCH  25  27
ENDBRANCH  17  25
ENDBRANCH   1  21
BRANCH   1  28
ATOM     28  C   UNL     1       5.371   5.658  -9.794  0.00  0.00    +0.176 C 
BRANCH  28  29
ATOM     29  S   UNL     1       6.937   5.870 -10.247  0.00  0.00    -0.006 S 
ATOM     30  O   UNL     1       7.248   5.123 -11.535  0.00  0.00    -0.173 OA
ATOM     31  O   UNL     1       8.094   5.564  -9.382  0.00  0.00    -0.173 OA
ATOM     32  C   UNL     1       7.034   7.591 -10.785  0.00  0.00    +0.176 C 
ENDBRANCH  28  29
ENDBRANCH   1  28
TORSDOF 8
ENDMDL
MODEL 8
REMARK VINA RESULT:      -6.2      3.309      5.849
REMARK  Name = 
REMARK  8 active torsions:
REMARK  status: ('A' for Active; 'I' for Inactive)
REMARK    1  A    between atoms: C_2  and  O_3
REMARK    2  A    between atoms: O_3  and  C_4
REMARK    3  A    between atoms: C_6  and  C_7
REMARK    4  A    between atoms: C_7  and  C_8
REMARK    5  A    between atoms: C_7  and  N_13
REMARK    6  A    between atoms: C_8  and  S_9
REMARK    7  A    between atoms: C_20  and  N_21
REMARK    8  A    between atoms: C_30  and  O_31
REMARK                            x       y       z     vdW  Elec       q    Type
REMARK                         _______ _______ _______ _____ _____    ______ ____
ROOT
ATOM      1  C   UNL     1       4.298   6.703 -10.606  0.00  0.00    +0.129 C 
ENDROOT
BRANCH   1   2
ATOM      2  N   UNL     1       3.207   6.080 -11.556  0.00  0.00    -0.219 N 
ATOM      3  C   UNL     1       3.704   5.851 -12.889  0.00  0.00    +0.257 C 
ATOM      4  O   UNL     1       4.901   5.675 -13.264  0.00  0.00    -0.269 OA
ATOM      5  C   UNL     1       2.681   6.262 -13.862  0.00  0.00    +0.074 A 
ATOM      6  C   UNL     1       1.501   6.189 -13.129  0.00  0.00    +0.060 A 
ATOM      7  C   UNL     1       0.326   6.462 -13.801  0.00  0.00    +0.005 A 
ATOM      8  C   UNL     1       0.383   6.833 -15.138  0.00  0.00    +0.001 A 
ATOM      9  C   UNL     1       1.561   7.300 -15.707  0.00  0.00    +0.017 A 
ATOM     10  C   UNL     1       2.725   6.779 -15.153  0.00  0.00    +0.078 A 
ATOM     11  C   UNL     1       1.913   6.529 -11.755  0.00  0.00    +0.255 C 
ATOM     12  O   UNL     1       1.190   6.841 -10.774  0.00  0.00    -0.269 OA
BRANCH  10  13
ATOM     13  N   UNL     1       3.927   6.662 -15.908  0.00  0.00    -0.179 NA
ATOM     14  C   UNL     1       4.321   7.732 -16.777  0.00  0.00    +0.246 C 
ATOM     15  O   UNL     1       4.351   8.855 -16.190  0.00  0.00    -0.273 OA
ATOM     16  C   UNL     1       5.247   7.509 -17.930  0.00  0.00    +0.097 C 
ENDBRANCH  10  13
ENDBRANCH   1   2
BRANCH   1  21
ATOM     17  C   UNL     1       2.064   5.843  -7.668  0.00  0.00    +0.172 A 
ATOM     18  C   UNL     1       2.267   4.473  -7.537  0.00  0.00    +0.172 A 
ATOM     19  C   UNL     1       3.034   3.814  -8.495  0.00  0.00    +0.040 A 
ATOM     20  C   UNL     1       3.579   4.542  -9.548  0.00  0.00    +0.001 A 
ATOM     21  C   UNL     1       3.876   5.875  -9.276  0.00  0.00    +0.001 A 
ATOM     22  C   UNL     1       2.965   6.510  -8.461  0.00  0.00    +0.037 A 
BRANCH  18  23
ATOM     23  O   UNL     1       1.672   3.813  -6.484  0.00  0.00    -0.468 OA
ATOM     24  C   UNL     1       1.797   4.352  -5.193  0.00  0.00    +0.253 C 
ENDBRANCH  18  23
BRANCH  17  25
ATOM     25  O   UNL     1       0.821   6.380  -7.315  0.00  0.00    -0.472 OA
BRANCH  25  27
ATOM     26  C   UNL     1      -1.390   5.490  -6.906  0.00  0.00    +0.051 C 
ATOM     27  C   UNL     1      -0.314   5.761  -7.918  0.00  0.00    +0.206 C 
ENDBRANCH  25  27
ENDBRANCH  17  25
ENDBRANCH   1  21
BRANCH   1  28
ATOM     28  C   UNL     1       5.473   5.630 -10.973  0.00  0.00    +0.176 C 
BRANCH  28  29
ATOM     29  S   UNL     1       7.031   5.983 -10.582  0.00  0.00    -0.006 S 
ATOM     30  O   UNL     1       8.008   5.316 -11.538  0.00  0.00    -0.173 OA
ATOM     31  O   UNL     1       7.624   5.733  -9.253  0.00  0.00    -0.173 OA
ATOM     32  C   UNL     1       7.230   7.726 -11.005  0.00  0.00    +0.176 C 
ENDBRANCH  28  29
ENDBRANCH   1  28
TORSDOF 8
ENDMDL
MODEL 9
REMARK VINA RESULT:      -6.2      2.697      9.097
REMARK  Name = 
REMARK  8 active torsions:
REMARK  status: ('A' for Active; 'I' for Inactive)
REMARK    1  A    between atoms: C_2  and  O_3
REMARK    2  A    between atoms: O_3  and  C_4
REMARK    3  A    between atoms: C_6  and  C_7
REMARK    4  A    between atoms: C_7  and  C_8
REMARK    5  A    between atoms: C_7  and  N_13
REMARK    6  A    between atoms: C_8  and  S_9
REMARK    7  A    between atoms: C_20  and  N_21
REMARK    8  A    between atoms: C_30  and  O_31
REMARK                            x       y       z     vdW  Elec       q    Type
REMARK                         _______ _______ _______ _____ _____    ______ ____
ROOT
ATOM      1  C   UNL     1       2.860   6.751  -9.956  0.00  0.00    +0.129 C 
ENDROOT
BRANCH   1   2
ATOM      2  N   UNL     1       3.096   5.822  -8.706  0.00  0.00    -0.219 N 
ATOM      3  C   UNL     1       2.011   5.885  -7.760  0.00  0.00    +0.257 C 
ATOM      4  O   UNL     1       0.803   6.203  -7.968  0.00  0.00    -0.269 OA
ATOM      5  C   UNL     1       2.562   5.938  -6.398  0.00  0.00    +0.074 A 
ATOM      6  C   UNL     1       3.824   5.374  -6.546  0.00  0.00    +0.060 A 
ATOM      7  C   UNL     1       4.582   5.222  -5.402  0.00  0.00    +0.005 A 
ATOM      8  C   UNL     1       4.075   5.672  -4.190  0.00  0.00    +0.001 A 
ATOM      9  C   UNL     1       3.032   6.588  -4.142  0.00  0.00    +0.017 A 
ATOM     10  C   UNL     1       2.138   6.515  -5.204  0.00  0.00    +0.078 A 
ATOM     11  C   UNL     1       4.227   5.756  -7.912  0.00  0.00    +0.255 C 
ATOM     12  O   UNL     1       5.370   5.706  -8.435  0.00  0.00    -0.269 OA
BRANCH  10  13
ATOM     13  N   UNL     1       0.778   6.913  -5.069  0.00  0.00    -0.179 NA
ATOM     14  C   UNL     1      -0.209   5.938  -4.707  0.00  0.00    +0.246 C 
ATOM     15  O   UNL     1       0.102   5.289  -3.662  0.00  0.00    -0.273 OA
ATOM     16  C   UNL     1      -1.660   6.134  -5.015  0.00  0.00    +0.097 C 
ENDBRANCH  10  13
ENDBRANCH   1   2
BRANCH   1  21
ATOM     17  C   UNL     1       4.608   5.475 -13.067  0.00  0.00    +0.172 A 
ATOM     18  C   UNL     1       5.882   6.019 -12.931  0.00  0.00    +0.172 A 
ATOM     19  C   UNL     1       6.123   6.909 -11.888  0.00  0.00    +0.040 A 
ATOM     20  C   UNL     1       5.091   7.223 -11.010  0.00  0.00    +0.001 A 
ATOM     21  C   UNL     1       4.135   6.229 -10.814  0.00  0.00    +0.001 A 
ATOM     22  C   UNL     1       3.819   5.509 -11.944  0.00  0.00    +0.037 A 
BRANCH  18  23
ATOM     23  O   UNL     1       6.847   5.684 -13.856  0.00  0.00    -0.468 OA
ATOM     24  C   UNL     1       7.109   6.575 -14.909  0.00  0.00    +0.253 C 
ENDBRANCH  18  23
BRANCH  17  25
ATOM     25  O   UNL     1       4.092   5.273 -14.352  0.00  0.00    -0.472 OA
BRANCH  25  27
ATOM     26  C   UNL     1       3.843   7.071 -15.949  0.00  0.00    +0.051 C 
ATOM     27  C   UNL     1       3.214   6.289 -14.832  0.00  0.00    +0.206 C 
ENDBRANCH  25  27
ENDBRANCH  17  25
ENDBRANCH   1  21
BRANCH   1  28
ATOM     28  C   UNL     1       1.846   5.734 -10.733  0.00  0.00    +0.176 C 
BRANCH  28  29
ATOM     29  S   UNL     1       0.829   6.335 -11.877  0.00  0.00    -0.006 S 
ATOM     30  O   UNL     1       0.550   5.311 -12.966  0.00  0.00    -0.173 OA
ATOM     31  O   UNL     1       1.080   7.580 -12.630  0.00  0.00    -0.173 OA
ATOM     32  C   UNL     1      -0.775   6.448 -11.056  0.00  0.00    +0.176 C 
ENDBRANCH  28  29
ENDBRANCH   1  28
TORSDOF 8
ENDMDL
