MODEL 1
REMARK VINA RESULT:      -5.8      0.000      0.000
REMARK  Name = 
REMARK  0 active torsions:
REMARK  status: ('A' for Active; 'I' for Inactive)
REMARK                            x       y       z     vdW  Elec       q    Type
REMARK                         _______ _______ _______ _____ _____    ______ ____
ROOT
ATOM      1  C   UNL     1       5.086   5.374  -7.979  0.00  0.00    +0.132 C 
ATOM      2  N   UNL     1       4.879   6.055  -9.250  0.00  0.00    -0.302 N 
ATOM      3  C   UNL     1       5.670   6.017 -10.351  0.00  0.00    +0.153 A 
ATOM      4  C   UNL     1       6.989   5.632 -10.498  0.00  0.00    +0.283 A 
ATOM      5  N   UNL     1       7.482   5.495 -11.745  0.00  0.00    -0.245 N 
ATOM      6  C   UNL     1       6.663   5.517 -12.826  0.00  0.00    +0.335 A 
ATOM      7  N   UNL     1       5.319   5.654 -12.701  0.00  0.00    -0.263 N 
ATOM      8  C   UNL     1       4.442   4.836 -13.538  0.00  0.00    +0.137 C 
ATOM      9  O   UNL     1       7.179   5.014 -13.870  0.00  0.00    -0.246 OA
ATOM     10  C   UNL     1       8.915   5.722 -11.918  0.00  0.00    +0.138 C 
ATOM     11  O   UNL     1       7.673   5.317  -9.499  0.00  0.00    -0.265 OA
ATOM     12  C   UNL     1       4.876   6.065 -11.488  0.00  0.00    +0.170 A 
ATOM     13  N   UNL     1       3.638   6.363 -11.039  0.00  0.00    -0.206 NA
ATOM     14  C   UNL     1       3.730   6.605  -9.710  0.00  0.00    +0.180 A 
ENDROOT
TORSDOF 0
ENDMDL
MODEL 2
REMARK VINA RESULT:      -5.6      9.659     11.352
REMARK  Name = 
REMARK  0 active torsions:
REMARK  status: ('A' for Active; 'I' for Inactive)
REMARK                            x       y       z     vdW  Elec       q    Type
REMARK                         _______ _______ _______ _____ _____    ______ ____
ROOT
ATOM      1  C   UNL     1      -1.877   6.449  -5.387  0.00  0.00    +0.132 C 
ATOM      2  N   UNL     1      -1.879   5.661  -4.162  0.00  0.00    -0.302 N 
ATOM      3  C   UNL     1      -0.898   5.575  -3.229  0.00  0.00    +0.153 A 
ATOM      4  C   UNL     1       0.441   5.908  -3.297  0.00  0.00    +0.283 A 
ATOM      5  N   UNL     1       1.159   5.915  -2.157  0.00  0.00    -0.245 N 
ATOM      6  C   UNL     1       0.552   5.818  -0.948  0.00  0.00    +0.335 A 
ATOM      7  N   UNL     1      -0.797   5.732  -0.832  0.00  0.00    -0.263 N 
ATOM      8  C   UNL     1      -1.468   6.495   0.220  0.00  0.00    +0.137 C 
ATOM      9  O   UNL     1       1.273   6.208   0.020  0.00  0.00    -0.246 OA
ATOM     10  C   UNL     1       2.588   5.633  -2.274  0.00  0.00    +0.138 C 
ATOM     11  O   UNL     1       0.944   6.292  -4.376  0.00  0.00    -0.265 OA
ATOM     12  C   UNL     1      -1.472   5.446  -1.971  0.00  0.00    +0.170 A 
ATOM     13  N   UNL     1      -2.784   5.227  -2.206  0.00  0.00    -0.206 NA
ATOM     14  C   UNL     1      -2.948   5.105  -3.544  0.00  0.00    +0.180 A 
ENDROOT
TORSDOF 0
ENDMDL
MODEL 3
REMARK VINA RESULT:      -5.4      7.263      9.110
REMARK  Name = 
REMARK  0 active torsions:
REMARK  status: ('A' for Active; 'I' for Inactive)
REMARK                            x       y       z     vdW  Elec       q    Type
REMARK                         _______ _______ _______ _____ _____    ______ ____
ROOT
ATOM      1  C   UNL     1      -2.924   5.256  -3.696  0.00  0.00    +0.132 C 
ATOM      2  N   UNL     1      -1.893   5.646  -4.647  0.00  0.00    -0.302 N 
ATOM      3  C   UNL     1      -0.558   5.755  -4.426  0.00  0.00    +0.153 A 
ATOM      4  C   UNL     1       0.153   5.857  -3.246  0.00  0.00    +0.283 A 
ATOM      5  N   UNL     1       1.496   5.748  -3.295  0.00  0.00    -0.245 N 
ATOM      6  C   UNL     1       2.122   5.332  -4.424  0.00  0.00    +0.335 A 
ATOM      7  N   UNL     1       1.430   4.990  -5.540  0.00  0.00    -0.263 N 
ATOM      8  C   UNL     1       1.846   3.810  -6.298  0.00  0.00    +0.137 C 
ATOM      9  O   UNL     1       3.306   4.920  -4.231  0.00  0.00    -0.246 OA
ATOM     10  C   UNL     1       2.254   6.452  -2.264  0.00  0.00    +0.138 C 
ATOM     11  O   UNL     1      -0.445   5.941  -2.151  0.00  0.00    -0.265 OA
ATOM     12  C   UNL     1       0.129   5.366  -5.568  0.00  0.00    +0.170 A 
ATOM     13  N   UNL     1      -0.817   5.252  -6.525  0.00  0.00    -0.206 NA
ATOM     14  C   UNL     1      -1.990   5.680  -5.998  0.00  0.00    +0.180 A 
ENDROOT
TORSDOF 0
ENDMDL
MODEL 4
REMARK VINA RESULT:      -5.4      7.388      8.919
REMARK  Name = 
REMARK  0 active torsions:
REMARK  status: ('A' for Active; 'I' for Inactive)
REMARK                            x       y       z     vdW  Elec       q    Type
REMARK                         _______ _______ _______ _____ _____    ______ ____
ROOT
ATOM      1  C   UNL     1       2.910   6.164  -3.475  0.00  0.00    +0.132 C 
ATOM      2  N   UNL     1       2.252   5.235  -4.383  0.00  0.00    -0.302 N 
ATOM      3  C   UNL     1       0.933   5.175  -4.697  0.00  0.00    +0.153 A 
ATOM      4  C   UNL     1      -0.170   5.702  -4.053  0.00  0.00    +0.283 A 
ATOM      5  N   UNL     1      -1.359   5.669  -4.687  0.00  0.00    -0.245 N 
ATOM      6  C   UNL     1      -1.442   5.334  -5.999  0.00  0.00    +0.335 A 
ATOM      7  N   UNL     1      -0.339   5.041  -6.732  0.00  0.00    -0.263 N 
ATOM      8  C   UNL     1      -0.235   5.560  -8.096  0.00  0.00    +0.137 C 
ATOM      9  O   UNL     1      -2.523   5.699  -6.553  0.00  0.00    -0.246 OA
ATOM     10  C   UNL     1      -2.554   5.612  -3.849  0.00  0.00    +0.138 C 
ATOM     11  O   UNL     1      -0.043   6.288  -2.956  0.00  0.00    -0.265 OA
ATOM     12  C   UNL     1       0.795   4.807  -6.028  0.00  0.00    +0.170 A 
ATOM     13  N   UNL     1       2.032   4.432  -6.419  0.00  0.00    -0.206 NA
ATOM     14  C   UNL     1       2.834   4.458  -5.327  0.00  0.00    +0.180 A 
ENDROOT
TORSDOF 0
ENDMDL
MODEL 5
REMARK VINA RESULT:      -5.4      2.544      4.429
REMARK  Name = 
REMARK  0 active torsions:
REMARK  status: ('A' for Active; 'I' for Inactive)
REMARK                            x       y       z     vdW  Elec       q    Type
REMARK                         _______ _______ _______ _____ _____    ______ ____
ROOT
ATOM      1  C   UNL     1       7.148   5.276 -11.925  0.00  0.00    +0.132 C 
ATOM      2  N   UNL     1       6.279   5.675 -10.827  0.00  0.00    -0.302 N 
ATOM      3  C   UNL     1       4.926   5.783 -10.836  0.00  0.00    +0.153 A 
ATOM      4  C   UNL     1       4.038   5.876 -11.891  0.00  0.00    +0.283 A 
ATOM      5  N   UNL     1       2.720   5.769 -11.630  0.00  0.00    -0.245 N 
ATOM      6  C   UNL     1       2.279   5.363 -10.413  0.00  0.00    +0.335 A 
ATOM      7  N   UNL     1       3.137   5.029  -9.418  0.00  0.00    -0.263 N 
ATOM      8  C   UNL     1       2.847   3.855  -8.595  0.00  0.00    +0.137 C 
ATOM      9  O   UNL     1       1.079   4.951 -10.415  0.00  0.00    -0.246 OA
ATOM     10  C   UNL     1       1.809   6.466 -12.535  0.00  0.00    +0.138 C 
ATOM     11  O   UNL     1       4.456   5.952 -13.067  0.00  0.00    -0.265 OA
ATOM     12  C   UNL     1       4.427   5.403  -9.597  0.00  0.00    +0.170 A 
ATOM     13  N   UNL     1       5.512   5.296  -8.800  0.00  0.00    -0.206 NA
ATOM     14  C   UNL     1       6.587   5.718  -9.509  0.00  0.00    +0.180 A 
ENDROOT
TORSDOF 0
ENDMDL
MODEL 6
REMARK VINA RESULT:      -5.3      3.226      5.460
REMARK  Name = 
REMARK  0 active torsions:
REMARK  status: ('A' for Active; 'I' for Inactive)
REMARK                            x       y       z     vdW  Elec       q    Type
REMARK                         _______ _______ _______ _____ _____    ______ ____
ROOT
ATOM      1  C   UNL     1       4.631   5.396 -13.566  0.00  0.00    +0.132 C 
ATOM      2  N   UNL     1       4.514   5.723 -12.152  0.00  0.00    -0.302 N 
ATOM      3  C   UNL     1       3.378   5.920 -11.437  0.00  0.00    +0.153 A 
ATOM      4  C   UNL     1       2.088   6.191 -11.853  0.00  0.00    +0.283 A 
ATOM      5  N   UNL     1       1.097   6.141 -10.941  0.00  0.00    -0.245 N 
ATOM      6  C   UNL     1       1.311   5.628  -9.704  0.00  0.00    +0.335 A 
ATOM      7  N   UNL     1       2.516   5.127  -9.337  0.00  0.00    -0.263 N 
ATOM      8  C   UNL     1       2.563   3.888  -8.561  0.00  0.00    +0.137 C 
ATOM      9  O   UNL     1       0.248   5.298  -9.095  0.00  0.00    -0.246 OA
ATOM     10  C   UNL     1      -0.064   6.995 -11.180  0.00  0.00    +0.138 C 
ATOM     11  O   UNL     1       1.838   6.373 -13.064  0.00  0.00    -0.265 OA
ATOM     12  C   UNL     1       3.557   5.434 -10.148  0.00  0.00    +0.170 A 
ATOM     13  N   UNL     1       4.877   5.166 -10.056  0.00  0.00    -0.206 NA
ATOM     14  C   UNL     1       5.466   5.595 -11.198  0.00  0.00    +0.180 A 
ENDROOT
TORSDOF 0
ENDMDL
MODEL 7
REMARK VINA RESULT:      -5.2      7.079      9.831
REMARK  Name = 
REMARK  0 active torsions:
REMARK  status: ('A' for Active; 'I' for Inactive)
REMARK                            x       y       z     vdW  Elec       q    Type
REMARK                         _______ _______ _______ _____ _____    ______ ____
ROOT
ATOM      1  C   UNL     1       2.177   3.837  -6.729  0.00  0.00    +0.132 C 
ATOM      2  N   UNL     1       2.188   4.804  -5.641  0.00  0.00    -0.302 N 
ATOM      3  C   UNL     1       1.123   5.311  -4.970  0.00  0.00    +0.153 A 
ATOM      4  C   UNL     1      -0.220   5.335  -5.299  0.00  0.00    +0.283 A 
ATOM      5  N   UNL     1      -1.103   5.722  -4.359  0.00  0.00    -0.245 N 
ATOM      6  C   UNL     1      -0.726   5.872  -3.064  0.00  0.00    +0.335 A 
ATOM      7  N   UNL     1       0.544   5.621  -2.658  0.00  0.00    -0.263 N 
ATOM      8  C   UNL     1       0.757   4.911  -1.397  0.00  0.00    +0.137 C 
ATOM      9  O   UNL     1      -1.693   5.866  -2.244  0.00  0.00    -0.246 OA
ATOM     10  C   UNL     1      -2.339   6.344  -4.828  0.00  0.00    +0.138 C 
ATOM     11  O   UNL     1      -0.608   4.908  -6.409  0.00  0.00    -0.265 OA
ATOM     12  C   UNL     1       1.469   5.509  -3.641  0.00  0.00    +0.170 A 
ATOM     13  N   UNL     1       2.807   5.331  -3.597  0.00  0.00    -0.206 NA
ATOM     14  C   UNL     1       3.242   5.162  -4.869  0.00  0.00    +0.180 A 
ENDROOT
TORSDOF 0
ENDMDL
MODEL 8
REMARK VINA RESULT:      -5.2      2.201      3.764
REMARK  Name = 
REMARK  0 active torsions:
REMARK  status: ('A' for Active; 'I' for Inactive)
REMARK                            x       y       z     vdW  Elec       q    Type
REMARK                         _______ _______ _______ _____ _____    ______ ____
ROOT
ATOM      1  C   UNL     1       7.560   6.788 -10.470  0.00  0.00    +0.132 C 
ATOM      2  N   UNL     1       6.887   5.862 -11.370  0.00  0.00    -0.302 N 
ATOM      3  C   UNL     1       5.554   5.732 -11.582  0.00  0.00    +0.153 A 
ATOM      4  C   UNL     1       4.476   6.158 -10.829  0.00  0.00    +0.283 A 
ATOM      5  N   UNL     1       3.244   6.078 -11.369  0.00  0.00    -0.245 N 
ATOM      6  C   UNL     1       3.075   5.799 -12.685  0.00  0.00    +0.335 A 
ATOM      7  N   UNL     1       4.130   5.611 -13.516  0.00  0.00    -0.263 N 
ATOM      8  C   UNL     1       4.093   6.198 -14.856  0.00  0.00    +0.137 C 
ATOM      9  O   UNL     1       1.933   6.119 -13.134  0.00  0.00    -0.246 OA
ATOM     10  C   UNL     1       2.127   5.906 -10.443  0.00  0.00    +0.138 C 
ATOM     11  O   UNL     1       4.657   6.699  -9.716  0.00  0.00    -0.265 OA
ATOM     12  C   UNL     1       5.330   5.418 -12.916  0.00  0.00    +0.170 A 
ATOM     13  N   UNL     1       6.552   5.141 -13.421  0.00  0.00    -0.206 NA
ATOM     14  C   UNL     1       7.436   5.168 -12.396  0.00  0.00    +0.180 A 
ENDROOT
TORSDOF 0
ENDMDL
MODEL 9
REMARK VINA RESULT:      -5.1      1.624      3.698
REMARK  Name = 
REMARK  0 active torsions:
REMARK  status: ('A' for Active; 'I' for Inactive)
REMARK                            x       y       z     vdW  Elec       q    Type
REMARK                         _______ _______ _______ _____ _____    ______ ____
ROOT
ATOM      1  C   UNL     1       8.482   6.340 -12.102  0.00  0.00    +0.132 C 
ATOM      2  N   UNL     1       7.274   5.541 -12.252  0.00  0.00    -0.302 N 
ATOM      3  C   UNL     1       6.253   5.407 -11.369  0.00  0.00    +0.153 A 
ATOM      4  C   UNL     1       6.189   5.685 -10.017  0.00  0.00    +0.283 A 
ATOM      5  N   UNL     1       4.986   5.652  -9.411  0.00  0.00    -0.245 N 
ATOM      6  C   UNL     1       3.842   5.569 -10.135  0.00  0.00    +0.335 A 
ATOM      7  N   UNL     1       3.855   5.537 -11.490  0.00  0.00    -0.263 N 
ATOM      8  C   UNL     1       2.862   6.316 -12.229  0.00  0.00    +0.137 C 
ATOM      9  O   UNL     1       2.804   5.920  -9.495  0.00  0.00    -0.246 OA
ATOM     10  C   UNL     1       4.970   5.313  -7.990  0.00  0.00    +0.138 C 
ATOM     11  O   UNL     1       7.210   6.059  -9.399  0.00  0.00    -0.265 OA
ATOM     12  C   UNL     1       5.057   5.290 -12.065  0.00  0.00    +0.170 A 
ATOM     13  N   UNL     1       5.418   5.126 -13.356  0.00  0.00    -0.206 NA
ATOM     14  C   UNL     1       6.768   5.024 -13.397  0.00  0.00    +0.180 A 
ENDROOT
TORSDOF 0
ENDMDL
