MODEL 1
REMARK VINA RESULT:      -6.8      0.000      0.000
REMARK  Name = 
REMARK  0 active torsions:
REMARK  status: ('A' for Active; 'I' for Inactive)
REMARK                            x       y       z     vdW  Elec       q    Type
REMARK                         _______ _______ _______ _____ _____    ______ ____
ROOT
ATOM      1  C   UNL     1      -2.798   5.769  -6.670  0.00  0.00    +0.000 C 
ATOM      2  C   UNL     1      -1.937   5.595  -5.454  0.00  0.00    +0.001 C 
ATOM      3  C   UNL     1      -1.310   5.645  -6.815  0.00  0.00    +0.000 C 
ATOM      4  C   UNL     1       0.178   5.522  -6.960  0.00  0.00    +0.001 C 
ATOM      5  C   UNL     1       1.038   5.348  -5.744  0.00  0.00    +0.000 C 
ATOM      6  C   UNL     1       0.411   5.298  -4.382  0.00  0.00    +0.001 C 
ATOM      7  C   UNL     1      -0.217   5.248  -3.021  0.00  0.00    +0.018 C 
ATOM      8  C   UNL     1      -1.705   5.371  -2.876  0.00  0.00    +0.077 C 
ATOM      9  N   UNL     1      -2.332   5.320  -1.514  0.00  0.00    -0.134 NA
ATOM     10  C   UNL     1       0.805   5.572  -8.322  0.00  0.00    +0.000 C 
ATOM     11  C   UNL     1      -1.044   5.564  -6.091  0.00  0.00    +0.018 C 
ATOM     12  C   UNL     1      -2.565   5.544  -4.092  0.00  0.00    +0.018 C 
ATOM     13  C   UNL     1      -0.450   5.472  -5.599  0.00  0.00    +0.000 C 
ENDROOT
TORSDOF 0
ENDMDL
MODEL 2
REMARK VINA RESULT:      -6.8      0.538      2.251
REMARK  Name = 
REMARK  0 active torsions:
REMARK  status: ('A' for Active; 'I' for Inactive)
REMARK                            x       y       z     vdW  Elec       q    Type
REMARK                         _______ _______ _______ _____ _____    ______ ____
ROOT
ATOM      1  C   UNL     1       1.540   5.356  -4.952  0.00  0.00    +0.000 C 
ATOM      2  C   UNL     1       0.075   5.389  -4.628  0.00  0.00    +0.001 C 
ATOM      3  C   UNL     1       0.528   5.431  -6.057  0.00  0.00    +0.000 C 
ATOM      4  C   UNL     1      -0.483   5.506  -7.162  0.00  0.00    +0.001 C 
ATOM      5  C   UNL     1      -1.948   5.539  -6.838  0.00  0.00    +0.000 C 
ATOM      6  C   UNL     1      -2.401   5.497  -5.409  0.00  0.00    +0.001 C 
ATOM      7  C   UNL     1      -2.854   5.455  -3.979  0.00  0.00    +0.018 C 
ATOM      8  C   UNL     1      -1.842   5.380  -2.874  0.00  0.00    +0.077 C 
ATOM      9  N   UNL     1      -2.295   5.338  -1.445  0.00  0.00    -0.134 NA
ATOM     10  C   UNL     1      -0.031   5.548  -8.591  0.00  0.00    +0.000 C 
ATOM     11  C   UNL     1      -0.161   5.439  -5.699  0.00  0.00    +0.018 C 
ATOM     12  C   UNL     1      -0.378   5.347  -3.199  0.00  0.00    +0.018 C 
ATOM     13  C   UNL     1      -0.936   5.464  -5.733  0.00  0.00    +0.000 C 
ENDROOT
TORSDOF 0
ENDMDL
MODEL 3
REMARK VINA RESULT:      -6.6      2.252      3.766
REMARK  Name = 
REMARK  0 active torsions:
REMARK  status: ('A' for Active; 'I' for Inactive)
REMARK                            x       y       z     vdW  Elec       q    Type
REMARK                         _______ _______ _______ _____ _____    ______ ____
ROOT
ATOM      1  C   UNL     1      -2.780   5.978  -6.471  0.00  0.00    +0.000 C 
ATOM      2  C   UNL     1      -1.394   5.630  -6.012  0.00  0.00    +0.001 C 
ATOM      3  C   UNL     1      -2.444   6.006  -5.009  0.00  0.00    +0.000 C 
ATOM      4  C   UNL     1      -2.109   6.034  -3.548  0.00  0.00    +0.001 C 
ATOM      5  C   UNL     1      -0.724   5.686  -3.089  0.00  0.00    +0.000 C 
ATOM      6  C   UNL     1       0.326   5.309  -4.092  0.00  0.00    +0.001 C 
ATOM      7  C   UNL     1       1.376   4.933  -5.095  0.00  0.00    +0.018 C 
ATOM      8  C   UNL     1       1.040   4.905  -6.557  0.00  0.00    +0.077 C 
ATOM      9  N   UNL     1       2.091   4.528  -7.559  0.00  0.00    -0.134 NA
ATOM     10  C   UNL     1      -3.159   6.411  -2.545  0.00  0.00    +0.000 C 
ATOM     11  C   UNL     1      -1.697   5.801  -4.971  0.00  0.00    +0.018 C 
ATOM     12  C   UNL     1      -0.345   5.253  -7.015  0.00  0.00    +0.018 C 
ATOM     13  C   UNL     1      -1.059   5.658  -4.551  0.00  0.00    +0.000 C 
ENDROOT
TORSDOF 0
ENDMDL
MODEL 4
REMARK VINA RESULT:      -6.5      7.514      9.735
REMARK  Name = 
REMARK  0 active torsions:
REMARK  status: ('A' for Active; 'I' for Inactive)
REMARK                            x       y       z     vdW  Elec       q    Type
REMARK                         _______ _______ _______ _____ _____    ______ ____
ROOT
ATOM      1  C   UNL     1       7.352   5.774  -9.062  0.00  0.00    +0.000 C 
ATOM      2  C   UNL     1       6.312   5.719 -10.142  0.00  0.00    +0.001 C 
ATOM      3  C   UNL     1       7.765   5.794 -10.504  0.00  0.00    +0.000 C 
ATOM      4  C   UNL     1       8.179   5.814 -11.945  0.00  0.00    +0.001 C 
ATOM      5  C   UNL     1       7.138   5.759 -13.025  0.00  0.00    +0.000 C 
ATOM      6  C   UNL     1       5.685   5.684 -12.663  0.00  0.00    +0.001 C 
ATOM      7  C   UNL     1       4.231   5.609 -12.301  0.00  0.00    +0.018 C 
ATOM      8  C   UNL     1       3.818   5.589 -10.858  0.00  0.00    +0.077 C 
ATOM      9  N   UNL     1       2.364   5.514 -10.497  0.00  0.00    -0.134 NA
ATOM     10  C   UNL     1       9.632   5.889 -12.308  0.00  0.00    +0.000 C 
ATOM     11  C   UNL     1       7.101   5.759 -10.904  0.00  0.00    +0.018 C 
ATOM     12  C   UNL     1       4.858   5.644  -9.780  0.00  0.00    +0.018 C 
ATOM     13  C   UNL     1       6.725   5.739 -11.583  0.00  0.00    +0.000 C 
ENDROOT
TORSDOF 0
ENDMDL
MODEL 5
REMARK VINA RESULT:      -6.4      2.275      4.370
REMARK  Name = 
REMARK  0 active torsions:
REMARK  status: ('A' for Active; 'I' for Inactive)
REMARK                            x       y       z     vdW  Elec       q    Type
REMARK                         _______ _______ _______ _____ _____    ______ ____
ROOT
ATOM      1  C   UNL     1       0.342   5.271  -2.779  0.00  0.00    +0.000 C 
ATOM      2  C   UNL     1       0.074   5.305  -4.255  0.00  0.00    +0.001 C 
ATOM      3  C   UNL     1      -1.016   5.657  -3.286  0.00  0.00    +0.000 C 
ATOM      4  C   UNL     1      -2.373   6.043  -3.792  0.00  0.00    +0.001 C 
ATOM      5  C   UNL     1      -2.642   6.077  -5.268  0.00  0.00    +0.000 C 
ATOM      6  C   UNL     1      -1.552   5.725  -6.237  0.00  0.00    +0.001 C 
ATOM      7  C   UNL     1      -0.463   5.373  -7.206  0.00  0.00    +0.018 C 
ATOM      8  C   UNL     1       0.896   4.987  -6.699  0.00  0.00    +0.077 C 
ATOM      9  N   UNL     1       1.985   4.635  -7.668  0.00  0.00    -0.134 NA
ATOM     10  C   UNL     1      -3.463   6.395  -2.824  0.00  0.00    +0.000 C 
ATOM     11  C   UNL     1      -0.961   5.617  -4.059  0.00  0.00    +0.018 C 
ATOM     12  C   UNL     1       1.164   4.953  -5.223  0.00  0.00    +0.018 C 
ATOM     13  C   UNL     1      -1.284   5.691  -4.761  0.00  0.00    +0.000 C 
ENDROOT
TORSDOF 0
ENDMDL
MODEL 6
REMARK VINA RESULT:      -6.3      7.199      9.803
REMARK  Name = 
REMARK  0 active torsions:
REMARK  status: ('A' for Active; 'I' for Inactive)
REMARK                            x       y       z     vdW  Elec       q    Type
REMARK                         _______ _______ _______ _____ _____    ______ ____
ROOT
ATOM      1  C   UNL     1       7.806   6.009  -9.447  0.00  0.00    +0.000 C 
ATOM      2  C   UNL     1       6.844   5.815 -10.581  0.00  0.00    +0.001 C 
ATOM      3  C   UNL     1       6.352   5.769  -9.165  0.00  0.00    +0.000 C 
ATOM      4  C   UNL     1       4.899   5.530  -8.883  0.00  0.00    +0.001 C 
ATOM      5  C   UNL     1       3.937   5.335 -10.018  0.00  0.00    +0.000 C 
ATOM      6  C   UNL     1       4.428   5.381 -11.434  0.00  0.00    +0.001 C 
ATOM      7  C   UNL     1       4.920   5.427 -12.851  0.00  0.00    +0.018 C 
ATOM      8  C   UNL     1       6.374   5.666 -13.132  0.00  0.00    +0.077 C 
ATOM      9  N   UNL     1       6.865   5.712 -14.549  0.00  0.00    -0.134 NA
ATOM     10  C   UNL     1       4.407   5.484  -7.467  0.00  0.00    +0.000 C 
ATOM     11  C   UNL     1       6.022   5.694  -9.863  0.00  0.00    +0.018 C 
ATOM     12  C   UNL     1       7.336   5.861 -11.998  0.00  0.00    +0.018 C 
ATOM     13  C   UNL     1       5.391   5.575 -10.300  0.00  0.00    +0.000 C 
ENDROOT
TORSDOF 0
ENDMDL
MODEL 7
REMARK VINA RESULT:      -6.2      5.398      6.054
REMARK  Name = 
REMARK  0 active torsions:
REMARK  status: ('A' for Active; 'I' for Inactive)
REMARK                            x       y       z     vdW  Elec       q    Type
REMARK                         _______ _______ _______ _____ _____    ______ ____
ROOT
ATOM      1  C   UNL     1       5.263   8.251  -4.136  0.00  0.00    +0.000 C 
ATOM      2  C   UNL     1       4.816   7.147  -3.223  0.00  0.00    +0.001 C 
ATOM      3  C   UNL     1       4.848   6.927  -4.706  0.00  0.00    +0.000 C 
ATOM      4  C   UNL     1       4.433   5.603  -5.276  0.00  0.00    +0.001 C 
ATOM      5  C   UNL     1       3.986   4.500  -4.363  0.00  0.00    +0.000 C 
ATOM      6  C   UNL     1       3.954   4.721  -2.880  0.00  0.00    +0.001 C 
ATOM      7  C   UNL     1       3.922   4.942  -1.396  0.00  0.00    +0.018 C 
ATOM      8  C   UNL     1       4.337   6.266  -0.826  0.00  0.00    +0.077 C 
ATOM      9  N   UNL     1       4.305   6.486   0.657  0.00  0.00    -0.134 NA
ATOM     10  C   UNL     1       4.465   5.382  -6.759  0.00  0.00    +0.000 C 
ATOM     11  C   UNL     1       4.654   6.495  -4.091  0.00  0.00    +0.018 C 
ATOM     12  C   UNL     1       4.784   7.368  -1.739  0.00  0.00    +0.018 C 
ATOM     13  C   UNL     1       4.401   5.824  -3.793  0.00  0.00    +0.000 C 
ENDROOT
TORSDOF 0
ENDMDL
MODEL 8
REMARK VINA RESULT:      -6.1      6.140      8.584
REMARK  Name = 
REMARK  0 active torsions:
REMARK  status: ('A' for Active; 'I' for Inactive)
REMARK                            x       y       z     vdW  Elec       q    Type
REMARK                         _______ _______ _______ _____ _____    ______ ____
ROOT
ATOM      1  C   UNL     1       7.728   5.863  -9.204  0.00  0.00    +0.000 C 
ATOM      2  C   UNL     1       6.269   5.629  -9.468  0.00  0.00    +0.001 C 
ATOM      3  C   UNL     1       7.203   5.903 -10.610  0.00  0.00    +0.000 C 
ATOM      4  C   UNL     1       6.680   5.942 -12.014  0.00  0.00    +0.001 C 
ATOM      5  C   UNL     1       5.222   5.709 -12.278  0.00  0.00    +0.000 C 
ATOM      6  C   UNL     1       4.287   5.436 -11.137  0.00  0.00    +0.001 C 
ATOM      7  C   UNL     1       3.353   5.163  -9.996  0.00  0.00    +0.018 C 
ATOM      8  C   UNL     1       3.877   5.123  -8.591  0.00  0.00    +0.077 C 
ATOM      9  N   UNL     1       2.942   4.850  -7.450  0.00  0.00    -0.134 NA
ATOM     10  C   UNL     1       7.615   6.215 -13.155  0.00  0.00    +0.000 C 
ATOM     11  C   UNL     1       6.443   5.762 -10.544  0.00  0.00    +0.018 C 
ATOM     12  C   UNL     1       5.335   5.356  -8.327  0.00  0.00    +0.018 C 
ATOM     13  C   UNL     1       5.746   5.669 -10.873  0.00  0.00    +0.000 C 
ENDROOT
TORSDOF 0
ENDMDL
MODEL 9
REMARK VINA RESULT:      -6.0      7.348      9.716
REMARK  Name = 
REMARK  0 active torsions:
REMARK  status: ('A' for Active; 'I' for Inactive)
REMARK                            x       y       z     vdW  Elec       q    Type
REMARK                         _______ _______ _______ _____ _____    ______ ____
ROOT
ATOM      1  C   UNL     1       5.756   5.409  -8.604  0.00  0.00    +0.000 C 
ATOM      2  C   UNL     1       6.174   5.564 -10.037  0.00  0.00    +0.001 C 
ATOM      3  C   UNL     1       4.719   5.482  -9.686  0.00  0.00    +0.000 C 
ATOM      4  C   UNL     1       3.681   5.555 -10.766  0.00  0.00    +0.001 C 
ATOM      5  C   UNL     1       4.099   5.710 -12.199  0.00  0.00    +0.000 C 
ATOM      6  C   UNL     1       5.555   5.792 -12.550  0.00  0.00    +0.001 C 
ATOM      7  C   UNL     1       7.011   5.874 -12.901  0.00  0.00    +0.018 C 
ATOM      8  C   UNL     1       8.049   5.801 -11.820  0.00  0.00    +0.077 C 
ATOM      9  N   UNL     1       9.504   5.884 -12.173  0.00  0.00    -0.134 NA
ATOM     10  C   UNL     1       2.225   5.472 -10.415  0.00  0.00    +0.000 C 
ATOM     11  C   UNL     1       5.120   5.560 -10.345  0.00  0.00    +0.018 C 
ATOM     12  C   UNL     1       7.630   5.646 -10.388  0.00  0.00    +0.018 C 
ATOM     13  C   UNL     1       5.137   5.637 -11.117  0.00  0.00    +0.000 C 
ENDROOT
TORSDOF 0
ENDMDL
