MODEL 1
REMARK VINA RESULT:      -6.6      0.000      0.000
REMARK  Name = 
REMARK  1 active torsions:
REMARK  status: ('A' for Active; 'I' for Inactive)
REMARK    1  A    between atoms: C_2  and  C_4
REMARK                            x       y       z     vdW  Elec       q    Type
REMARK                         _______ _______ _______ _____ _____    ______ ____
ROOT
ATOM      1  C   UNL     1       5.206   6.020 -10.589  0.00  0.00    +0.016 C 
ATOM      2  C   UNL     1       5.439   5.281 -11.863  0.00  0.00    +0.001 C 
ATOM      3  C   UNL     1       6.762   5.682 -12.446  0.00  0.00    +0.000 C 
ATOM      4  C   UNL     1       7.826   5.321 -11.455  0.00  0.00    +0.000 C 
ATOM      5  C   UNL     1       7.541   6.024 -10.147  0.00  0.00    +0.000 C 
ATOM      6  C   UNL     1       7.535   7.508 -10.488  0.00  0.00    +0.000 C 
ATOM      7  C   UNL     1       6.415   7.884 -11.416  0.00  0.00    +0.000 C 
ATOM      8  C   UNL     1       6.658   7.160 -12.725  0.00  0.00    +0.000 C 
ATOM      9  C   UNL     1       6.197   5.613  -9.562  0.00  0.00    +0.001 C 
ATOM     10  C   UNL     1       5.083   7.482 -10.816  0.00  0.00    +0.001 C 
ENDROOT
BRANCH   1  12
ATOM     11  C   UNL     1       3.476   6.691  -9.131  0.00  0.00    +0.020 C 
ATOM     12  C   UNL     1       3.749   5.431 -10.148  0.00  0.00    +0.092 C 
ATOM     13  N   UNL     1       4.366   4.550  -9.000  0.00  0.00    -0.133 NA
ENDBRANCH   1  12
TORSDOF 1
ENDMDL
MODEL 2
REMARK VINA RESULT:      -6.4      0.883      2.295
REMARK  Name = 
REMARK  1 active torsions:
REMARK  status: ('A' for Active; 'I' for Inactive)
REMARK    1  A    between atoms: C_2  and  C_4
REMARK                            x       y       z     vdW  Elec       q    Type
REMARK                         _______ _______ _______ _____ _____    ______ ____
ROOT
ATOM      1  C   UNL     1       5.158   6.112 -10.440  0.00  0.00    +0.016 C 
ATOM      2  C   UNL     1       5.240   7.564 -10.769  0.00  0.00    +0.001 C 
ATOM      3  C   UNL     1       6.510   7.843 -11.517  0.00  0.00    +0.000 C 
ATOM      4  C   UNL     1       6.480   7.042 -12.783  0.00  0.00    +0.000 C 
ATOM      5  C   UNL     1       6.329   5.578 -12.438  0.00  0.00    +0.000 C 
ATOM      6  C   UNL     1       7.534   5.252 -11.565  0.00  0.00    +0.000 C 
ATOM      7  C   UNL     1       7.519   5.992 -10.258  0.00  0.00    +0.000 C 
ATOM      8  C   UNL     1       7.630   7.468 -10.580  0.00  0.00    +0.000 C 
ATOM      9  C   UNL     1       5.039   5.303 -11.678  0.00  0.00    +0.001 C 
ATOM     10  C   UNL     1       6.236   5.699  -9.506  0.00  0.00    +0.001 C 
ENDROOT
BRANCH   1  12
ATOM     11  C   UNL     1       3.965   4.484  -9.216  0.00  0.00    +0.020 C 
ATOM     12  C   UNL     1       3.729   6.049  -9.654  0.00  0.00    +0.092 C 
ATOM     13  N   UNL     1       2.944   5.639 -10.954  0.00  0.00    -0.133 NA
ENDBRANCH   1  12
TORSDOF 1
ENDMDL
MODEL 3
REMARK VINA RESULT:      -6.4      0.738      2.170
REMARK  Name = 
REMARK  1 active torsions:
REMARK  status: ('A' for Active; 'I' for Inactive)
REMARK    1  A    between atoms: C_2  and  C_4
REMARK                            x       y       z     vdW  Elec       q    Type
REMARK                         _______ _______ _______ _____ _____    ______ ____
ROOT
ATOM      1  C   UNL     1       5.249   5.866 -10.758  0.00  0.00    +0.016 C 
ATOM      2  C   UNL     1       6.361   5.550  -9.816  0.00  0.00    +0.001 C 
ATOM      3  C   UNL     1       7.650   6.096 -10.353  0.00  0.00    +0.000 C 
ATOM      4  C   UNL     1       7.502   7.582 -10.474  0.00  0.00    +0.000 C 
ATOM      5  C   UNL     1       6.330   7.890 -11.378  0.00  0.00    +0.000 C 
ATOM      6  C   UNL     1       6.669   7.224 -12.705  0.00  0.00    +0.000 C 
ATOM      7  C   UNL     1       6.733   5.726 -12.601  0.00  0.00    +0.000 C 
ATOM      8  C   UNL     1       7.879   5.394 -11.667  0.00  0.00    +0.000 C 
ATOM      9  C   UNL     1       5.025   7.331 -10.827  0.00  0.00    +0.001 C 
ATOM     10  C   UNL     1       5.425   5.183 -12.065  0.00  0.00    +0.001 C 
ENDROOT
BRANCH   1  12
ATOM     11  C   UNL     1       2.898   5.988 -10.929  0.00  0.00    +0.020 C 
ATOM     12  C   UNL     1       3.980   5.196  -9.981  0.00  0.00    +0.092 C 
ATOM     13  N   UNL     1       3.953   6.327  -8.887  0.00  0.00    -0.133 NA
ENDBRANCH   1  12
TORSDOF 1
ENDMDL
MODEL 4
REMARK VINA RESULT:      -6.3      8.847     10.373
REMARK  Name = 
REMARK  1 active torsions:
REMARK  status: ('A' for Active; 'I' for Inactive)
REMARK    1  A    between atoms: C_2  and  C_4
REMARK                            x       y       z     vdW  Elec       q    Type
REMARK                         _______ _______ _______ _____ _____    ______ ____
ROOT
ATOM      1  C   UNL     1      -1.818   6.108  -3.174  0.00  0.00    +0.016 C 
ATOM      2  C   UNL     1      -2.811   5.417  -4.045  0.00  0.00    +0.001 C 
ATOM      3  C   UNL     1      -2.598   5.822  -5.474  0.00  0.00    +0.000 C 
ATOM      4  C   UNL     1      -1.213   5.409  -5.865  0.00  0.00    +0.000 C 
ATOM      5  C   UNL     1      -0.219   6.064  -4.932  0.00  0.00    +0.000 C 
ATOM      6  C   UNL     1      -0.454   7.560  -5.092  0.00  0.00    +0.000 C 
ATOM      7  C   UNL     1      -1.815   7.987  -4.619  0.00  0.00    +0.000 C 
ATOM      8  C   UNL     1      -2.830   7.311  -5.518  0.00  0.00    +0.000 C 
ATOM      9  C   UNL     1      -0.442   5.649  -3.484  0.00  0.00    +0.001 C 
ATOM     10  C   UNL     1      -2.017   7.579  -3.174  0.00  0.00    +0.001 C 
ENDROOT
BRANCH   1  12
ATOM     11  C   UNL     1      -2.157   7.012  -1.020  0.00  0.00    +0.020 C 
ATOM     12  C   UNL     1      -2.228   5.522  -1.707  0.00  0.00    +0.092 C 
ATOM     13  N   UNL     1      -0.735   5.202  -1.331  0.00  0.00    -0.133 NA
ENDBRANCH   1  12
TORSDOF 1
ENDMDL
MODEL 5
REMARK VINA RESULT:      -6.3      8.880     10.564
REMARK  Name = 
REMARK  1 active torsions:
REMARK  status: ('A' for Active; 'I' for Inactive)
REMARK    1  A    between atoms: C_2  and  C_4
REMARK                            x       y       z     vdW  Elec       q    Type
REMARK                         _______ _______ _______ _____ _____    ______ ____
ROOT
ATOM      1  C   UNL     1      -1.876   5.922  -3.189  0.00  0.00    +0.016 C 
ATOM      2  C   UNL     1      -2.039   7.404  -3.234  0.00  0.00    +0.001 C 
ATOM      3  C   UNL     1      -1.811   7.895  -4.634  0.00  0.00    +0.000 C 
ATOM      4  C   UNL     1      -2.835   7.250  -5.516  0.00  0.00    +0.000 C 
ATOM      5  C   UNL     1      -2.704   5.747  -5.410  0.00  0.00    +0.000 C 
ATOM      6  C   UNL     1      -1.277   5.444  -5.846  0.00  0.00    +0.000 C 
ATOM      7  C   UNL     1      -0.251   6.020  -4.912  0.00  0.00    +0.000 C 
ATOM      8  C   UNL     1      -0.389   7.527  -4.972  0.00  0.00    +0.000 C 
ATOM      9  C   UNL     1      -2.934   5.256  -3.987  0.00  0.00    +0.001 C 
ATOM     10  C   UNL     1      -0.484   5.513  -3.503  0.00  0.00    +0.001 C 
ENDROOT
BRANCH   1  12
ATOM     11  C   UNL     1      -1.911   7.192  -1.200  0.00  0.00    +0.020 C 
ATOM     12  C   UNL     1      -2.169   5.623  -1.611  0.00  0.00    +0.092 C 
ATOM     13  N   UNL     1      -0.672   5.232  -1.328  0.00  0.00    -0.133 NA
ENDBRANCH   1  12
TORSDOF 1
ENDMDL
MODEL 6
REMARK VINA RESULT:      -6.1      6.666      9.756
REMARK  Name = 
REMARK  1 active torsions:
REMARK  status: ('A' for Active; 'I' for Inactive)
REMARK    1  A    between atoms: C_2  and  C_4
REMARK                            x       y       z     vdW  Elec       q    Type
REMARK                         _______ _______ _______ _____ _____    ______ ____
ROOT
ATOM      1  C   UNL     1      -0.313   6.005  -4.831  0.00  0.00    +0.016 C 
ATOM      2  C   UNL     1      -0.449   7.490  -4.851  0.00  0.00    +0.001 C 
ATOM      3  C   UNL     1      -1.841   7.875  -4.446  0.00  0.00    +0.000 C 
ATOM      4  C   UNL     1      -2.069   7.368  -3.055  0.00  0.00    +0.000 C 
ATOM      5  C   UNL     1      -1.863   5.871  -3.035  0.00  0.00    +0.000 C 
ATOM      6  C   UNL     1      -2.871   5.319  -4.034  0.00  0.00    +0.000 C 
ATOM      7  C   UNL     1      -2.590   5.760  -5.443  0.00  0.00    +0.000 C 
ATOM      8  C   UNL     1      -2.754   7.266  -5.479  0.00  0.00    +0.000 C 
ATOM      9  C   UNL     1      -0.448   5.487  -3.448  0.00  0.00    +0.001 C 
ATOM     10  C   UNL     1      -1.185   5.360  -5.845  0.00  0.00    +0.001 C 
ENDROOT
BRANCH   1  12
ATOM     11  C   UNL     1       0.962   6.520  -6.750  0.00  0.00    +0.020 C 
ATOM     12  C   UNL     1       1.244   5.828  -5.288  0.00  0.00    +0.092 C 
ATOM     13  N   UNL     1       0.996   4.379  -5.849  0.00  0.00    -0.133 NA
ENDBRANCH   1  12
TORSDOF 1
ENDMDL
MODEL 7
REMARK VINA RESULT:      -6.1      6.606      9.787
REMARK  Name = 
REMARK  1 active torsions:
REMARK  status: ('A' for Active; 'I' for Inactive)
REMARK    1  A    between atoms: C_2  and  C_4
REMARK                            x       y       z     vdW  Elec       q    Type
REMARK                         _______ _______ _______ _____ _____    ______ ____
ROOT
ATOM      1  C   UNL     1      -0.333   6.071  -4.861  0.00  0.00    +0.016 C 
ATOM      2  C   UNL     1      -0.606   5.572  -3.483  0.00  0.00    +0.001 C 
ATOM      3  C   UNL     1      -2.013   5.915  -3.091  0.00  0.00    +0.000 C 
ATOM      4  C   UNL     1      -2.934   5.241  -4.061  0.00  0.00    +0.000 C 
ATOM      5  C   UNL     1      -2.603   5.704  -5.462  0.00  0.00    +0.000 C 
ATOM      6  C   UNL     1      -2.785   7.216  -5.431  0.00  0.00    +0.000 C 
ATOM      7  C   UNL     1      -1.803   7.899  -4.522  0.00  0.00    +0.000 C 
ATOM      8  C   UNL     1      -2.092   7.419  -3.114  0.00  0.00    +0.000 C 
ATOM      9  C   UNL     1      -1.173   5.355  -5.852  0.00  0.00    +0.001 C 
ATOM     10  C   UNL     1      -0.386   7.554  -4.930  0.00  0.00    +0.001 C 
ENDROOT
BRANCH   1  12
ATOM     11  C   UNL     1       1.423   6.594  -6.350  0.00  0.00    +0.020 C 
ATOM     12  C   UNL     1       1.213   5.590  -5.068  0.00  0.00    +0.092 C 
ATOM     13  N   UNL     1       0.798   4.386  -5.990  0.00  0.00    -0.133 NA
ENDBRANCH   1  12
TORSDOF 1
ENDMDL
MODEL 8
REMARK VINA RESULT:      -6.0      6.671      9.767
REMARK  Name = 
REMARK  1 active torsions:
REMARK  status: ('A' for Active; 'I' for Inactive)
REMARK    1  A    between atoms: C_2  and  C_4
REMARK                            x       y       z     vdW  Elec       q    Type
REMARK                         _______ _______ _______ _____ _____    ______ ____
ROOT
ATOM      1  C   UNL     1      -0.256   6.139  -4.745  0.00  0.00    +0.016 C 
ATOM      2  C   UNL     1      -1.149   5.462  -5.729  0.00  0.00    +0.001 C 
ATOM      3  C   UNL     1      -2.582   5.757  -5.398  0.00  0.00    +0.000 C 
ATOM      4  C   UNL     1      -2.775   7.240  -5.481  0.00  0.00    +0.000 C 
ATOM      5  C   UNL     1      -1.818   7.917  -4.527  0.00  0.00    +0.000 C 
ATOM      6  C   UNL     1      -2.163   7.356  -3.154  0.00  0.00    +0.000 C 
ATOM      7  C   UNL     1      -1.889   5.882  -3.046  0.00  0.00    +0.000 C 
ATOM      8  C   UNL     1      -2.812   5.184  -4.023  0.00  0.00    +0.000 C 
ATOM      9  C   UNL     1      -0.365   7.613  -4.869  0.00  0.00    +0.001 C 
ATOM     10  C   UNL     1      -0.438   5.596  -3.375  0.00  0.00    +0.001 C 
ENDROOT
BRANCH   1  12
ATOM     11  C   UNL     1       1.046   6.591  -6.661  0.00  0.00    +0.020 C 
ATOM     12  C   UNL     1       1.213   5.692  -5.297  0.00  0.00    +0.092 C 
ATOM     13  N   UNL     1       0.645   4.402  -5.995  0.00  0.00    -0.133 NA
ENDBRANCH   1  12
TORSDOF 1
ENDMDL
MODEL 9
REMARK VINA RESULT:      -5.7      5.217      6.770
REMARK  Name = 
REMARK  1 active torsions:
REMARK  status: ('A' for Active; 'I' for Inactive)
REMARK    1  A    between atoms: C_2  and  C_4
REMARK                            x       y       z     vdW  Elec       q    Type
REMARK                         _______ _______ _______ _____ _____    ______ ____
ROOT
ATOM      1  C   UNL     1       0.421   5.530  -6.412  0.00  0.00    +0.016 C 
ATOM      2  C   UNL     1       1.089   6.840  -6.164  0.00  0.00    +0.001 C 
ATOM      3  C   UNL     1       2.236   7.011  -7.116  0.00  0.00    +0.000 C 
ATOM      4  C   UNL     1       1.681   6.985  -8.508  0.00  0.00    +0.000 C 
ATOM      5  C   UNL     1       0.949   5.680  -8.724  0.00  0.00    +0.000 C 
ATOM      6  C   UNL     1       1.993   4.597  -8.487  0.00  0.00    +0.000 C 
ATOM      7  C   UNL     1       2.486   4.569  -7.068  0.00  0.00    +0.000 C 
ATOM      8  C   UNL     1       3.192   5.886  -6.815  0.00  0.00    +0.000 C 
ATOM      9  C   UNL     1      -0.212   5.513  -7.753  0.00  0.00    +0.001 C 
ATOM     10  C   UNL     1       1.322   4.389  -6.114  0.00  0.00    +0.001 C 
ENDROOT
BRANCH   1  12
ATOM     11  C   UNL     1      -1.937   5.632  -6.442  0.00  0.00    +0.020 C 
ATOM     12  C   UNL     1      -0.767   5.568  -5.293  0.00  0.00    +0.092 C 
ATOM     13  N   UNL     1      -0.706   7.135  -5.168  0.00  0.00    -0.133 NA
ENDBRANCH   1  12
TORSDOF 1
ENDMDL
