MODEL 1
REMARK VINA RESULT:      -8.6      0.000      0.000
REMARK  Name = 
REMARK  2 active torsions:
REMARK  status: ('A' for Active; 'I' for Inactive)
REMARK    1  A    between atoms: C_21  and  C_23
REMARK    2  A    between atoms: C_23  and  C_25
REMARK                            x       y       z     vdW  Elec       q    Type
REMARK                         _______ _______ _______ _____ _____    ______ ____
ROOT
ATOM      1  C   UNL     1       0.507   5.379  -8.039  0.00  0.00    +0.003 C 
ATOM      2  C   UNL     1       1.329   6.150  -7.321  0.00  0.00    +0.035 C 
ATOM      3  C   UNL     1       0.871   6.132  -5.911  0.00  0.00    +0.180 C 
ATOM      4  O   UNL     1       1.693   6.940  -5.180  0.00  0.00    -0.218 OA
ATOM      5  C   UNL     1       1.027   4.660  -5.530  0.00  0.00    +0.038 C 
ATOM      6  C   UNL     1       1.795   4.001  -6.672  0.00  0.00    +0.003 C 
ATOM      7  C   UNL     1       2.672   5.335  -6.916  0.00  0.00    +0.003 C 
ATOM      8  C   UNL     1       2.984   5.018  -8.540  0.00  0.00    +0.003 C 
ATOM      9  C   UNL     1       4.236   4.094  -8.181  0.00  0.00    +0.004 C 
ATOM     10  C   UNL     1       5.527   4.718  -8.370  0.00  0.00    +0.022 C 
ATOM     11  C   UNL     1       5.716   5.487  -9.622  0.00  0.00    -0.038 C 
ATOM     12  C   UNL     1       4.487   6.256 -10.012  0.00  0.00    +0.036 C 
ATOM     13  C   UNL     1       3.691   5.405 -10.887  0.00  0.00    +0.009 C 
ATOM     14  C   UNL     1       4.852   7.588 -10.526  0.00  0.00    -0.020 C 
ATOM     15  C   UNL     1       5.952   7.718 -11.271  0.00  0.00    +0.038 C 
ATOM     16  C   UNL     1       7.068   6.789 -11.060  0.00  0.00    +0.195 C 
ATOM     17  O   UNL     1       8.158   6.868 -11.675  0.00  0.00    -0.287 OA
ATOM     18  C   UNL     1       6.938   5.964  -9.852  0.00  0.00    +0.034 C 
ATOM     19  C   UNL     1       3.834   6.458  -8.562  0.00  0.00    +0.038 C 
ATOM     20  C   UNL     1       2.586   7.473  -9.125  0.00  0.00    +0.153 C 
ATOM     21  O   UNL     1       1.722   6.424  -9.782  0.00  0.00    -0.223 OA
ATOM     22  C   UNL     1       1.762   7.458  -7.711  0.00  0.00    +0.036 C 
ENDROOT
BRANCH   3  23
ATOM     23  C   UNL     1      -0.535   6.428  -5.639  0.00  0.00    +0.211 C 
ATOM     24  O   UNL     1      -1.217   5.478  -5.253  0.00  0.00    -0.291 OA
BRANCH  23  25
ATOM     25  C   UNL     1      -0.791   7.697  -4.874  0.00  0.00    +0.248 C 
ATOM     26  O   UNL     1      -2.117   8.067  -4.869  0.00  0.00    -0.212 OA
ENDBRANCH  23  25
ENDBRANCH   3  23
TORSDOF 2
ENDMDL
MODEL 2
REMARK VINA RESULT:      -8.5      2.901      4.505
REMARK  Name = 
REMARK  2 active torsions:
REMARK  status: ('A' for Active; 'I' for Inactive)
REMARK    1  A    between atoms: C_21  and  C_23
REMARK    2  A    between atoms: C_23  and  C_25
REMARK                            x       y       z     vdW  Elec       q    Type
REMARK                         _______ _______ _______ _____ _____    ______ ____
ROOT
ATOM      1  C   UNL     1       3.495   4.230  -4.568  0.00  0.00    +0.003 C 
ATOM      2  C   UNL     1       2.614   5.235  -4.600  0.00  0.00    +0.035 C 
ATOM      3  C   UNL     1       2.803   6.057  -3.381  0.00  0.00    +0.180 C 
ATOM      4  O   UNL     1       1.887   7.068  -3.397  0.00  0.00    -0.218 OA
ATOM      5  C   UNL     1       4.231   6.576  -3.548  0.00  0.00    +0.038 C 
ATOM      6  C   UNL     1       4.656   6.210  -4.967  0.00  0.00    +0.003 C 
ATOM      7  C   UNL     1       3.160   6.448  -5.528  0.00  0.00    +0.003 C 
ATOM      8  C   UNL     1       3.316   5.395  -6.832  0.00  0.00    +0.003 C 
ATOM      9  C   UNL     1       3.984   6.525  -7.741  0.00  0.00    +0.004 C 
ATOM     10  C   UNL     1       3.102   7.121  -8.720  0.00  0.00    +0.022 C 
ATOM     11  C   UNL     1       2.242   6.192  -9.491  0.00  0.00    -0.038 C 
ATOM     12  C   UNL     1       1.719   5.064  -8.649  0.00  0.00    +0.036 C 
ATOM     13  C   UNL     1       2.664   3.961  -8.750  0.00  0.00    +0.009 C 
ATOM     14  C   UNL     1       0.314   4.776  -8.987  0.00  0.00    -0.020 C 
ATOM     15  C   UNL     1      -0.078   4.860 -10.260  0.00  0.00    +0.038 C 
ATOM     16  C   UNL     1       0.615   5.790 -11.158  0.00  0.00    +0.195 C 
ATOM     17  O   UNL     1       0.282   5.974 -12.353  0.00  0.00    -0.287 OA
ATOM     18  C   UNL     1       1.515   6.726 -10.470  0.00  0.00    +0.034 C 
ATOM     19  C   UNL     1       1.734   5.781  -7.214  0.00  0.00    +0.038 C 
ATOM     20  C   UNL     1       0.965   4.486  -6.418  0.00  0.00    +0.153 C 
ATOM     21  O   UNL     1       2.130   3.527  -6.370  0.00  0.00    -0.223 OA
ATOM     22  C   UNL     1       1.226   5.086  -4.917  0.00  0.00    +0.036 C 
ENDROOT
BRANCH   3  23
ATOM     23  C   UNL     1       2.815   5.379  -2.086  0.00  0.00    +0.211 C 
ATOM     24  O   UNL     1       3.837   5.526  -1.414  0.00  0.00    -0.291 OA
BRANCH  23  25
ATOM     25  C   UNL     1       1.549   5.501  -1.283  0.00  0.00    +0.248 C 
ATOM     26  O   UNL     1       0.663   4.472  -1.511  0.00  0.00    -0.212 OA
ENDBRANCH  23  25
ENDBRANCH   3  23
TORSDOF 2
ENDMDL
MODEL 3
REMARK VINA RESULT:      -8.3      2.604      6.236
REMARK  Name = 
REMARK  2 active torsions:
REMARK  status: ('A' for Active; 'I' for Inactive)
REMARK    1  A    between atoms: C_21  and  C_23
REMARK    2  A    between atoms: C_23  and  C_25
REMARK                            x       y       z     vdW  Elec       q    Type
REMARK                         _______ _______ _______ _____ _____    ______ ____
ROOT
ATOM      1  C   UNL     1       2.144   7.229  -8.536  0.00  0.00    +0.003 C 
ATOM      2  C   UNL     1       1.968   5.926  -8.300  0.00  0.00    +0.035 C 
ATOM      3  C   UNL     1       2.120   5.196  -9.582  0.00  0.00    +0.180 C 
ATOM      4  O   UNL     1       1.915   3.868  -9.348  0.00  0.00    -0.218 OA
ATOM      5  C   UNL     1       3.571   5.493  -9.962  0.00  0.00    +0.038 C 
ATOM      6  C   UNL     1       4.204   6.162  -8.745  0.00  0.00    +0.003 C 
ATOM      7  C   UNL     1       3.332   5.256  -7.732  0.00  0.00    +0.003 C 
ATOM      8  C   UNL     1       3.364   6.366  -6.467  0.00  0.00    +0.003 C 
ATOM      9  C   UNL     1       4.776   5.827  -5.951  0.00  0.00    +0.004 C 
ATOM     10  C   UNL     1       4.714   4.966  -4.791  0.00  0.00    +0.022 C 
ATOM     11  C   UNL     1       3.824   5.402  -3.689  0.00  0.00    -0.038 C 
ATOM     12  C   UNL     1       2.550   6.019  -4.192  0.00  0.00    +0.036 C 
ATOM     13  C   UNL     1       2.772   7.453  -4.316  0.00  0.00    +0.009 C 
ATOM     14  C   UNL     1       1.407   5.587  -3.368  0.00  0.00    -0.020 C 
ATOM     15  C   UNL     1       1.572   5.442  -2.052  0.00  0.00    +0.038 C 
ATOM     16  C   UNL     1       2.899   5.086  -1.536  0.00  0.00    +0.195 C 
ATOM     17  O   UNL     1       3.135   4.878  -0.322  0.00  0.00    -0.287 OA
ATOM     18  C   UNL     1       3.852   4.673  -2.575  0.00  0.00    +0.034 C 
ATOM     19  C   UNL     1       2.438   5.271  -5.606  0.00  0.00    +0.038 C 
ATOM     20  C   UNL     1       0.901   5.911  -5.966  0.00  0.00    +0.153 C 
ATOM     21  O   UNL     1       1.319   7.318  -6.318  0.00  0.00    -0.223 OA
ATOM     22  C   UNL     1       0.902   5.380  -7.515  0.00  0.00    +0.036 C 
ENDROOT
BRANCH   3  23
ATOM     23  C   UNL     1       1.345   5.655 -10.733  0.00  0.00    +0.211 C 
ATOM     24  O   UNL     1       1.995   6.153 -11.652  0.00  0.00    -0.291 OA
BRANCH  23  25
ATOM     25  C   UNL     1       0.270   4.714 -11.202  0.00  0.00    +0.248 C 
ATOM     26  O   UNL     1       0.356   4.422 -12.545  0.00  0.00    -0.212 OA
ENDBRANCH  23  25
ENDBRANCH   3  23
TORSDOF 2
ENDMDL
MODEL 4
REMARK VINA RESULT:      -8.3      2.848      5.723
REMARK  Name = 
REMARK  2 active torsions:
REMARK  status: ('A' for Active; 'I' for Inactive)
REMARK    1  A    between atoms: C_21  and  C_23
REMARK    2  A    between atoms: C_23  and  C_25
REMARK                            x       y       z     vdW  Elec       q    Type
REMARK                         _______ _______ _______ _____ _____    ______ ____
ROOT
ATOM      1  C   UNL     1       2.018   4.192  -8.792  0.00  0.00    +0.003 C 
ATOM      2  C   UNL     1       1.996   5.528  -8.787  0.00  0.00    +0.035 C 
ATOM      3  C   UNL     1       1.066   5.982  -9.850  0.00  0.00    +0.180 C 
ATOM      4  O   UNL     1       1.062   7.346  -9.864  0.00  0.00    -0.218 OA
ATOM      5  C   UNL     1      -0.273   5.410  -9.385  0.00  0.00    +0.038 C 
ATOM      6  C   UNL     1      -0.048   4.887  -7.969  0.00  0.00    +0.003 C 
ATOM      7  C   UNL     1       0.989   6.081  -7.642  0.00  0.00    +0.003 C 
ATOM      8  C   UNL     1       1.839   5.227  -6.466  0.00  0.00    +0.003 C 
ATOM      9  C   UNL     1       0.796   5.636  -5.329  0.00  0.00    +0.004 C 
ATOM     10  C   UNL     1       1.239   6.693  -4.446  0.00  0.00    +0.022 C 
ATOM     11  C   UNL     1       2.631   6.601  -3.948  0.00  0.00    -0.038 C 
ATOM     12  C   UNL     1       3.582   6.098  -4.995  0.00  0.00    +0.036 C 
ATOM     13  C   UNL     1       3.651   4.648  -4.871  0.00  0.00    +0.009 C 
ATOM     14  C   UNL     1       4.856   6.836  -4.933  0.00  0.00    -0.020 C 
ATOM     15  C   UNL     1       5.344   7.191  -3.742  0.00  0.00    +0.038 C 
ATOM     16  C   UNL     1       4.412   7.436  -2.636  0.00  0.00    +0.195 C 
ATOM     17  O   UNL     1       4.776   7.823  -1.499  0.00  0.00    -0.287 OA
ATOM     18  C   UNL     1       3.003   7.508  -3.046  0.00  0.00    +0.034 C 
ATOM     19  C   UNL     1       2.804   6.584  -6.310  0.00  0.00    +0.038 C 
ATOM     20  C   UNL     1       4.053   6.124  -7.373  0.00  0.00    +0.153 C 
ATOM     21  O   UNL     1       3.837   4.630  -7.341  0.00  0.00    -0.223 OA
ATOM     22  C   UNL     1       3.161   6.358  -8.726  0.00  0.00    +0.036 C 
ENDROOT
BRANCH   3  23
ATOM     23  C   UNL     1       1.242   5.441 -11.196  0.00  0.00    +0.211 C 
ATOM     24  O   UNL     1       0.259   4.875 -11.678  0.00  0.00    -0.291 OA
BRANCH  23  25
ATOM     25  C   UNL     1       1.945   6.347 -12.168  0.00  0.00    +0.248 C 
ATOM     26  O   UNL     1       3.295   6.095 -12.263  0.00  0.00    -0.212 OA
ENDBRANCH  23  25
ENDBRANCH   3  23
TORSDOF 2
ENDMDL
MODEL 5
REMARK VINA RESULT:      -8.3      2.902      6.066
REMARK  Name = 
REMARK  2 active torsions:
REMARK  status: ('A' for Active; 'I' for Inactive)
REMARK    1  A    between atoms: C_21  and  C_23
REMARK    2  A    between atoms: C_23  and  C_25
REMARK                            x       y       z     vdW  Elec       q    Type
REMARK                         _______ _______ _______ _____ _____    ______ ____
ROOT
ATOM      1  C   UNL     1       1.137   4.171 -10.317  0.00  0.00    +0.003 C 
ATOM      2  C   UNL     1       1.986   5.203 -10.333  0.00  0.00    +0.035 C 
ATOM      3  C   UNL     1       1.761   5.970 -11.582  0.00  0.00    +0.180 C 
ATOM      4  O   UNL     1       2.645   7.009 -11.614  0.00  0.00    -0.218 OA
ATOM      5  C   UNL     1       0.319   6.450 -11.420  0.00  0.00    +0.038 C 
ATOM      6  C   UNL     1      -0.082   6.128  -9.984  0.00  0.00    +0.003 C 
ATOM      7  C   UNL     1       1.411   6.434  -9.448  0.00  0.00    +0.003 C 
ATOM      8  C   UNL     1       1.299   5.429  -8.102  0.00  0.00    +0.003 C 
ATOM      9  C   UNL     1       0.604   6.573  -7.231  0.00  0.00    +0.004 C 
ATOM     10  C   UNL     1       1.476   7.235  -6.285  0.00  0.00    +0.022 C 
ATOM     11  C   UNL     1       2.371   6.364  -5.488  0.00  0.00    -0.038 C 
ATOM     12  C   UNL     1       2.921   5.220  -6.290  0.00  0.00    +0.036 C 
ATOM     13  C   UNL     1       2.013   4.093  -6.136  0.00  0.00    +0.009 C 
ATOM     14  C   UNL     1       4.338   4.989  -5.955  0.00  0.00    -0.020 C 
ATOM     15  C   UNL     1       4.739   5.136  -4.690  0.00  0.00    +0.038 C 
ATOM     16  C   UNL     1       4.025   6.079  -3.822  0.00  0.00    +0.195 C 
ATOM     17  O   UNL     1       4.362   6.320  -2.638  0.00  0.00    -0.287 OA
ATOM     18  C   UNL     1       3.090   6.958  -4.537  0.00  0.00    +0.034 C 
ATOM     19  C   UNL     1       2.871   5.879  -7.751  0.00  0.00    +0.038 C 
ATOM     20  C   UNL     1       3.673   4.578  -8.504  0.00  0.00    +0.153 C 
ATOM     21  O   UNL     1       2.539   3.582  -8.502  0.00  0.00    -0.223 OA
ATOM     22  C   UNL     1       3.381   5.110 -10.024  0.00  0.00    +0.036 C 
ENDROOT
BRANCH   3  23
ATOM     23  C   UNL     1       1.759   5.241 -12.849  0.00  0.00    +0.211 C 
ATOM     24  O   UNL     1       0.723   5.321 -13.510  0.00  0.00    -0.291 OA
BRANCH  23  25
ATOM     25  C   UNL     1       3.008   5.379 -13.674  0.00  0.00    +0.248 C 
ATOM     26  O   UNL     1       2.806   6.067 -14.850  0.00  0.00    -0.212 OA
ENDBRANCH  23  25
ENDBRANCH   3  23
TORSDOF 2
ENDMDL
MODEL 6
REMARK VINA RESULT:      -8.1      1.858      7.164
REMARK  Name = 
REMARK  2 active torsions:
REMARK  status: ('A' for Active; 'I' for Inactive)
REMARK    1  A    between atoms: C_21  and  C_23
REMARK    2  A    between atoms: C_23  and  C_25
REMARK                            x       y       z     vdW  Elec       q    Type
REMARK                         _______ _______ _______ _____ _____    ______ ____
ROOT
ATOM      1  C   UNL     1       6.291   7.603 -10.840  0.00  0.00    +0.003 C 
ATOM      2  C   UNL     1       5.829   6.424 -11.266  0.00  0.00    +0.035 C 
ATOM      3  C   UNL     1       6.938   5.703 -11.935  0.00  0.00    +0.180 C 
ATOM      4  O   UNL     1       6.462   4.510 -12.395  0.00  0.00    -0.218 OA
ATOM      5  C   UNL     1       7.946   5.518 -10.800  0.00  0.00    +0.038 C 
ATOM      6  C   UNL     1       7.226   5.928  -9.518  0.00  0.00    +0.003 C 
ATOM      7  C   UNL     1       5.823   5.339 -10.061  0.00  0.00    +0.003 C 
ATOM      8  C   UNL     1       4.860   6.359  -9.131  0.00  0.00    +0.003 C 
ATOM      9  C   UNL     1       4.940   5.384  -7.869  0.00  0.00    +0.004 C 
ATOM     10  C   UNL     1       3.762   4.573  -7.650  0.00  0.00    +0.022 C 
ATOM     11  C   UNL     1       2.454   5.258  -7.769  0.00  0.00    -0.038 C 
ATOM     12  C   UNL     1       2.433   6.262  -8.885  0.00  0.00    +0.036 C 
ATOM     13  C   UNL     1       2.833   7.548  -8.331  0.00  0.00    +0.009 C 
ATOM     14  C   UNL     1       1.146   6.213  -9.601  0.00  0.00    -0.020 C 
ATOM     15  C   UNL     1       0.024   6.003  -8.907  0.00  0.00    +0.038 C 
ATOM     16  C   UNL     1       0.092   5.228  -7.664  0.00  0.00    +0.195 C 
ATOM     17  O   UNL     1      -0.916   4.937  -6.976  0.00  0.00    -0.287 OA
ATOM     18  C   UNL     1       1.375   4.543  -7.455  0.00  0.00    +0.034 C 
ATOM     19  C   UNL     1       3.544   5.612  -9.842  0.00  0.00    +0.038 C 
ATOM     20  C   UNL     1       3.285   6.722 -11.109  0.00  0.00    +0.153 C 
ATOM     21  O   UNL     1       3.970   7.922 -10.501  0.00  0.00    -0.223 OA
ATOM     22  C   UNL     1       4.593   6.243 -11.967  0.00  0.00    +0.036 C 
ENDROOT
BRANCH   3  23
ATOM     23  C   UNL     1       7.690   6.405 -12.974  0.00  0.00    +0.211 C 
ATOM     24  O   UNL     1       8.898   6.167 -13.014  0.00  0.00    -0.291 OA
BRANCH  23  25
ATOM     25  C   UNL     1       7.041   6.436 -14.330  0.00  0.00    +0.248 C 
ATOM     26  O   UNL     1       6.435   7.640 -14.612  0.00  0.00    -0.212 OA
ENDBRANCH  23  25
ENDBRANCH   3  23
TORSDOF 2
ENDMDL
MODEL 7
REMARK VINA RESULT:      -8.0      2.813      4.235
REMARK  Name = 
REMARK  2 active torsions:
REMARK  status: ('A' for Active; 'I' for Inactive)
REMARK    1  A    between atoms: C_21  and  C_23
REMARK    2  A    between atoms: C_23  and  C_25
REMARK                            x       y       z     vdW  Elec       q    Type
REMARK                         _______ _______ _______ _____ _____    ______ ____
ROOT
ATOM      1  C   UNL     1       1.440   7.131  -6.561  0.00  0.00    +0.003 C 
ATOM      2  C   UNL     1       2.178   6.075  -6.916  0.00  0.00    +0.035 C 
ATOM      3  C   UNL     1       2.476   5.286  -5.697  0.00  0.00    +0.180 C 
ATOM      4  O   UNL     1       3.252   4.221  -6.052  0.00  0.00    -0.218 OA
ATOM      5  C   UNL     1       1.084   4.852  -5.236  0.00  0.00    +0.038 C 
ATOM      6  C   UNL     1       0.125   5.219  -6.363  0.00  0.00    +0.003 C 
ATOM      7  C   UNL     1       1.238   4.882  -7.485  0.00  0.00    +0.003 C 
ATOM      8  C   UNL     1       0.602   5.921  -8.647  0.00  0.00    +0.003 C 
ATOM      9  C   UNL     1      -0.437   4.819  -9.151  0.00  0.00    +0.004 C 
ATOM     10  C   UNL     1      -0.072   4.155 -10.383  0.00  0.00    +0.022 C 
ATOM     11  C   UNL     1       0.431   5.018 -11.477  0.00  0.00    -0.038 C 
ATOM     12  C   UNL     1       1.311   6.126 -10.974  0.00  0.00    +0.036 C 
ATOM     13  C   UNL     1       0.464   7.282 -10.718  0.00  0.00    +0.009 C 
ATOM     14  C   UNL     1       2.459   6.323 -11.877  0.00  0.00    -0.020 C 
ATOM     15  C   UNL     1       2.280   6.195 -13.193  0.00  0.00    +0.038 C 
ATOM     16  C   UNL     1       1.232   5.294 -13.685  0.00  0.00    +0.195 C 
ATOM     17  O   UNL     1       1.027   5.071 -14.902  0.00  0.00    -0.287 OA
ATOM     18  C   UNL     1       0.657   4.425 -12.648  0.00  0.00    +0.034 C 
ATOM     19  C   UNL     1       1.861   5.435  -9.635  0.00  0.00    +0.038 C 
ATOM     20  C   UNL     1       2.953   6.694  -9.283  0.00  0.00    +0.153 C 
ATOM     21  O   UNL     1       1.961   7.722  -8.794  0.00  0.00    -0.223 OA
ATOM     22  C   UNL     1       3.313   6.135  -7.787  0.00  0.00    +0.036 C 
ENDROOT
BRANCH   3  23
ATOM     23  C   UNL     1       3.037   5.985  -4.542  0.00  0.00    +0.211 C 
ATOM     24  O   UNL     1       2.441   5.822  -3.477  0.00  0.00    -0.291 OA
BRANCH  23  25
ATOM     25  C   UNL     1       4.533   5.910  -4.408  0.00  0.00    +0.248 C 
ATOM     26  O   UNL     1       5.166   7.081  -4.762  0.00  0.00    -0.212 OA
ENDBRANCH  23  25
ENDBRANCH   3  23
TORSDOF 2
ENDMDL
MODEL 8
REMARK VINA RESULT:      -8.0      3.630      7.004
REMARK  Name = 
REMARK  2 active torsions:
REMARK  status: ('A' for Active; 'I' for Inactive)
REMARK    1  A    between atoms: C_21  and  C_23
REMARK    2  A    between atoms: C_23  and  C_25
REMARK                            x       y       z     vdW  Elec       q    Type
REMARK                         _______ _______ _______ _____ _____    ______ ____
ROOT
ATOM      1  C   UNL     1       2.842   4.555  -6.387  0.00  0.00    +0.003 C 
ATOM      2  C   UNL     1       2.616   5.865  -6.244  0.00  0.00    +0.035 C 
ATOM      3  C   UNL     1       1.833   6.332  -7.413  0.00  0.00    +0.180 C 
ATOM      4  O   UNL     1       1.623   7.674  -7.283  0.00  0.00    -0.218 OA
ATOM      5  C   UNL     1       0.535   5.534  -7.283  0.00  0.00    +0.038 C 
ATOM      6  C   UNL     1       0.582   4.861  -5.915  0.00  0.00    +0.003 C 
ATOM      7  C   UNL     1       1.350   6.125  -5.265  0.00  0.00    +0.003 C 
ATOM      8  C   UNL     1       2.097   5.239  -4.044  0.00  0.00    +0.003 C 
ATOM      9  C   UNL     1       0.817   5.353  -3.096  0.00  0.00    +0.004 C 
ATOM     10  C   UNL     1       0.929   6.332  -2.036  0.00  0.00    +0.022 C 
ATOM     11  C   UNL     1       2.208   6.355  -1.288  0.00  0.00    -0.038 C 
ATOM     12  C   UNL     1       3.395   6.124  -2.176  0.00  0.00    +0.036 C 
ATOM     13  C   UNL     1       3.661   4.692  -2.197  0.00  0.00    +0.009 C 
ATOM     14  C   UNL     1       4.510   7.006  -1.788  0.00  0.00    -0.020 C 
ATOM     15  C   UNL     1       4.718   7.260  -0.494  0.00  0.00    +0.038 C 
ATOM     16  C   UNL     1       3.578   7.231   0.429  0.00  0.00    +0.195 C 
ATOM     17  O   UNL     1       3.669   7.507   1.649  0.00  0.00    -0.287 OA
ATOM     18  C   UNL     1       2.270   7.174  -0.239  0.00  0.00    +0.034 C 
ATOM     19  C   UNL     1       2.799   6.677  -3.558  0.00  0.00    +0.038 C 
ATOM     20  C   UNL     1       4.273   6.528  -4.400  0.00  0.00    +0.153 C 
ATOM     21  O   UNL     1       4.285   5.028  -4.570  0.00  0.00    -0.223 OA
ATOM     22  C   UNL     1       3.611   6.823  -5.868  0.00  0.00    +0.036 C 
ENDROOT
BRANCH   3  23
ATOM     23  C   UNL     1       2.326   6.004  -8.750  0.00  0.00    +0.211 C 
ATOM     24  O   UNL     1       1.471   5.653  -9.564  0.00  0.00    -0.291 OA
BRANCH  23  25
ATOM     25  C   UNL     1       3.336   6.962  -9.318  0.00  0.00    +0.248 C 
ATOM     26  O   UNL     1       4.567   6.384  -9.535  0.00  0.00    -0.212 OA
ENDBRANCH  23  25
ENDBRANCH   3  23
TORSDOF 2
ENDMDL
MODEL 9
REMARK VINA RESULT:      -7.9      1.919      6.976
REMARK  Name = 
REMARK  2 active torsions:
REMARK  status: ('A' for Active; 'I' for Inactive)
REMARK    1  A    between atoms: C_21  and  C_23
REMARK    2  A    between atoms: C_23  and  C_25
REMARK                            x       y       z     vdW  Elec       q    Type
REMARK                         _______ _______ _______ _____ _____    ______ ____
ROOT
ATOM      1  C   UNL     1       2.878   7.013  -8.396  0.00  0.00    +0.003 C 
ATOM      2  C   UNL     1       2.610   5.714  -8.236  0.00  0.00    +0.035 C 
ATOM      3  C   UNL     1       3.702   4.932  -8.863  0.00  0.00    +0.180 C 
ATOM      4  O   UNL     1       3.417   3.605  -8.725  0.00  0.00    -0.218 OA
ATOM      5  C   UNL     1       4.921   5.345  -8.037  0.00  0.00    +0.038 C 
ATOM      6  C   UNL     1       4.385   6.138  -6.849  0.00  0.00    +0.003 C 
ATOM      7  C   UNL     1       3.066   5.210  -6.763  0.00  0.00    +0.003 C 
ATOM      8  C   UNL     1       2.097   6.387  -6.048  0.00  0.00    +0.003 C 
ATOM      9  C   UNL     1       2.621   6.015  -4.586  0.00  0.00    +0.004 C 
ATOM     10  C   UNL     1       1.709   5.217  -3.796  0.00  0.00    +0.022 C 
ATOM     11  C   UNL     1       0.285   5.627  -3.813  0.00  0.00    -0.038 C 
ATOM     12  C   UNL     1      -0.161   6.090  -5.169  0.00  0.00    +0.036 C 
ATOM     13  C   UNL     1       0.049   7.529  -5.237  0.00  0.00    +0.009 C 
ATOM     14  C   UNL     1      -1.519   5.597  -5.462  0.00  0.00    -0.020 C 
ATOM     15  C   UNL     1      -2.417   5.542  -4.476  0.00  0.00    +0.038 C 
ATOM     16  C   UNL     1      -1.951   5.343  -3.100  0.00  0.00    +0.195 C 
ATOM     17  O   UNL     1      -2.724   5.227  -2.119  0.00  0.00    -0.287 OA
ATOM     18  C   UNL     1      -0.535   4.967  -2.996  0.00  0.00    +0.034 C 
ATOM     19  C   UNL     1       0.863   5.258  -6.080  0.00  0.00    +0.038 C 
ATOM     20  C   UNL     1       0.138   5.726  -7.548  0.00  0.00    +0.153 C 
ATOM     21  O   UNL     1       0.649   7.145  -7.609  0.00  0.00    -0.223 OA
ATOM     22  C   UNL     1       1.333   5.113  -8.482  0.00  0.00    +0.036 C 
ENDROOT
BRANCH   3  23
ATOM     23  C   UNL     1       4.075   5.250 -10.240  0.00  0.00    +0.211 C 
ATOM     24  O   UNL     1       3.175   5.703 -10.947  0.00  0.00    -0.291 OA
BRANCH  23  25
ATOM     25  C   UNL     1       5.385   5.971 -10.404  0.00  0.00    +0.248 C 
ATOM     26  O   UNL     1       5.246   7.224 -10.956  0.00  0.00    -0.212 OA
ENDBRANCH  23  25
ENDBRANCH   3  23
TORSDOF 2
ENDMDL
