MODEL 1
REMARK VINA RESULT:      -7.4      0.000      0.000
REMARK  Name = 
REMARK  13 active torsions:
REMARK  status: ('A' for Active; 'I' for Inactive)
REMARK    1  A    between atoms: C_2  and  C_3
REMARK    2  A    between atoms: C_3  and  C_4
REMARK    3  A    between atoms: C_4  and  C_5
REMARK    4  A    between atoms: C_5  and  C_6
REMARK    5  A    between atoms: C_6  and  C_8
REMARK    6  A    between atoms: C_9  and  C_10
REMARK    7  A    between atoms: C_16  and  C_17
REMARK    8  A    between atoms: C_17  and  C_18
REMARK    9  A    between atoms: C_18  and  C_19
REMARK   10  A    between atoms: C_19  and  C_20
REMARK   11  A    between atoms: C_20  and  C_21
REMARK   12  A    between atoms: C_21  and  C_22
REMARK   13  A    between atoms: C_22  and  C_23
REMARK                            x       y       z     vdW  Elec       q    Type
REMARK                         _______ _______ _______ _____ _____    ______ ____
ROOT
ATOM      1  C   UNL     1       3.452   5.333  -8.293  0.00  0.00    +0.059 C 
ATOM      2  C   UNL     1       3.498   6.817  -9.072  0.00  0.00    +0.064 C 
ATOM      3  C   UNL     1       2.115   7.323  -8.459  0.00  0.00    +0.153 C 
ATOM      4  O   UNL     1       2.102   8.376  -7.879  0.00  0.00    -0.296 OA
ATOM      5  C   UNL     1       1.279   6.375  -9.053  0.00  0.00    +0.098 C 
ATOM      6  C   UNL     1       1.783   5.067  -8.234  0.00  0.00    +0.164 C 
ATOM      7  O   UNL     1       1.860   4.209  -9.486  0.00  0.00    -0.222 OA
ENDROOT
BRANCH   1   9
ATOM      8  C   UNL     1       3.499   5.201  -5.821  0.00  0.00    +0.002 C 
ATOM      9  C   UNL     1       3.427   6.026  -6.859  0.00  0.00    -0.026 C 
BRANCH   8  10
ATOM     10  C   UNL     1       3.160   5.990  -4.438  0.00  0.00    +0.174 C 
ATOM     11  O   UNL     1       3.642   7.313  -5.020  0.00  0.00    -0.218 OA
BRANCH  10  12
ATOM     12  C   UNL     1       1.590   6.214  -4.885  0.00  0.00    +0.037 C 
BRANCH  12  13
ATOM     13  C   UNL     1       0.702   5.242  -4.272  0.00  0.00    +0.003 C 
BRANCH  13  14
ATOM     14  C   UNL     1      -0.734   5.708  -4.485  0.00  0.00    +0.000 C 
BRANCH  14  16
ATOM     15  C   UNL     1      -1.620   5.467  -6.584  0.00  0.00    +0.000 C 
ATOM     16  C   UNL     1      -0.833   6.016  -5.973  0.00  0.00    +0.000 C 
ENDBRANCH  14  16
ENDBRANCH  13  14
ENDBRANCH  12  13
ENDBRANCH  10  12
ENDBRANCH   8  10
ENDBRANCH   1   9
BRANCH   2  17
ATOM     17  C   UNL     1       2.970   6.236 -10.507  0.00  0.00    +0.008 C 
BRANCH  17  18
ATOM     18  C   UNL     1       4.223   6.460 -11.354  0.00  0.00    +0.000 C 
BRANCH  18  19
ATOM     19  C   UNL     1       5.169   7.402 -10.802  0.00  0.00    +0.000 C 
BRANCH  19  20
ATOM     20  C   UNL     1       6.469   7.693 -11.355  0.00  0.00    +0.001 C 
BRANCH  20  21
ATOM     21  C   UNL     1       7.583   7.193 -10.485  0.00  0.00    +0.012 C 
BRANCH  21  22
ATOM     22  C   UNL     1       7.656   5.675 -10.610  0.00  0.00    +0.114 C 
BRANCH  22  23
ATOM     23  C   UNL     1       8.249   5.434 -11.963  0.00  0.00    +0.365 C 
ATOM     24  O   UNL     1       7.579   4.610 -12.859  0.00  0.00    -0.246 OA
ATOM     25  O   UNL     1       9.377   5.879 -12.274  0.00  0.00    -0.246 OA
ENDBRANCH  22  23
ENDBRANCH  21  22
ENDBRANCH  20  21
ENDBRANCH  19  20
ENDBRANCH  18  19
ENDBRANCH  17  18
ENDBRANCH   2  17
TORSDOF 13
ENDMDL
MODEL 2
REMARK VINA RESULT:      -7.3      2.449      8.444
REMARK  Name = 
REMARK  13 active torsions:
REMARK  status: ('A' for Active; 'I' for Inactive)
REMARK    1  A    between atoms: C_2  and  C_3
REMARK    2  A    between atoms: C_3  and  C_4
REMARK    3  A    between atoms: C_4  and  C_5
REMARK    4  A    between atoms: C_5  and  C_6
REMARK    5  A    between atoms: C_6  and  C_8
REMARK    6  A    between atoms: C_9  and  C_10
REMARK    7  A    between atoms: C_16  and  C_17
REMARK    8  A    between atoms: C_17  and  C_18
REMARK    9  A    between atoms: C_18  and  C_19
REMARK   10  A    between atoms: C_19  and  C_20
REMARK   11  A    between atoms: C_20  and  C_21
REMARK   12  A    between atoms: C_21  and  C_22
REMARK   13  A    between atoms: C_22  and  C_23
REMARK                            x       y       z     vdW  Elec       q    Type
REMARK                         _______ _______ _______ _____ _____    ______ ____
ROOT
ATOM      1  C   UNL     1       2.022   4.902  -7.494  0.00  0.00    +0.059 C 
ATOM      2  C   UNL     1       0.951   6.192  -7.481  0.00  0.00    +0.064 C 
ATOM      3  C   UNL     1       2.074   7.282  -7.167  0.00  0.00    +0.153 C 
ATOM      4  O   UNL     1       2.168   8.228  -7.903  0.00  0.00    -0.296 OA
ATOM      5  C   UNL     1       2.449   6.820  -5.904  0.00  0.00    +0.098 C 
ATOM      6  C   UNL     1       3.159   5.433  -6.360  0.00  0.00    +0.164 C 
ATOM      7  O   UNL     1       2.473   4.626  -5.270  0.00  0.00    -0.222 OA
ENDROOT
BRANCH   1   9
ATOM      8  C   UNL     1       3.624   4.695  -9.370  0.00  0.00    +0.002 C 
ATOM      9  C   UNL     1       2.862   5.541  -8.686  0.00  0.00    -0.026 C 
BRANCH   8  10
ATOM     10  C   UNL     1       4.646   5.505 -10.344  0.00  0.00    +0.174 C 
ATOM     11  O   UNL     1       3.889   6.809 -10.131  0.00  0.00    -0.218 OA
BRANCH  10  12
ATOM     12  C   UNL     1       5.706   5.765  -9.110  0.00  0.00    +0.037 C 
BRANCH  12  13
ATOM     13  C   UNL     1       7.085   5.563  -9.519  0.00  0.00    +0.003 C 
BRANCH  13  14
ATOM     14  C   UNL     1       7.412   6.578 -10.608  0.00  0.00    +0.000 C 
BRANCH  14  16
ATOM     15  C   UNL     1       8.987   5.854 -12.106  0.00  0.00    +0.000 C 
ATOM     16  C   UNL     1       7.899   5.750 -11.789  0.00  0.00    +0.000 C 
ENDBRANCH  14  16
ENDBRANCH  13  14
ENDBRANCH  12  13
ENDBRANCH  10  12
ENDBRANCH   8  10
ENDBRANCH   1   9
BRANCH   2  17
ATOM     17  C   UNL     1       0.410   5.908  -5.964  0.00  0.00    +0.008 C 
BRANCH  17  18
ATOM     18  C   UNL     1      -0.945   5.276  -6.287  0.00  0.00    +0.000 C 
BRANCH  18  19
ATOM     19  C   UNL     1      -2.067   6.184  -6.230  0.00  0.00    +0.000 C 
BRANCH  19  20
ATOM     20  C   UNL     1      -2.227   7.248  -5.270  0.00  0.00    +0.001 C 
BRANCH  20  21
ATOM     21  C   UNL     1      -2.775   6.757  -3.962  0.00  0.00    +0.012 C 
BRANCH  21  22
ATOM     22  C   UNL     1      -1.664   6.804  -2.920  0.00  0.00    +0.114 C 
BRANCH  22  23
ATOM     23  C   UNL     1      -1.669   5.443  -2.299  0.00  0.00    +0.365 C 
ATOM     24  O   UNL     1      -0.486   4.932  -1.777  0.00  0.00    -0.246 OA
ATOM     25  O   UNL     1      -2.687   4.715  -2.322  0.00  0.00    -0.246 OA
ENDBRANCH  22  23
ENDBRANCH  21  22
ENDBRANCH  20  21
ENDBRANCH  19  20
ENDBRANCH  18  19
ENDBRANCH  17  18
ENDBRANCH   2  17
TORSDOF 13
ENDMDL
MODEL 3
REMARK VINA RESULT:      -7.2      1.576      2.273
REMARK  Name = 
REMARK  13 active torsions:
REMARK  status: ('A' for Active; 'I' for Inactive)
REMARK    1  A    between atoms: C_2  and  C_3
REMARK    2  A    between atoms: C_3  and  C_4
REMARK    3  A    between atoms: C_4  and  C_5
REMARK    4  A    between atoms: C_5  and  C_6
REMARK    5  A    between atoms: C_6  and  C_8
REMARK    6  A    between atoms: C_9  and  C_10
REMARK    7  A    between atoms: C_16  and  C_17
REMARK    8  A    between atoms: C_17  and  C_18
REMARK    9  A    between atoms: C_18  and  C_19
REMARK   10  A    between atoms: C_19  and  C_20
REMARK   11  A    between atoms: C_20  and  C_21
REMARK   12  A    between atoms: C_21  and  C_22
REMARK   13  A    between atoms: C_22  and  C_23
REMARK                            x       y       z     vdW  Elec       q    Type
REMARK                         _______ _______ _______ _____ _____    ______ ____
ROOT
ATOM      1  C   UNL     1       2.104   4.872  -8.018  0.00  0.00    +0.059 C 
ATOM      2  C   UNL     1       3.138   6.166  -8.278  0.00  0.00    +0.064 C 
ATOM      3  C   UNL     1       1.965   7.241  -8.402  0.00  0.00    +0.153 C 
ATOM      4  O   UNL     1       2.005   8.209  -7.692  0.00  0.00    -0.296 OA
ATOM      5  C   UNL     1       1.358   6.736  -9.554  0.00  0.00    +0.098 C 
ATOM      6  C   UNL     1       0.764   5.362  -8.926  0.00  0.00    +0.164 C 
ATOM      7  O   UNL     1       1.235   4.522 -10.102  0.00  0.00    -0.222 OA
ENDROOT
BRANCH   1   9
ATOM      8  C   UNL     1       0.838   4.732  -5.895  0.00  0.00    +0.002 C 
ATOM      9  C   UNL     1       1.503   5.546  -6.706  0.00  0.00    -0.026 C 
BRANCH   8  10
ATOM     10  C   UNL     1       0.027   5.582  -4.769  0.00  0.00    +0.174 C 
ATOM     11  O   UNL     1       0.936   6.790  -4.959  0.00  0.00    -0.218 OA
BRANCH  10  12
ATOM     12  C   UNL     1      -1.091   6.083  -5.871  0.00  0.00    +0.037 C 
BRANCH  12  13
ATOM     13  C   UNL     1      -2.331   6.503  -5.242  0.00  0.00    +0.003 C 
BRANCH  13  14
ATOM     14  C   UNL     1      -2.659   5.514  -4.128  0.00  0.00    +0.000 C 
BRANCH  14  16
ATOM     15  C   UNL     1      -2.808   6.476  -2.055  0.00  0.00    +0.000 C 
ATOM     16  C   UNL     1      -3.342   6.344  -3.051  0.00  0.00    +0.000 C 
ENDBRANCH  14  16
ENDBRANCH  13  14
ENDBRANCH  12  13
ENDBRANCH  10  12
ENDBRANCH   8  10
ENDBRANCH   1   9
BRANCH   2  17
ATOM     17  C   UNL     1       3.380   5.834  -9.861  0.00  0.00    +0.008 C 
BRANCH  17  18
ATOM     18  C   UNL     1       4.810   6.351 -10.018  0.00  0.00    +0.000 C 
BRANCH  18  19
ATOM     19  C   UNL     1       5.817   5.567  -9.341  0.00  0.00    +0.000 C 
BRANCH  19  20
ATOM     20  C   UNL     1       7.240   5.777  -9.444  0.00  0.00    +0.001 C 
BRANCH  20  21
ATOM     21  C   UNL     1       7.596   6.744 -10.534  0.00  0.00    +0.012 C 
BRANCH  21  22
ATOM     22  C   UNL     1       8.438   6.016 -11.576  0.00  0.00    +0.114 C 
BRANCH  22  23
ATOM     23  C   UNL     1       7.529   5.855 -12.754  0.00  0.00    +0.365 C 
ATOM     24  O   UNL     1       6.694   6.907 -13.114  0.00  0.00    -0.246 OA
ATOM     25  O   UNL     1       7.431   4.767 -13.363  0.00  0.00    -0.246 OA
ENDBRANCH  22  23
ENDBRANCH  21  22
ENDBRANCH  20  21
ENDBRANCH  19  20
ENDBRANCH  18  19
ENDBRANCH  17  18
ENDBRANCH   2  17
TORSDOF 13
ENDMDL
MODEL 4
REMARK VINA RESULT:      -6.6      1.781      3.192
REMARK  Name = 
REMARK  13 active torsions:
REMARK  status: ('A' for Active; 'I' for Inactive)
REMARK    1  A    between atoms: C_2  and  C_3
REMARK    2  A    between atoms: C_3  and  C_4
REMARK    3  A    between atoms: C_4  and  C_5
REMARK    4  A    between atoms: C_5  and  C_6
REMARK    5  A    between atoms: C_6  and  C_8
REMARK    6  A    between atoms: C_9  and  C_10
REMARK    7  A    between atoms: C_16  and  C_17
REMARK    8  A    between atoms: C_17  and  C_18
REMARK    9  A    between atoms: C_18  and  C_19
REMARK   10  A    between atoms: C_19  and  C_20
REMARK   11  A    between atoms: C_20  and  C_21
REMARK   12  A    between atoms: C_21  and  C_22
REMARK   13  A    between atoms: C_22  and  C_23
REMARK                            x       y       z     vdW  Elec       q    Type
REMARK                         _______ _______ _______ _____ _____    ______ ____
ROOT
ATOM      1  C   UNL     1       1.659   5.800  -7.964  0.00  0.00    +0.059 C 
ATOM      2  C   UNL     1       2.974   4.957  -7.352  0.00  0.00    +0.064 C 
ATOM      3  C   UNL     1       2.966   5.715  -5.948  0.00  0.00    +0.153 C 
ATOM      4  O   UNL     1       2.919   5.053  -4.946  0.00  0.00    -0.296 OA
ATOM      5  C   UNL     1       3.259   6.997  -6.416  0.00  0.00    +0.098 C 
ATOM      6  C   UNL     1       1.865   7.291  -7.193  0.00  0.00    +0.164 C 
ATOM      7  O   UNL     1       2.568   7.847  -8.420  0.00  0.00    -0.222 OA
ENDROOT
BRANCH   1   9
ATOM      8  C   UNL     1      -0.536   5.733  -6.820  0.00  0.00    +0.002 C 
ATOM      9  C   UNL     1       0.714   5.285  -6.790  0.00  0.00    -0.026 C 
BRANCH   8  10
ATOM     10  C   UNL     1      -1.301   5.388  -5.426  0.00  0.00    +0.174 C 
ATOM     11  O   UNL     1      -0.247   6.127  -4.611  0.00  0.00    -0.218 OA
BRANCH  10  12
ATOM     12  C   UNL     1      -2.291   6.697  -5.580  0.00  0.00    +0.037 C 
BRANCH  12  13
ATOM     13  C   UNL     1      -2.574   7.324  -4.301  0.00  0.00    +0.003 C 
BRANCH  13  14
ATOM     14  C   UNL     1      -3.317   6.316  -3.431  0.00  0.00    +0.000 C 
BRANCH  14  16
ATOM     15  C   UNL     1      -2.143   5.612  -1.593  0.00  0.00    +0.000 C 
ATOM     16  C   UNL     1      -2.724   6.484  -2.039  0.00  0.00    +0.000 C 
ENDBRANCH  14  16
ENDBRANCH  13  14
ENDBRANCH  12  13
ENDBRANCH  10  12
ENDBRANCH   8  10
ENDBRANCH   1   9
BRANCH   2  17
ATOM     17  C   UNL     1       4.092   5.850  -8.143  0.00  0.00    +0.008 C 
BRANCH  17  18
ATOM     18  C   UNL     1       4.383   4.918  -9.319  0.00  0.00    +0.000 C 
BRANCH  18  19
ATOM     19  C   UNL     1       4.553   5.579 -10.592  0.00  0.00    +0.000 C 
BRANCH  19  20
ATOM     20  C   UNL     1       5.231   6.837 -10.790  0.00  0.00    +0.001 C 
BRANCH  20  21
ATOM     21  C   UNL     1       6.723   6.691 -10.755  0.00  0.00    +0.012 C 
BRANCH  21  22
ATOM     22  C   UNL     1       7.262   6.853 -12.172  0.00  0.00    +0.114 C 
BRANCH  22  23
ATOM     23  C   UNL     1       8.164   5.676 -12.371  0.00  0.00    +0.365 C 
ATOM     24  O   UNL     1       9.526   5.817 -12.132  0.00  0.00    -0.246 OA
ATOM     25  O   UNL     1       7.738   4.596 -12.839  0.00  0.00    -0.246 OA
ENDBRANCH  22  23
ENDBRANCH  21  22
ENDBRANCH  20  21
ENDBRANCH  19  20
ENDBRANCH  18  19
ENDBRANCH  17  18
ENDBRANCH   2  17
TORSDOF 13
ENDMDL
MODEL 5
REMARK VINA RESULT:      -6.6      4.376      7.379
REMARK  Name = 
REMARK  13 active torsions:
REMARK  status: ('A' for Active; 'I' for Inactive)
REMARK    1  A    between atoms: C_2  and  C_3
REMARK    2  A    between atoms: C_3  and  C_4
REMARK    3  A    between atoms: C_4  and  C_5
REMARK    4  A    between atoms: C_5  and  C_6
REMARK    5  A    between atoms: C_6  and  C_8
REMARK    6  A    between atoms: C_9  and  C_10
REMARK    7  A    between atoms: C_16  and  C_17
REMARK    8  A    between atoms: C_17  and  C_18
REMARK    9  A    between atoms: C_18  and  C_19
REMARK   10  A    between atoms: C_19  and  C_20
REMARK   11  A    between atoms: C_20  and  C_21
REMARK   12  A    between atoms: C_21  and  C_22
REMARK   13  A    between atoms: C_22  and  C_23
REMARK                            x       y       z     vdW  Elec       q    Type
REMARK                         _______ _______ _______ _____ _____    ______ ____
ROOT
ATOM      1  C   UNL     1      -0.909   5.656  -2.969  0.00  0.00    +0.059 C 
ATOM      2  C   UNL     1      -1.378   7.243  -3.243  0.00  0.00    +0.064 C 
ATOM      3  C   UNL     1      -1.941   7.463  -1.766  0.00  0.00    +0.153 C 
ATOM      4  O   UNL     1      -1.524   8.396  -1.133  0.00  0.00    -0.296 OA
ATOM      5  C   UNL     1      -2.979   6.530  -1.811  0.00  0.00    +0.098 C 
ATOM      6  C   UNL     1      -2.081   5.178  -1.847  0.00  0.00    +0.164 C 
ATOM      7  O   UNL     1      -2.912   4.556  -2.956  0.00  0.00    -0.222 OA
ENDROOT
BRANCH   1   9
ATOM      8  C   UNL     1       1.353   6.243  -2.150  0.00  0.00    +0.002 C 
ATOM      9  C   UNL     1       0.080   6.094  -1.800  0.00  0.00    -0.026 C 
BRANCH   8  10
ATOM     10  C   UNL     1       2.296   6.388  -0.832  0.00  0.00    +0.174 C 
ATOM     11  O   UNL     1       2.426   4.876  -0.701  0.00  0.00    -0.218 OA
BRANCH  10  12
ATOM     12  C   UNL     1       3.652   6.559  -1.751  0.00  0.00    +0.037 C 
BRANCH  12  13
ATOM     13  C   UNL     1       3.611   7.756  -2.573  0.00  0.00    +0.003 C 
BRANCH  13  14
ATOM     14  C   UNL     1       4.571   7.564  -3.742  0.00  0.00    +0.000 C 
BRANCH  14  16
ATOM     15  C   UNL     1       4.587   5.815  -5.221  0.00  0.00    +0.000 C 
ATOM     16  C   UNL     1       4.434   6.099  -4.129  0.00  0.00    +0.000 C 
ENDBRANCH  14  16
ENDBRANCH  13  14
ENDBRANCH  12  13
ENDBRANCH  10  12
ENDBRANCH   8  10
ENDBRANCH   1   9
BRANCH   2  17
ATOM     17  C   UNL     1      -2.766   6.846  -4.013  0.00  0.00    +0.008 C 
BRANCH  17  18
ATOM     18  C   UNL     1      -2.317   7.025  -5.463  0.00  0.00    +0.000 C 
BRANCH  18  19
ATOM     19  C   UNL     1      -2.404   5.836  -6.277  0.00  0.00    +0.000 C 
BRANCH  19  20
ATOM     20  C   UNL     1      -1.279   5.046  -6.716  0.00  0.00    +0.001 C 
BRANCH  20  21
ATOM     21  C   UNL     1      -0.451   5.757  -7.745  0.00  0.00    +0.012 C 
BRANCH  21  22
ATOM     22  C   UNL     1       1.018   5.634  -7.358  0.00  0.00    +0.114 C 
BRANCH  22  23
ATOM     23  C   UNL     1       1.361   6.954  -6.743  0.00  0.00    +0.365 C 
ATOM     24  O   UNL     1       1.851   7.972  -7.552  0.00  0.00    -0.246 OA
ATOM     25  O   UNL     1       1.308   7.135  -5.505  0.00  0.00    -0.246 OA
ENDBRANCH  22  23
ENDBRANCH  21  22
ENDBRANCH  20  21
ENDBRANCH  19  20
ENDBRANCH  18  19
ENDBRANCH  17  18
ENDBRANCH   2  17
TORSDOF 13
ENDMDL
MODEL 6
REMARK VINA RESULT:      -6.6      1.730      3.023
REMARK  Name = 
REMARK  13 active torsions:
REMARK  status: ('A' for Active; 'I' for Inactive)
REMARK    1  A    between atoms: C_2  and  C_3
REMARK    2  A    between atoms: C_3  and  C_4
REMARK    3  A    between atoms: C_4  and  C_5
REMARK    4  A    between atoms: C_5  and  C_6
REMARK    5  A    between atoms: C_6  and  C_8
REMARK    6  A    between atoms: C_9  and  C_10
REMARK    7  A    between atoms: C_16  and  C_17
REMARK    8  A    between atoms: C_17  and  C_18
REMARK    9  A    between atoms: C_18  and  C_19
REMARK   10  A    between atoms: C_19  and  C_20
REMARK   11  A    between atoms: C_20  and  C_21
REMARK   12  A    between atoms: C_21  and  C_22
REMARK   13  A    between atoms: C_22  and  C_23
REMARK                            x       y       z     vdW  Elec       q    Type
REMARK                         _______ _______ _______ _____ _____    ______ ____
ROOT
ATOM      1  C   UNL     1       2.938   5.001  -7.102  0.00  0.00    +0.059 C 
ATOM      2  C   UNL     1       3.768   6.317  -7.727  0.00  0.00    +0.064 C 
ATOM      3  C   UNL     1       2.453   7.061  -8.240  0.00  0.00    +0.153 C 
ATOM      4  O   UNL     1       2.266   8.193  -7.882  0.00  0.00    -0.296 OA
ATOM      5  C   UNL     1       2.052   6.118  -9.188  0.00  0.00    +0.098 C 
ATOM      6  C   UNL     1       1.631   4.924  -8.172  0.00  0.00    +0.164 C 
ATOM      7  O   UNL     1       2.344   3.862  -8.992  0.00  0.00    -0.222 OA
ENDROOT
BRANCH   1   9
ATOM      8  C   UNL     1       2.206   5.614  -4.818  0.00  0.00    +0.002 C 
ATOM      9  C   UNL     1       2.111   5.927  -6.105  0.00  0.00    -0.026 C 
BRANCH   8  10
ATOM     10  C   UNL     1       1.095   6.426  -3.948  0.00  0.00    +0.174 C 
ATOM     11  O   UNL     1       0.262   5.166  -3.749  0.00  0.00    -0.218 OA
BRANCH  10  12
ATOM     12  C   UNL     1       1.960   6.234  -2.559  0.00  0.00    +0.037 C 
BRANCH  12  13
ATOM     13  C   UNL     1       3.370   6.005  -2.818  0.00  0.00    +0.003 C 
BRANCH  13  14
ATOM     14  C   UNL     1       4.155   7.187  -2.260  0.00  0.00    +0.000 C 
BRANCH  14  16
ATOM     15  C   UNL     1       4.975   7.723  -4.331  0.00  0.00    +0.000 C 
ATOM     16  C   UNL     1       5.267   7.435  -3.269  0.00  0.00    +0.000 C 
ENDBRANCH  14  16
ENDBRANCH  13  14
ENDBRANCH  12  13
ENDBRANCH  10  12
ENDBRANCH   8  10
ENDBRANCH   1   9
BRANCH   2  17
ATOM     17  C   UNL     1       4.213   5.557  -9.106  0.00  0.00    +0.008 C 
BRANCH  17  18
ATOM     18  C   UNL     1       5.592   5.047  -8.686  0.00  0.00    +0.000 C 
BRANCH  18  19
ATOM     19  C   UNL     1       6.706   5.771  -9.252  0.00  0.00    +0.000 C 
BRANCH  19  20
ATOM     20  C   UNL     1       6.598   6.849 -10.205  0.00  0.00    +0.001 C 
BRANCH  20  21
ATOM     21  C   UNL     1       7.660   6.782 -11.262  0.00  0.00    +0.012 C 
BRANCH  21  22
ATOM     22  C   UNL     1       6.995   6.903 -12.629  0.00  0.00    +0.114 C 
BRANCH  22  23
ATOM     23  C   UNL     1       6.914   5.498 -13.137  0.00  0.00    +0.365 C 
ATOM     24  O   UNL     1       7.816   4.552 -12.662  0.00  0.00    -0.246 OA
ATOM     25  O   UNL     1       6.119   5.174 -14.048  0.00  0.00    -0.246 OA
ENDBRANCH  22  23
ENDBRANCH  21  22
ENDBRANCH  20  21
ENDBRANCH  19  20
ENDBRANCH  18  19
ENDBRANCH  17  18
ENDBRANCH   2  17
TORSDOF 13
ENDMDL
MODEL 7
REMARK VINA RESULT:      -6.2      2.243      7.889
REMARK  Name = 
REMARK  13 active torsions:
REMARK  status: ('A' for Active; 'I' for Inactive)
REMARK    1  A    between atoms: C_2  and  C_3
REMARK    2  A    between atoms: C_3  and  C_4
REMARK    3  A    between atoms: C_4  and  C_5
REMARK    4  A    between atoms: C_5  and  C_6
REMARK    5  A    between atoms: C_6  and  C_8
REMARK    6  A    between atoms: C_9  and  C_10
REMARK    7  A    between atoms: C_16  and  C_17
REMARK    8  A    between atoms: C_17  and  C_18
REMARK    9  A    between atoms: C_18  and  C_19
REMARK   10  A    between atoms: C_19  and  C_20
REMARK   11  A    between atoms: C_20  and  C_21
REMARK   12  A    between atoms: C_21  and  C_22
REMARK   13  A    between atoms: C_22  and  C_23
REMARK                            x       y       z     vdW  Elec       q    Type
REMARK                         _______ _______ _______ _____ _____    ______ ____
ROOT
ATOM      1  C   UNL     1       3.252   6.682  -7.404  0.00  0.00    +0.059 C 
ATOM      2  C   UNL     1       3.582   5.108  -6.929  0.00  0.00    +0.064 C 
ATOM      3  C   UNL     1       2.401   4.467  -7.790  0.00  0.00    +0.153 C 
ATOM      4  O   UNL     1       2.674   3.587  -8.562  0.00  0.00    -0.296 OA
ATOM      5  C   UNL     1       1.328   5.066  -7.127  0.00  0.00    +0.098 C 
ATOM      6  C   UNL     1       1.575   6.596  -7.609  0.00  0.00    +0.164 C 
ATOM      7  O   UNL     1       1.361   7.159  -6.214  0.00  0.00    -0.222 OA
ENDROOT
BRANCH   1   9
ATOM      8  C   UNL     1       4.755   6.117  -9.289  0.00  0.00    +0.002 C 
ATOM      9  C   UNL     1       3.492   6.327  -8.938  0.00  0.00    -0.026 C 
BRANCH   8  10
ATOM     10  C   UNL     1       4.899   6.067 -10.909  0.00  0.00    +0.174 C 
ATOM     11  O   UNL     1       3.479   6.588 -11.097  0.00  0.00    -0.218 OA
BRANCH  10  12
ATOM     12  C   UNL     1       5.594   7.561 -10.950  0.00  0.00    +0.037 C 
BRANCH  12  13
ATOM     13  C   UNL     1       6.882   7.548 -11.620  0.00  0.00    +0.003 C 
BRANCH  13  14
ATOM     14  C   UNL     1       7.838   6.689 -10.799  0.00  0.00    +0.000 C 
BRANCH  14  16
ATOM     15  C   UNL     1       8.289   5.923 -12.910  0.00  0.00    +0.000 C 
ATOM     16  C   UNL     1       8.617   5.875 -11.822  0.00  0.00    +0.000 C 
ENDBRANCH  14  16
ENDBRANCH  13  14
ENDBRANCH  12  13
ENDBRANCH  10  12
ENDBRANCH   8  10
ENDBRANCH   1   9
BRANCH   2  17
ATOM     17  C   UNL     1       2.831   5.239  -5.483  0.00  0.00    +0.008 C 
BRANCH  17  18
ATOM     18  C   UNL     1       3.962   4.782  -4.562  0.00  0.00    +0.000 C 
BRANCH  18  19
ATOM     19  C   UNL     1       4.864   5.828  -4.141  0.00  0.00    +0.000 C 
BRANCH  19  20
ATOM     20  C   UNL     1       4.505   7.215  -3.971  0.00  0.00    +0.001 C 
BRANCH  20  21
ATOM     21  C   UNL     1       3.919   7.490  -2.618  0.00  0.00    +0.012 C 
BRANCH  21  22
ATOM     22  C   UNL     1       4.802   6.836  -1.562  0.00  0.00    +0.114 C 
BRANCH  22  23
ATOM     23  C   UNL     1       3.843   6.193  -0.610  0.00  0.00    +0.365 C 
ATOM     24  O   UNL     1       3.731   4.807  -0.595  0.00  0.00    -0.246 OA
ATOM     25  O   UNL     1       3.072   6.872   0.104  0.00  0.00    -0.246 OA
ENDBRANCH  22  23
ENDBRANCH  21  22
ENDBRANCH  20  21
ENDBRANCH  19  20
ENDBRANCH  18  19
ENDBRANCH  17  18
ENDBRANCH   2  17
TORSDOF 13
ENDMDL
MODEL 8
REMARK VINA RESULT:      -6.1      1.956      3.451
REMARK  Name = 
REMARK  13 active torsions:
REMARK  status: ('A' for Active; 'I' for Inactive)
REMARK    1  A    between atoms: C_2  and  C_3
REMARK    2  A    between atoms: C_3  and  C_4
REMARK    3  A    between atoms: C_4  and  C_5
REMARK    4  A    between atoms: C_5  and  C_6
REMARK    5  A    between atoms: C_6  and  C_8
REMARK    6  A    between atoms: C_9  and  C_10
REMARK    7  A    between atoms: C_16  and  C_17
REMARK    8  A    between atoms: C_17  and  C_18
REMARK    9  A    between atoms: C_18  and  C_19
REMARK   10  A    between atoms: C_19  and  C_20
REMARK   11  A    between atoms: C_20  and  C_21
REMARK   12  A    between atoms: C_21  and  C_22
REMARK   13  A    between atoms: C_22  and  C_23
REMARK                            x       y       z     vdW  Elec       q    Type
REMARK                         _______ _______ _______ _____ _____    ______ ____
ROOT
ATOM      1  C   UNL     1       2.311   5.547  -5.967  0.00  0.00    +0.059 C 
ATOM      2  C   UNL     1       3.830   4.842  -5.875  0.00  0.00    +0.064 C 
ATOM      3  C   UNL     1       4.264   5.652  -4.571  0.00  0.00    +0.153 C 
ATOM      4  O   UNL     1       4.649   5.028  -3.618  0.00  0.00    -0.296 OA
ATOM      5  C   UNL     1       4.247   6.935  -5.121  0.00  0.00    +0.098 C 
ATOM      6  C   UNL     1       2.644   7.080  -5.334  0.00  0.00    +0.164 C 
ATOM      7  O   UNL     1       2.796   7.643  -6.737  0.00  0.00    -0.222 OA
ENDROOT
BRANCH   1   9
ATOM      8  C   UNL     1       0.739   5.415  -4.058  0.00  0.00    +0.002 C 
ATOM      9  C   UNL     1       1.911   5.001  -4.525  0.00  0.00    -0.026 C 
BRANCH   8  10
ATOM     10  C   UNL     1       0.587   5.043  -2.481  0.00  0.00    +0.174 C 
ATOM     11  O   UNL     1       1.541   6.161  -2.078  0.00  0.00    -0.218 OA
BRANCH  10  12
ATOM     12  C   UNL     1      -0.769   5.967  -2.335  0.00  0.00    +0.037 C 
BRANCH  12  13
ATOM     13  C   UNL     1      -1.892   5.413  -3.072  0.00  0.00    +0.003 C 
BRANCH  13  14
ATOM     14  C   UNL     1      -2.914   6.524  -3.287  0.00  0.00    +0.000 C 
BRANCH  14  16
ATOM     15  C   UNL     1      -1.989   8.040  -4.735  0.00  0.00    +0.000 C 
ATOM     16  C   UNL     1      -2.092   7.756  -3.637  0.00  0.00    +0.000 C 
ENDBRANCH  14  16
ENDBRANCH  13  14
ENDBRANCH  12  13
ENDBRANCH  10  12
ENDBRANCH   8  10
ENDBRANCH   1   9
BRANCH   2  17
ATOM     17  C   UNL     1       4.494   5.795  -7.027  0.00  0.00    +0.008 C 
BRANCH  17  18
ATOM     18  C   UNL     1       4.498   4.816  -8.201  0.00  0.00    +0.000 C 
BRANCH  18  19
ATOM     19  C   UNL     1       3.865   5.307  -9.403  0.00  0.00    +0.000 C 
BRANCH  19  20
ATOM     20  C   UNL     1       4.509   6.114 -10.410  0.00  0.00    +0.001 C 
BRANCH  20  21
ATOM     21  C   UNL     1       5.998   5.935 -10.418  0.00  0.00    +0.012 C 
BRANCH  21  22
ATOM     22  C   UNL     1       6.551   6.498 -11.722  0.00  0.00    +0.114 C 
BRANCH  22  23
ATOM     23  C   UNL     1       6.709   5.306 -12.613  0.00  0.00    +0.365 C 
ATOM     24  O   UNL     1       7.914   4.615 -12.613  0.00  0.00    -0.246 OA
ATOM     25  O   UNL     1       5.818   4.973 -13.427  0.00  0.00    -0.246 OA
ENDBRANCH  22  23
ENDBRANCH  21  22
ENDBRANCH  20  21
ENDBRANCH  19  20
ENDBRANCH  18  19
ENDBRANCH  17  18
ENDBRANCH   2  17
TORSDOF 13
ENDMDL
MODEL 9
REMARK VINA RESULT:      -6.1      2.551      4.030
REMARK  Name = 
REMARK  13 active torsions:
REMARK  status: ('A' for Active; 'I' for Inactive)
REMARK    1  A    between atoms: C_2  and  C_3
REMARK    2  A    between atoms: C_3  and  C_4
REMARK    3  A    between atoms: C_4  and  C_5
REMARK    4  A    between atoms: C_5  and  C_6
REMARK    5  A    between atoms: C_6  and  C_8
REMARK    6  A    between atoms: C_9  and  C_10
REMARK    7  A    between atoms: C_16  and  C_17
REMARK    8  A    between atoms: C_17  and  C_18
REMARK    9  A    between atoms: C_18  and  C_19
REMARK   10  A    between atoms: C_19  and  C_20
REMARK   11  A    between atoms: C_20  and  C_21
REMARK   12  A    between atoms: C_21  and  C_22
REMARK   13  A    between atoms: C_22  and  C_23
REMARK                            x       y       z     vdW  Elec       q    Type
REMARK                         _______ _______ _______ _____ _____    ______ ____
ROOT
ATOM      1  C   UNL     1       1.152   6.662  -5.392  0.00  0.00    +0.059 C 
ATOM      2  C   UNL     1       1.436   6.776  -7.040  0.00  0.00    +0.064 C 
ATOM      3  C   UNL     1       0.648   5.435  -7.396  0.00  0.00    +0.153 C 
ATOM      4  O   UNL     1      -0.228   5.492  -8.217  0.00  0.00    -0.296 OA
ATOM      5  C   UNL     1       1.476   4.536  -6.721  0.00  0.00    +0.098 C 
ATOM      6  C   UNL     1       1.119   4.981  -5.201  0.00  0.00    +0.164 C 
ATOM      7  O   UNL     1       2.577   4.986  -4.771  0.00  0.00    -0.222 OA
ENDROOT
BRANCH   1   9
ATOM      8  C   UNL     1      -1.080   7.612  -4.894  0.00  0.00    +0.002 C 
ATOM      9  C   UNL     1      -0.426   6.702  -5.606  0.00  0.00    -0.026 C 
BRANCH   8  10
ATOM     10  C   UNL     1      -2.684   7.353  -4.969  0.00  0.00    +0.174 C 
ATOM     11  O   UNL     1      -2.491   6.112  -5.831  0.00  0.00    -0.218 OA
BRANCH  10  12
ATOM     12  C   UNL     1      -2.675   6.527  -3.543  0.00  0.00    +0.037 C 
BRANCH  12  13
ATOM     13  C   UNL     1      -2.191   7.341  -2.441  0.00  0.00    +0.003 C 
BRANCH  13  14
ATOM     14  C   UNL     1      -2.072   6.451  -1.209  0.00  0.00    +0.000 C 
BRANCH  14  16
ATOM     15  C   UNL     1      -1.672   7.097   0.952  0.00  0.00    +0.000 C 
ATOM     16  C   UNL     1      -2.173   7.400  -0.024  0.00  0.00    +0.000 C 
ENDBRANCH  14  16
ENDBRANCH  13  14
ENDBRANCH  12  13
ENDBRANCH  10  12
ENDBRANCH   8  10
ENDBRANCH   1   9
BRANCH   2  17
ATOM     17  C   UNL     1       2.961   6.189  -6.959  0.00  0.00    +0.008 C 
BRANCH  17  18
ATOM     18  C   UNL     1       3.512   6.719  -8.282  0.00  0.00    +0.000 C 
BRANCH  18  19
ATOM     19  C   UNL     1       4.307   5.774  -9.032  0.00  0.00    +0.000 C 
BRANCH  19  20
ATOM     20  C   UNL     1       5.586   5.251  -8.616  0.00  0.00    +0.001 C 
BRANCH  20  21
ATOM     21  C   UNL     1       6.711   5.750  -9.474  0.00  0.00    +0.012 C 
BRANCH  21  22
ATOM     22  C   UNL     1       6.255   5.742 -10.929  0.00  0.00    +0.114 C 
BRANCH  22  23
ATOM     23  C   UNL     1       7.504   5.498 -11.716  0.00  0.00    +0.365 C 
ATOM     24  O   UNL     1       7.470   4.603 -12.779  0.00  0.00    -0.246 OA
ATOM     25  O   UNL     1       8.598   6.006 -11.384  0.00  0.00    -0.246 OA
ENDBRANCH  22  23
ENDBRANCH  21  22
ENDBRANCH  20  21
ENDBRANCH  19  20
ENDBRANCH  18  19
ENDBRANCH  17  18
ENDBRANCH   2  17
TORSDOF 13
ENDMDL
