MODEL 1
REMARK VINA RESULT:      -6.7      0.000      0.000
REMARK  Name = 
REMARK  4 active torsions:
REMARK  status: ('A' for Active; 'I' for Inactive)
REMARK    1  A    between atoms: C_2  and  C_3
REMARK    2  A    between atoms: C_3  and  N_4
REMARK    3  A    between atoms: N_7  and  S_8
REMARK    4  A    between atoms: S_8  and  C_11
REMARK                            x       y       z     vdW  Elec       q    Type
REMARK                         _______ _______ _______ _____ _____    ______ ____
ROOT
ATOM      1  S   UNL     1       2.543   7.205  -7.396  0.00  0.00    +0.104 S 
ATOM      2  O   UNL     1       3.143   7.398  -6.027  0.00  0.00    -0.146 OA
ATOM      3  O   UNL     1       2.246   8.598  -7.904  0.00  0.00    -0.146 OA
ENDROOT
BRANCH   1   4
ATOM      4  C   UNL     1       3.755   6.524  -8.455  0.00  0.00    +0.129 A 
ATOM      5  C   UNL     1       4.644   5.577  -7.977  0.00  0.00    +0.021 A 
ATOM      6  C   UNL     1       5.800   5.240  -8.650  0.00  0.00    +0.013 A 
ATOM      7  C   UNL     1       5.872   5.632  -9.974  0.00  0.00    +0.058 A 
ATOM      8 CL   UNL     1       7.414   5.613 -10.781  0.00  0.00    -0.082 Cl
ATOM      9  C   UNL     1       4.850   6.333 -10.559  0.00  0.00    +0.013 A 
ATOM     10  C   UNL     1       3.785   6.792  -9.809  0.00  0.00    +0.021 A 
ENDBRANCH   1   4
BRANCH   1  13
ATOM     11  N   UNL     1      -0.321   5.044  -5.914  0.00  0.00    -0.184 NA
ATOM     12  C   UNL     1       0.968   5.321  -6.451  0.00  0.00    +0.371 C 
ATOM     13  N   UNL     1       1.124   6.233  -7.329  0.00  0.00    -0.071 NA
ATOM     14  O   UNL     1       2.135   4.765  -5.919  0.00  0.00    -0.244 OA
BRANCH  11  15
ATOM     15  C   UNL     1      -1.436   5.061  -6.853  0.00  0.00    +0.117 C 
BRANCH  15  17
ATOM     16  C   UNL     1      -2.282   6.867  -5.321  0.00  0.00    +0.002 C 
ATOM     17  C   UNL     1      -2.633   5.614  -6.088  0.00  0.00    +0.023 C 
ENDBRANCH  15  17
ENDBRANCH  11  15
ENDBRANCH   1  13
TORSDOF 4
ENDMDL
MODEL 2
REMARK VINA RESULT:      -6.6      3.108      4.116
REMARK  Name = 
REMARK  4 active torsions:
REMARK  status: ('A' for Active; 'I' for Inactive)
REMARK    1  A    between atoms: C_2  and  C_3
REMARK    2  A    between atoms: C_3  and  N_4
REMARK    3  A    between atoms: N_7  and  S_8
REMARK    4  A    between atoms: S_8  and  C_11
REMARK                            x       y       z     vdW  Elec       q    Type
REMARK                         _______ _______ _______ _____ _____    ______ ____
ROOT
ATOM      1  S   UNL     1       3.963   5.478  -8.645  0.00  0.00    +0.104 S 
ATOM      2  O   UNL     1       2.829   6.356  -9.109  0.00  0.00    -0.146 OA
ATOM      3  O   UNL     1       3.570   4.073  -9.043  0.00  0.00    -0.146 OA
ENDROOT
BRANCH   1   4
ATOM      4  C   UNL     1       5.400   5.881  -9.552  0.00  0.00    +0.129 A 
ATOM      5  C   UNL     1       5.323   6.751 -10.627  0.00  0.00    +0.021 A 
ATOM      6  C   UNL     1       6.331   6.864 -11.562  0.00  0.00    +0.013 A 
ATOM      7  C   UNL     1       7.556   6.329 -11.208  0.00  0.00    +0.058 A 
ATOM      8 CL   UNL     1       8.754   6.063 -12.442  0.00  0.00    -0.082 Cl
ATOM      9  C   UNL     1       7.731   5.706  -9.999  0.00  0.00    +0.013 A 
ATOM     10  C   UNL     1       6.659   5.471  -9.162  0.00  0.00    +0.021 A 
ENDBRANCH   1   4
BRANCH   1  13
ATOM     11  N   UNL     1       3.709   4.681  -4.854  0.00  0.00    -0.184 NA
ATOM     12  C   UNL     1       3.327   5.250  -6.103  0.00  0.00    +0.371 C 
ATOM     13  N   UNL     1       4.211   5.616  -6.947  0.00  0.00    -0.071 NA
ATOM     14  O   UNL     1       2.002   5.259  -6.546  0.00  0.00    -0.244 OA
BRANCH  11  15
ATOM     15  C   UNL     1       4.854   5.285  -4.185  0.00  0.00    +0.117 C 
BRANCH  15  17
ATOM     16  C   UNL     1       5.094   7.784  -4.044  0.00  0.00    +0.002 C 
ATOM     17  C   UNL     1       4.347   6.571  -3.542  0.00  0.00    +0.023 C 
ENDBRANCH  15  17
ENDBRANCH  11  15
ENDBRANCH   1  13
TORSDOF 4
ENDMDL
MODEL 3
REMARK VINA RESULT:      -6.5      2.881      3.939
REMARK  Name = 
REMARK  4 active torsions:
REMARK  status: ('A' for Active; 'I' for Inactive)
REMARK    1  A    between atoms: C_2  and  C_3
REMARK    2  A    between atoms: C_3  and  N_4
REMARK    3  A    between atoms: N_7  and  S_8
REMARK    4  A    between atoms: S_8  and  C_11
REMARK                            x       y       z     vdW  Elec       q    Type
REMARK                         _______ _______ _______ _____ _____    ______ ____
ROOT
ATOM      1  S   UNL     1       3.569   5.664  -8.929  0.00  0.00    +0.104 S 
ATOM      2  O   UNL     1       2.489   6.376  -9.702  0.00  0.00    -0.146 OA
ATOM      3  O   UNL     1       3.299   4.189  -9.129  0.00  0.00    -0.146 OA
ENDROOT
BRANCH   1   4
ATOM      4  C   UNL     1       5.114   6.004  -9.670  0.00  0.00    +0.129 A 
ATOM      5  C   UNL     1       5.193   6.865 -10.751  0.00  0.00    +0.021 A 
ATOM      6  C   UNL     1       6.303   6.930 -11.567  0.00  0.00    +0.013 A 
ATOM      7  C   UNL     1       7.459   6.353 -11.073  0.00  0.00    +0.058 A 
ATOM      8 CL   UNL     1       8.778   6.030 -12.161  0.00  0.00    -0.082 Cl
ATOM      9  C   UNL     1       7.472   5.737  -9.848  0.00  0.00    +0.013 A 
ATOM     10  C   UNL     1       6.304   5.550  -9.136  0.00  0.00    +0.021 A 
ENDBRANCH   1   4
BRANCH   1  13
ATOM     11  N   UNL     1       2.218   6.965  -5.530  0.00  0.00    -0.184 NA
ATOM     12  C   UNL     1       2.808   7.046  -6.824  0.00  0.00    +0.371 C 
ATOM     13  N   UNL     1       3.541   6.099  -7.264  0.00  0.00    -0.071 NA
ATOM     14  O   UNL     1       2.469   8.046  -7.739  0.00  0.00    -0.244 OA
BRANCH  11  15
ATOM     15  C   UNL     1       3.048   6.409  -4.469  0.00  0.00    +0.117 C 
BRANCH  15  17
ATOM     16  C   UNL     1       5.183   7.698  -4.154  0.00  0.00    +0.002 C 
ATOM     17  C   UNL     1       3.723   7.593  -3.785  0.00  0.00    +0.023 C 
ENDBRANCH  15  17
ENDBRANCH  11  15
ENDBRANCH   1  13
TORSDOF 4
ENDMDL
MODEL 4
REMARK VINA RESULT:      -6.4      1.742      2.185
REMARK  Name = 
REMARK  4 active torsions:
REMARK  status: ('A' for Active; 'I' for Inactive)
REMARK    1  A    between atoms: C_2  and  C_3
REMARK    2  A    between atoms: C_3  and  N_4
REMARK    3  A    between atoms: N_7  and  S_8
REMARK    4  A    between atoms: S_8  and  C_11
REMARK                            x       y       z     vdW  Elec       q    Type
REMARK                         _______ _______ _______ _____ _____    ______ ____
ROOT
ATOM      1  S   UNL     1       1.532   5.891  -9.265  0.00  0.00    +0.104 S 
ATOM      2  O   UNL     1       1.047   7.173  -9.892  0.00  0.00    -0.146 OA
ATOM      3  O   UNL     1       0.896   4.783 -10.074  0.00  0.00    -0.146 OA
ENDROOT
BRANCH   1   4
ATOM      4  C   UNL     1       3.259   5.764  -9.498  0.00  0.00    +0.129 A 
ATOM      5  C   UNL     1       4.015   4.953  -8.669  0.00  0.00    +0.021 A 
ATOM      6  C   UNL     1       5.389   5.048  -8.592  0.00  0.00    +0.013 A 
ATOM      7  C   UNL     1       6.011   5.745  -9.612  0.00  0.00    +0.058 A 
ATOM      8 CL   UNL     1       7.661   6.258  -9.404  0.00  0.00    -0.082 Cl
ATOM      9  C   UNL     1       5.283   6.319 -10.622  0.00  0.00    +0.013 A 
ATOM     10  C   UNL     1       3.903   6.341 -10.575  0.00  0.00    +0.021 A 
ENDBRANCH   1   4
BRANCH   1  13
ATOM     11  N   UNL     1       0.313   7.017  -5.755  0.00  0.00    -0.184 NA
ATOM     12  C   UNL     1       1.244   6.788  -6.809  0.00  0.00    +0.371 C 
ATOM     13  N   UNL     1       1.097   5.800  -7.603  0.00  0.00    -0.071 NA
ATOM     14  O   UNL     1       2.233   7.715  -7.148  0.00  0.00    -0.244 OA
BRANCH  11  15
ATOM     15  C   UNL     1      -0.168   5.840  -5.043  0.00  0.00    +0.117 C 
BRANCH  15  17
ATOM     16  C   UNL     1      -2.314   5.551  -6.321  0.00  0.00    +0.002 C 
ATOM     17  C   UNL     1      -1.688   5.951  -5.006  0.00  0.00    +0.023 C 
ENDBRANCH  15  17
ENDBRANCH  11  15
ENDBRANCH   1  13
TORSDOF 4
ENDMDL
MODEL 5
REMARK VINA RESULT:      -6.4      4.313      6.659
REMARK  Name = 
REMARK  4 active torsions:
REMARK  status: ('A' for Active; 'I' for Inactive)
REMARK    1  A    between atoms: C_2  and  C_3
REMARK    2  A    between atoms: C_3  and  N_4
REMARK    3  A    between atoms: N_7  and  S_8
REMARK    4  A    between atoms: S_8  and  C_11
REMARK                            x       y       z     vdW  Elec       q    Type
REMARK                         _______ _______ _______ _____ _____    ______ ____
ROOT
ATOM      1  S   UNL     1       3.575   5.543  -6.786  0.00  0.00    +0.104 S 
ATOM      2  O   UNL     1       2.809   4.248  -6.703  0.00  0.00    -0.146 OA
ATOM      3  O   UNL     1       2.571   6.574  -7.252  0.00  0.00    -0.146 OA
ENDROOT
BRANCH   1   4
ATOM      4  C   UNL     1       4.074   6.010  -5.178  0.00  0.00    +0.129 A 
ATOM      5  C   UNL     1       4.209   5.054  -4.186  0.00  0.00    +0.021 A 
ATOM      6  C   UNL     1       4.287   5.380  -2.848  0.00  0.00    +0.013 A 
ATOM      7  C   UNL     1       4.562   6.703  -2.557  0.00  0.00    +0.058 A 
ATOM      8 CL   UNL     1       4.290   7.291  -0.943  0.00  0.00    -0.082 Cl
ATOM      9  C   UNL     1       4.725   7.627  -3.558  0.00  0.00    +0.013 A 
ATOM     10  C   UNL     1       4.478   7.295  -4.875  0.00  0.00    +0.021 A 
ENDBRANCH   1   4
BRANCH   1  13
ATOM     11  N   UNL     1       5.640   5.793 -10.064  0.00  0.00    -0.184 NA
ATOM     12  C   UNL     1       4.752   5.210  -9.115  0.00  0.00    +0.371 C 
ATOM     13  N   UNL     1       4.909   5.416  -7.866  0.00  0.00    -0.071 NA
ATOM     14  O   UNL     1       3.574   4.560  -9.494  0.00  0.00    -0.244 OA
BRANCH  11  15
ATOM     15  C   UNL     1       7.054   5.808  -9.710  0.00  0.00    +0.117 C 
BRANCH  15  17
ATOM     16  C   UNL     1       6.673   7.812 -11.179  0.00  0.00    +0.002 C 
ATOM     17  C   UNL     1       7.700   6.890 -10.567  0.00  0.00    +0.023 C 
ENDBRANCH  15  17
ENDBRANCH  11  15
ENDBRANCH   1  13
TORSDOF 4
ENDMDL
MODEL 6
REMARK VINA RESULT:      -6.3      3.642      6.742
REMARK  Name = 
REMARK  4 active torsions:
REMARK  status: ('A' for Active; 'I' for Inactive)
REMARK    1  A    between atoms: C_2  and  C_3
REMARK    2  A    between atoms: C_3  and  N_4
REMARK    3  A    between atoms: N_7  and  S_8
REMARK    4  A    between atoms: S_8  and  C_11
REMARK                            x       y       z     vdW  Elec       q    Type
REMARK                         _______ _______ _______ _____ _____    ______ ____
ROOT
ATOM      1  S   UNL     1       1.883   4.879  -8.936  0.00  0.00    +0.104 S 
ATOM      2  O   UNL     1       2.454   3.531  -8.580  0.00  0.00    -0.146 OA
ATOM      3  O   UNL     1       0.858   4.608 -10.015  0.00  0.00    -0.146 OA
ENDROOT
BRANCH   1   4
ATOM      4  C   UNL     1       1.015   5.509  -7.557  0.00  0.00    +0.129 A 
ATOM      5  C   UNL     1      -0.282   5.098  -7.304  0.00  0.00    +0.021 A 
ATOM      6  C   UNL     1      -1.120   5.775  -6.442  0.00  0.00    +0.013 A 
ATOM      7  C   UNL     1      -0.515   6.678  -5.587  0.00  0.00    +0.058 A 
ATOM      8 CL   UNL     1      -1.498   7.850  -4.758  0.00  0.00    -0.082 Cl
ATOM      9  C   UNL     1       0.840   6.888  -5.625  0.00  0.00    +0.013 A 
ATOM     10  C   UNL     1       1.618   6.314  -6.610  0.00  0.00    +0.021 A 
ENDBRANCH   1   4
BRANCH   1  13
ATOM     11  N   UNL     1       5.380   6.158 -10.034  0.00  0.00    -0.184 NA
ATOM     12  C   UNL     1       4.330   5.825  -9.131  0.00  0.00    +0.371 C 
ATOM     13  N   UNL     1       3.109   5.959  -9.476  0.00  0.00    -0.071 NA
ATOM     14  O   UNL     1       4.565   5.163  -7.922  0.00  0.00    -0.244 OA
BRANCH  11  15
ATOM     15  C   UNL     1       5.193   7.361 -10.836  0.00  0.00    +0.117 C 
BRANCH  15  17
ATOM     16  C   UNL     1       7.667   7.108 -10.464  0.00  0.00    +0.002 C 
ATOM     17  C   UNL     1       6.587   7.838 -11.226  0.00  0.00    +0.023 C 
ENDBRANCH  15  17
ENDBRANCH  11  15
ENDBRANCH   1  13
TORSDOF 4
ENDMDL
MODEL 7
REMARK VINA RESULT:      -6.3      3.268      4.319
REMARK  Name = 
REMARK  4 active torsions:
REMARK  status: ('A' for Active; 'I' for Inactive)
REMARK    1  A    between atoms: C_2  and  C_3
REMARK    2  A    between atoms: C_3  and  N_4
REMARK    3  A    between atoms: N_7  and  S_8
REMARK    4  A    between atoms: S_8  and  C_11
REMARK                            x       y       z     vdW  Elec       q    Type
REMARK                         _______ _______ _______ _____ _____    ______ ____
ROOT
ATOM      1  S   UNL     1       3.567   5.953  -9.168  0.00  0.00    +0.104 S 
ATOM      2  O   UNL     1       3.615   5.007  -7.996  0.00  0.00    -0.146 OA
ATOM      3  O   UNL     1       3.133   7.283  -8.592  0.00  0.00    -0.146 OA
ENDROOT
BRANCH   1   4
ATOM      4  C   UNL     1       5.186   6.171  -9.788  0.00  0.00    +0.129 A 
ATOM      5  C   UNL     1       5.421   7.064 -10.819  0.00  0.00    +0.021 A 
ATOM      6  C   UNL     1       6.587   7.055 -11.556  0.00  0.00    +0.013 A 
ATOM      7  C   UNL     1       7.645   6.347 -11.015  0.00  0.00    +0.058 A 
ATOM      8 CL   UNL     1       9.001   5.943 -12.028  0.00  0.00    -0.082 Cl
ATOM      9  C   UNL     1       7.515   5.683  -9.823  0.00  0.00    +0.013 A 
ATOM     10  C   UNL     1       6.287   5.581  -9.200  0.00  0.00    +0.021 A 
ENDBRANCH   1   4
BRANCH   1  13
ATOM     11  N   UNL     1       0.363   5.705 -11.347  0.00  0.00    -0.184 NA
ATOM     12  C   UNL     1       1.214   5.453 -10.233  0.00  0.00    +0.371 C 
ATOM     13  N   UNL     1       2.480   5.397 -10.381  0.00  0.00    -0.071 NA
ATOM     14  O   UNL     1       0.741   5.449  -8.917  0.00  0.00    -0.244 OA
BRANCH  11  15
ATOM     15  C   UNL     1       0.714   5.045 -12.598  0.00  0.00    +0.117 C 
BRANCH  15  17
ATOM     16  C   UNL     1       0.400   7.453 -13.248  0.00  0.00    +0.002 C 
ATOM     17  C   UNL     1       1.090   6.151 -13.577  0.00  0.00    +0.023 C 
ENDBRANCH  15  17
ENDBRANCH  11  15
ENDBRANCH   1  13
TORSDOF 4
ENDMDL
MODEL 8
REMARK VINA RESULT:      -6.1      3.608      6.425
REMARK  Name = 
REMARK  4 active torsions:
REMARK  status: ('A' for Active; 'I' for Inactive)
REMARK    1  A    between atoms: C_2  and  C_3
REMARK    2  A    between atoms: C_3  and  N_4
REMARK    3  A    between atoms: N_7  and  S_8
REMARK    4  A    between atoms: S_8  and  C_11
REMARK                            x       y       z     vdW  Elec       q    Type
REMARK                         _______ _______ _______ _____ _____    ______ ____
ROOT
ATOM      1  S   UNL     1       2.722   6.744  -8.493  0.00  0.00    +0.104 S 
ATOM      2  O   UNL     1       1.657   5.962  -9.219  0.00  0.00    -0.146 OA
ATOM      3  O   UNL     1       2.093   8.084  -8.181  0.00  0.00    -0.146 OA
ENDROOT
BRANCH   1   4
ATOM      4  C   UNL     1       3.051   5.968  -6.963  0.00  0.00    +0.129 A 
ATOM      5  C   UNL     1       2.026   5.366  -6.254  0.00  0.00    +0.021 A 
ATOM      6  C   UNL     1       2.147   5.022  -4.923  0.00  0.00    +0.013 A 
ATOM      7  C   UNL     1       3.433   4.994  -4.415  0.00  0.00    +0.058 A 
ATOM      8 CL   UNL     1       3.662   4.968  -2.690  0.00  0.00    -0.082 Cl
ATOM      9  C   UNL     1       4.510   5.312  -5.201  0.00  0.00    +0.013 A 
ATOM     10  C   UNL     1       4.333   5.807  -6.478  0.00  0.00    +0.021 A 
ENDBRANCH   1   4
BRANCH   1  13
ATOM     11  N   UNL     1       5.183   6.296 -11.462  0.00  0.00    -0.184 NA
ATOM     12  C   UNL     1       4.550   5.984 -10.224  0.00  0.00    +0.371 C 
ATOM     13  N   UNL     1       4.142   6.912  -9.451  0.00  0.00    -0.071 NA
ATOM     14  O   UNL     1       4.173   4.681  -9.885  0.00  0.00    -0.244 OA
BRANCH  11  15
ATOM     15  C   UNL     1       6.114   7.417 -11.453  0.00  0.00    +0.117 C 
BRANCH  15  17
ATOM     16  C   UNL     1       8.078   5.915 -11.907  0.00  0.00    +0.002 C 
ATOM     17  C   UNL     1       7.438   6.872 -10.930  0.00  0.00    +0.023 C 
ENDBRANCH  15  17
ENDBRANCH  11  15
ENDBRANCH   1  13
TORSDOF 4
ENDMDL
MODEL 9
REMARK VINA RESULT:      -6.1      3.796      6.722
REMARK  Name = 
REMARK  4 active torsions:
REMARK  status: ('A' for Active; 'I' for Inactive)
REMARK    1  A    between atoms: C_2  and  C_3
REMARK    2  A    between atoms: C_3  and  N_4
REMARK    3  A    between atoms: N_7  and  S_8
REMARK    4  A    between atoms: S_8  and  C_11
REMARK                            x       y       z     vdW  Elec       q    Type
REMARK                         _______ _______ _______ _____ _____    ______ ____
ROOT
ATOM      1  S   UNL     1       1.006   5.762  -9.771  0.00  0.00    +0.104 S 
ATOM      2  O   UNL     1       0.325   4.550 -10.354  0.00  0.00    -0.146 OA
ATOM      3  O   UNL     1       0.383   6.948 -10.472  0.00  0.00    -0.146 OA
ENDROOT
BRANCH   1   4
ATOM      4  C   UNL     1       0.583   5.890  -8.081  0.00  0.00    +0.129 A 
ATOM      5  C   UNL     1       1.375   6.632  -7.221  0.00  0.00    +0.021 A 
ATOM      6  C   UNL     1       1.286   6.520  -5.848  0.00  0.00    +0.013 A 
ATOM      7  C   UNL     1       0.153   5.894  -5.360  0.00  0.00    +0.058 A 
ATOM      8 CL   UNL     1       0.131   5.352  -3.706  0.00  0.00    -0.082 Cl
ATOM      9  C   UNL     1      -0.804   5.401  -6.210  0.00  0.00    +0.013 A 
ATOM     10  C   UNL     1      -0.599   5.388  -7.575  0.00  0.00    +0.021 A 
ENDBRANCH   1   4
BRANCH   1  13
ATOM     11  N   UNL     1       4.500   6.536 -11.275  0.00  0.00    -0.184 NA
ATOM     12  C   UNL     1       3.240   5.883 -11.154  0.00  0.00    +0.371 C 
ATOM     13  N   UNL     1       2.709   5.701 -10.008  0.00  0.00    -0.071 NA
ATOM     14  O   UNL     1       2.441   5.590 -12.263  0.00  0.00    -0.244 OA
BRANCH  11  15
ATOM     15  C   UNL     1       5.509   6.195 -10.279  0.00  0.00    +0.117 C 
BRANCH  15  17
ATOM     16  C   UNL     1       6.524   8.194 -11.416  0.00  0.00    +0.002 C 
ATOM     17  C   UNL     1       6.796   6.883 -10.718  0.00  0.00    +0.023 C 
ENDBRANCH  15  17
ENDBRANCH  11  15
ENDBRANCH   1  13
TORSDOF 4
ENDMDL
