MODEL 1
REMARK VINA RESULT:      -6.8      0.000      0.000
REMARK  Name = 
REMARK  6 active torsions:
REMARK  status: ('A' for Active; 'I' for Inactive)
REMARK    1  A    between atoms: N_2  and  C_4
REMARK    2  A    between atoms: C_4  and  C_5
REMARK    3  A    between atoms: C_5  and  O_6
REMARK    4  A    between atoms: O_6  and  C_7
REMARK    5  A    between atoms: C_7  and  C_8
REMARK    6  A    between atoms: C_7  and  C_14
REMARK                            x       y       z     vdW  Elec       q    Type
REMARK                         _______ _______ _______ _____ _____    ______ ____
ROOT
ATOM      1  C   UNL     1       1.158   5.918  -6.252  0.00  0.00    +0.160 C 
ENDROOT
BRANCH   1   2
ATOM      2  C   UNL     1       2.273   6.091  -5.270  0.00  0.00    +0.009 A 
ATOM      3  C   UNL     1       3.198   7.083  -5.576  0.00  0.00    -0.002 A 
ATOM      4  C   UNL     1       4.452   6.997  -4.993  0.00  0.00    -0.000 A 
ATOM      5  C   UNL     1       4.968   5.763  -4.622  0.00  0.00    -0.000 A 
ATOM      6  C   UNL     1       4.070   4.734  -4.361  0.00  0.00    -0.000 A 
ATOM      7  C   UNL     1       2.718   4.983  -4.558  0.00  0.00    -0.002 A 
ENDBRANCH   1   2
BRANCH   1   8
ATOM      8  C   UNL     1      -0.171   6.017  -5.605  0.00  0.00    +0.009 A 
ATOM      9  C   UNL     1      -1.291   5.450  -6.198  0.00  0.00    -0.002 A 
ATOM     10  C   UNL     1      -2.522   6.094  -6.180  0.00  0.00    -0.000 A 
ATOM     11  C   UNL     1      -2.678   7.268  -5.454  0.00  0.00    -0.000 A 
ATOM     12  C   UNL     1      -1.641   7.707  -4.665  0.00  0.00    -0.000 A 
ATOM     13  C   UNL     1      -0.424   7.039  -4.706  0.00  0.00    -0.002 A 
ENDBRANCH   1   8
BRANCH   1  14
ATOM     14  O   UNL     1       1.309   4.747  -6.972  0.00  0.00    -0.346 OA
BRANCH  14  15
ATOM     15  C   UNL     1       1.825   4.941  -8.243  0.00  0.00    +0.160 C 
BRANCH  15  16
ATOM     16  C   UNL     1       2.802   3.861  -8.621  0.00  0.00    +0.105 C 
BRANCH  16  18
ATOM     17  C   UNL     1       4.836   5.109  -8.283  0.00  0.00    +0.090 C 
ATOM     18  N   UNL     1       4.004   4.399  -9.250  0.00  0.00    -0.268 NA
ATOM     19  C   UNL     1       3.534   5.399 -10.205  0.00  0.00    +0.090 C 
ENDBRANCH  16  18
ENDBRANCH  15  16
ENDBRANCH  14  15
ENDBRANCH   1  14
TORSDOF 6
ENDMDL
MODEL 2
REMARK VINA RESULT:      -6.7      1.985      2.543
REMARK  Name = 
REMARK  6 active torsions:
REMARK  status: ('A' for Active; 'I' for Inactive)
REMARK    1  A    between atoms: N_2  and  C_4
REMARK    2  A    between atoms: C_4  and  C_5
REMARK    3  A    between atoms: C_5  and  O_6
REMARK    4  A    between atoms: O_6  and  C_7
REMARK    5  A    between atoms: C_7  and  C_8
REMARK    6  A    between atoms: C_7  and  C_14
REMARK                            x       y       z     vdW  Elec       q    Type
REMARK                         _______ _______ _______ _____ _____    ______ ____
ROOT
ATOM      1  C   UNL     1       1.311   5.974  -7.166  0.00  0.00    +0.160 C 
ENDROOT
BRANCH   1   2
ATOM      2  C   UNL     1       2.629   5.840  -6.472  0.00  0.00    +0.009 A 
ATOM      3  C   UNL     1       2.750   4.755  -5.611  0.00  0.00    -0.002 A 
ATOM      4  C   UNL     1       3.720   4.820  -4.624  0.00  0.00    -0.000 A 
ATOM      5  C   UNL     1       4.138   6.050  -4.133  0.00  0.00    -0.000 A 
ATOM      6  C   UNL     1       3.981   7.163  -4.950  0.00  0.00    -0.000 A 
ATOM      7  C   UNL     1       3.352   6.990  -6.176  0.00  0.00    -0.002 A 
ENDBRANCH   1   2
BRANCH   1   8
ATOM      8  C   UNL     1       0.176   5.927  -6.214  0.00  0.00    +0.009 A 
ATOM      9  C   UNL     1      -0.988   5.239  -6.533  0.00  0.00    -0.002 A 
ATOM     10  C   UNL     1      -2.238   5.743  -6.202  0.00  0.00    -0.000 A 
ATOM     11  C   UNL     1      -2.339   6.895  -5.431  0.00  0.00    -0.000 A 
ATOM     12  C   UNL     1      -1.194   7.446  -4.905  0.00  0.00    -0.000 A 
ATOM     13  C   UNL     1       0.041   6.916  -5.256  0.00  0.00    -0.002 A 
ENDBRANCH   1   8
BRANCH   1  14
ATOM     14  O   UNL     1       1.188   5.042  -8.180  0.00  0.00    -0.346 OA
BRANCH  14  15
ATOM     15  C   UNL     1       1.790   5.431  -9.365  0.00  0.00    +0.160 C 
BRANCH  15  16
ATOM     16  C   UNL     1       1.111   6.630  -9.970  0.00  0.00    +0.105 C 
BRANCH  16  18
ATOM     17  C   UNL     1       0.022   5.103 -11.484  0.00  0.00    +0.090 C 
ATOM     18  N   UNL     1      -0.139   6.281 -10.635  0.00  0.00    -0.268 NA
ATOM     19  C   UNL     1      -0.435   7.397 -11.529  0.00  0.00    +0.090 C 
ENDBRANCH  16  18
ENDBRANCH  15  16
ENDBRANCH  14  15
ENDBRANCH   1  14
TORSDOF 6
ENDMDL
MODEL 3
REMARK VINA RESULT:      -6.7      2.096      4.221
REMARK  Name = 
REMARK  6 active torsions:
REMARK  status: ('A' for Active; 'I' for Inactive)
REMARK    1  A    between atoms: N_2  and  C_4
REMARK    2  A    between atoms: C_4  and  C_5
REMARK    3  A    between atoms: C_5  and  O_6
REMARK    4  A    between atoms: O_6  and  C_7
REMARK    5  A    between atoms: C_7  and  C_8
REMARK    6  A    between atoms: C_7  and  C_14
REMARK                            x       y       z     vdW  Elec       q    Type
REMARK                         _______ _______ _______ _____ _____    ______ ____
ROOT
ATOM      1  C   UNL     1       0.970   5.801  -8.081  0.00  0.00    +0.160 C 
ENDROOT
BRANCH   1   2
ATOM      2  C   UNL     1       0.247   5.709  -9.387  0.00  0.00    +0.009 A 
ATOM      3  C   UNL     1       0.437   4.531 -10.099  0.00  0.00    -0.002 A 
ATOM      4  C   UNL     1       0.192   4.555 -11.463  0.00  0.00    -0.000 A 
ATOM      5  C   UNL     1       0.325   5.738 -12.177  0.00  0.00    -0.000 A 
ATOM      6  C   UNL     1       0.194   6.935 -11.483  0.00  0.00    -0.000 A 
ATOM      7  C   UNL     1       0.010   6.874 -10.107  0.00  0.00    -0.002 A 
ENDBRANCH   1   2
BRANCH   1   8
ATOM      8  C   UNL     1       0.047   5.687  -6.927  0.00  0.00    +0.009 A 
ATOM      9  C   UNL     1      -1.226   5.158  -7.089  0.00  0.00    -0.002 A 
ATOM     10  C   UNL     1      -2.322   5.698  -6.428  0.00  0.00    -0.000 A 
ATOM     11  C   UNL     1      -2.136   6.708  -5.492  0.00  0.00    -0.000 A 
ATOM     12  C   UNL     1      -0.855   7.069  -5.146  0.00  0.00    -0.000 A 
ATOM     13  C   UNL     1       0.218   6.509  -5.826  0.00  0.00    -0.002 A 
ENDBRANCH   1   8
BRANCH   1  14
ATOM     14  O   UNL     1       1.747   6.944  -8.025  0.00  0.00    -0.346 OA
BRANCH  14  15
ATOM     15  C   UNL     1       3.093   6.711  -8.255  0.00  0.00    +0.160 C 
BRANCH  15  16
ATOM     16  C   UNL     1       3.471   5.283  -7.966  0.00  0.00    +0.105 C 
BRANCH  16  18
ATOM     17  C   UNL     1       5.768   5.302  -8.695  0.00  0.00    +0.090 C 
ATOM     18  N   UNL     1       4.433   4.760  -8.930  0.00  0.00    -0.268 NA
ATOM     19  C   UNL     1       4.003   5.269 -10.230  0.00  0.00    +0.090 C 
ENDBRANCH  16  18
ENDBRANCH  15  16
ENDBRANCH  14  15
ENDBRANCH   1  14
TORSDOF 6
ENDMDL
MODEL 4
REMARK VINA RESULT:      -6.7      3.767      6.222
REMARK  Name = 
REMARK  6 active torsions:
REMARK  status: ('A' for Active; 'I' for Inactive)
REMARK    1  A    between atoms: N_2  and  C_4
REMARK    2  A    between atoms: C_4  and  C_5
REMARK    3  A    between atoms: C_5  and  O_6
REMARK    4  A    between atoms: O_6  and  C_7
REMARK    5  A    between atoms: C_7  and  C_8
REMARK    6  A    between atoms: C_7  and  C_14
REMARK                            x       y       z     vdW  Elec       q    Type
REMARK                         _______ _______ _______ _____ _____    ______ ____
ROOT
ATOM      1  C   UNL     1       4.069   6.475 -11.264  0.00  0.00    +0.160 C 
ENDROOT
BRANCH   1   2
ATOM      2  C   UNL     1       5.495   6.567 -11.702  0.00  0.00    +0.009 A 
ATOM      3  C   UNL     1       5.990   5.461 -12.382  0.00  0.00    -0.002 A 
ATOM      4  C   UNL     1       7.363   5.281 -12.410  0.00  0.00    -0.000 A 
ATOM      5  C   UNL     1       8.156   5.782 -11.386  0.00  0.00    -0.000 A 
ATOM      6  C   UNL     1       7.665   6.856 -10.651  0.00  0.00    -0.000 A 
ATOM      7  C   UNL     1       6.386   7.314 -10.939  0.00  0.00    -0.002 A 
ENDBRANCH   1   2
BRANCH   1   8
ATOM      8  C   UNL     1       3.950   6.071  -9.843  0.00  0.00    +0.009 A 
ATOM      9  C   UNL     1       4.028   4.733  -9.478  0.00  0.00    -0.002 A 
ATOM     10  C   UNL     1       3.206   4.203  -8.493  0.00  0.00    -0.000 A 
ATOM     11  C   UNL     1       2.369   5.041  -7.765  0.00  0.00    -0.000 A 
ATOM     12  C   UNL     1       2.463   6.401  -7.951  0.00  0.00    -0.000 A 
ATOM     13  C   UNL     1       3.297   6.897  -8.944  0.00  0.00    -0.002 A 
ENDBRANCH   1   8
BRANCH   1  14
ATOM     14  O   UNL     1       3.343   5.655 -12.108  0.00  0.00    -0.346 OA
BRANCH  14  15
ATOM     15  C   UNL     1       2.196   6.251 -12.606  0.00  0.00    +0.160 C 
BRANCH  15  16
ATOM     16  C   UNL     1       1.061   5.270 -12.724  0.00  0.00    +0.105 C 
BRANCH  16  18
ATOM     17  C   UNL     1       0.221   6.770 -11.034  0.00  0.00    +0.090 C 
ATOM     18  N   UNL     1       0.033   5.490 -11.712  0.00  0.00    -0.268 NA
ATOM     19  C   UNL     1       0.244   4.454 -10.704  0.00  0.00    +0.090 C 
ENDBRANCH  16  18
ENDBRANCH  15  16
ENDBRANCH  14  15
ENDBRANCH   1  14
TORSDOF 6
ENDMDL
MODEL 5
REMARK VINA RESULT:      -6.6      2.061      4.602
REMARK  Name = 
REMARK  6 active torsions:
REMARK  status: ('A' for Active; 'I' for Inactive)
REMARK    1  A    between atoms: N_2  and  C_4
REMARK    2  A    between atoms: C_4  and  C_5
REMARK    3  A    between atoms: C_5  and  O_6
REMARK    4  A    between atoms: O_6  and  C_7
REMARK    5  A    between atoms: C_7  and  C_8
REMARK    6  A    between atoms: C_7  and  C_14
REMARK                            x       y       z     vdW  Elec       q    Type
REMARK                         _______ _______ _______ _____ _____    ______ ____
ROOT
ATOM      1  C   UNL     1       0.995   5.483  -8.090  0.00  0.00    +0.160 C 
ENDROOT
BRANCH   1   2
ATOM      2  C   UNL     1       0.068   5.482  -6.916  0.00  0.00    +0.009 A 
ATOM      3  C   UNL     1      -1.258   5.170  -7.195  0.00  0.00    -0.002 A 
ATOM      4  C   UNL     1      -2.222   5.584  -6.290  0.00  0.00    -0.000 A 
ATOM      5  C   UNL     1      -2.003   6.702  -5.496  0.00  0.00    -0.000 A 
ATOM      6  C   UNL     1      -0.688   7.071  -5.243  0.00  0.00    -0.000 A 
ATOM      7  C   UNL     1       0.325   6.344  -5.856  0.00  0.00    -0.002 A 
ENDBRANCH   1   2
BRANCH   1   8
ATOM      8  C   UNL     1       0.263   5.590  -9.374  0.00  0.00    +0.009 A 
ATOM      9  C   UNL     1       0.173   4.501 -10.230  0.00  0.00    -0.002 A 
ATOM     10  C   UNL     1       0.272   4.653 -11.607  0.00  0.00    -0.000 A 
ATOM     11  C   UNL     1       0.342   5.926 -12.159  0.00  0.00    -0.000 A 
ATOM     12  C   UNL     1       0.187   7.018 -11.337  0.00  0.00    -0.000 A 
ATOM     13  C   UNL     1       0.088   6.830  -9.965  0.00  0.00    -0.002 A 
ENDBRANCH   1   8
BRANCH   1  14
ATOM     14  O   UNL     1       1.841   4.391  -8.054  0.00  0.00    -0.346 OA
BRANCH  14  15
ATOM     15  C   UNL     1       3.170   4.726  -7.850  0.00  0.00    +0.160 C 
BRANCH  15  16
ATOM     16  C   UNL     1       4.000   4.497  -9.084  0.00  0.00    +0.105 C 
BRANCH  16  18
ATOM     17  C   UNL     1       3.867   5.762 -11.131  0.00  0.00    +0.090 C 
ATOM     18  N   UNL     1       4.351   5.745  -9.753  0.00  0.00    -0.268 NA
ATOM     19  C   UNL     1       5.809   5.757  -9.827  0.00  0.00    +0.090 C 
ENDBRANCH  16  18
ENDBRANCH  15  16
ENDBRANCH  14  15
ENDBRANCH   1  14
TORSDOF 6
ENDMDL
MODEL 6
REMARK VINA RESULT:      -6.6      3.313      6.497
REMARK  Name = 
REMARK  6 active torsions:
REMARK  status: ('A' for Active; 'I' for Inactive)
REMARK    1  A    between atoms: N_2  and  C_4
REMARK    2  A    between atoms: C_4  and  C_5
REMARK    3  A    between atoms: C_5  and  O_6
REMARK    4  A    between atoms: O_6  and  C_7
REMARK    5  A    between atoms: C_7  and  C_8
REMARK    6  A    between atoms: C_7  and  C_14
REMARK                            x       y       z     vdW  Elec       q    Type
REMARK                         _______ _______ _______ _____ _____    ______ ____
ROOT
ATOM      1  C   UNL     1       3.770   5.948 -10.432  0.00  0.00    +0.160 C 
ENDROOT
BRANCH   1   2
ATOM      2  C   UNL     1       2.835   6.044  -9.268  0.00  0.00    +0.009 A 
ATOM      3  C   UNL     1       2.703   7.308  -8.704  0.00  0.00    -0.002 A 
ATOM      4  C   UNL     1       2.243   7.387  -7.400  0.00  0.00    -0.000 A 
ATOM      5  C   UNL     1       2.454   6.335  -6.518  0.00  0.00    -0.000 A 
ATOM      6  C   UNL     1       2.643   5.066  -7.054  0.00  0.00    -0.000 A 
ATOM      7  C   UNL     1       2.682   4.941  -8.437  0.00  0.00    -0.002 A 
ENDBRANCH   1   2
BRANCH   1   8
ATOM      8  C   UNL     1       5.105   6.511 -10.119  0.00  0.00    +0.009 A 
ATOM      9  C   UNL     1       5.640   7.534 -10.891  0.00  0.00    -0.002 A 
ATOM     10  C   UNL     1       6.989   7.560 -11.221  0.00  0.00    -0.000 A 
ATOM     11  C   UNL     1       7.853   6.619 -10.674  0.00  0.00    -0.000 A 
ATOM     12  C   UNL     1       7.377   5.753  -9.718  0.00  0.00    -0.000 A 
ATOM     13  C   UNL     1       6.022   5.754  -9.411  0.00  0.00    -0.002 A 
ENDBRANCH   1   8
BRANCH   1  14
ATOM     14  O   UNL     1       3.211   6.511 -11.564  0.00  0.00    -0.346 OA
BRANCH  14  15
ATOM     15  C   UNL     1       2.373   5.651 -12.254  0.00  0.00    +0.160 C 
BRANCH  15  16
ATOM     16  C   UNL     1       1.206   6.377 -12.865  0.00  0.00    +0.105 C 
BRANCH  16  18
ATOM     17  C   UNL     1      -0.245   7.093 -11.078  0.00  0.00    +0.090 C 
ATOM     18  N   UNL     1      -0.040   6.121 -12.148  0.00  0.00    -0.268 NA
ATOM     19  C   UNL     1       0.138   4.824 -11.501  0.00  0.00    +0.090 C 
ENDBRANCH  16  18
ENDBRANCH  15  16
ENDBRANCH  14  15
ENDBRANCH   1  14
TORSDOF 6
ENDMDL
MODEL 7
REMARK VINA RESULT:      -6.6      3.036      6.655
REMARK  Name = 
REMARK  6 active torsions:
REMARK  status: ('A' for Active; 'I' for Inactive)
REMARK    1  A    between atoms: N_2  and  C_4
REMARK    2  A    between atoms: C_4  and  C_5
REMARK    3  A    between atoms: C_5  and  O_6
REMARK    4  A    between atoms: O_6  and  C_7
REMARK    5  A    between atoms: C_7  and  C_8
REMARK    6  A    between atoms: C_7  and  C_14
REMARK                            x       y       z     vdW  Elec       q    Type
REMARK                         _______ _______ _______ _____ _____    ______ ____
ROOT
ATOM      1  C   UNL     1       3.258   6.657  -8.642  0.00  0.00    +0.160 C 
ENDROOT
BRANCH   1   2
ATOM      2  C   UNL     1       1.946   6.100  -9.095  0.00  0.00    +0.009 A 
ATOM      3  C   UNL     1       1.958   4.766  -9.482  0.00  0.00    -0.002 A 
ATOM      4  C   UNL     1       0.941   4.326 -10.315  0.00  0.00    -0.000 A 
ATOM      5  C   UNL     1       0.307   5.214 -11.174  0.00  0.00    -0.000 A 
ATOM      6  C   UNL     1       0.323   6.563 -10.841  0.00  0.00    -0.000 A 
ATOM      7  C   UNL     1       1.033   6.949  -9.711  0.00  0.00    -0.002 A 
ENDBRANCH   1   2
BRANCH   1   8
ATOM      8  C   UNL     1       4.365   6.276  -9.552  0.00  0.00    +0.009 A 
ATOM      9  C   UNL     1       5.426   5.508  -9.092  0.00  0.00    -0.002 A 
ATOM     10  C   UNL     1       6.731   5.764  -9.494  0.00  0.00    -0.000 A 
ATOM     11  C   UNL     1       6.979   6.725 -10.467  0.00  0.00    -0.000 A 
ATOM     12  C   UNL     1       5.914   7.318 -11.104  0.00  0.00    -0.000 A 
ATOM     13  C   UNL     1       4.623   7.039 -10.678  0.00  0.00    -0.002 A 
ENDBRANCH   1   8
BRANCH   1  14
ATOM     14  O   UNL     1       3.514   6.315  -7.327  0.00  0.00    -0.346 OA
BRANCH  14  15
ATOM     15  C   UNL     1       2.837   7.101  -6.409  0.00  0.00    +0.160 C 
BRANCH  15  16
ATOM     16  C   UNL     1       3.246   6.789  -4.996  0.00  0.00    +0.105 C 
BRANCH  16  18
ATOM     17  C   UNL     1       4.845   5.249  -4.057  0.00  0.00    +0.090 C 
ATOM     18  N   UNL     1       4.657   6.429  -4.896  0.00  0.00    -0.268 NA
ATOM     19  C   UNL     1       5.298   7.540  -4.197  0.00  0.00    +0.090 C 
ENDBRANCH  16  18
ENDBRANCH  15  16
ENDBRANCH  14  15
ENDBRANCH   1  14
TORSDOF 6
ENDMDL
MODEL 8
REMARK VINA RESULT:      -6.5      3.064      5.089
REMARK  Name = 
REMARK  6 active torsions:
REMARK  status: ('A' for Active; 'I' for Inactive)
REMARK    1  A    between atoms: N_2  and  C_4
REMARK    2  A    between atoms: C_4  and  C_5
REMARK    3  A    between atoms: C_5  and  O_6
REMARK    4  A    between atoms: O_6  and  C_7
REMARK    5  A    between atoms: C_7  and  C_8
REMARK    6  A    between atoms: C_7  and  C_14
REMARK                            x       y       z     vdW  Elec       q    Type
REMARK                         _______ _______ _______ _____ _____    ______ ____
ROOT
ATOM      1  C   UNL     1       0.738   5.186  -4.508  0.00  0.00    +0.160 C 
ENDROOT
BRANCH   1   2
ATOM      2  C   UNL     1       1.968   4.913  -5.312  0.00  0.00    +0.009 A 
ATOM      3  C   UNL     1       2.820   5.996  -5.497  0.00  0.00    -0.002 A 
ATOM      4  C   UNL     1       3.699   5.949  -6.567  0.00  0.00    -0.000 A 
ATOM      5  C   UNL     1       3.386   5.208  -7.699  0.00  0.00    -0.000 A 
ATOM      6  C   UNL     1       2.495   4.151  -7.557  0.00  0.00    -0.000 A 
ATOM      7  C   UNL     1       1.918   3.946  -6.310  0.00  0.00    -0.002 A 
ENDBRANCH   1   2
BRANCH   1   8
ATOM      8  C   UNL     1      -0.215   6.062  -5.231  0.00  0.00    +0.009 A 
ATOM      9  C   UNL     1      -0.417   7.375  -4.827  0.00  0.00    -0.002 A 
ATOM     10  C   UNL     1      -1.682   7.947  -4.835  0.00  0.00    -0.000 A 
ATOM     11  C   UNL     1      -2.756   7.244  -5.370  0.00  0.00    -0.000 A 
ATOM     12  C   UNL     1      -2.520   6.042  -5.995  0.00  0.00    -0.000 A 
ATOM     13  C   UNL     1      -1.242   5.499  -5.969  0.00  0.00    -0.002 A 
ENDBRANCH   1   8
BRANCH   1  14
ATOM     14  O   UNL     1       1.062   5.679  -3.257  0.00  0.00    -0.346 OA
BRANCH  14  15
ATOM     15  C   UNL     1       0.420   5.022  -2.220  0.00  0.00    +0.160 C 
BRANCH  15  16
ATOM     16  C   UNL     1      -0.038   5.977  -1.151  0.00  0.00    +0.105 C 
BRANCH  16  18
ATOM     17  C   UNL     1      -1.810   7.426  -0.396  0.00  0.00    +0.090 C 
ATOM     18  N   UNL     1      -1.261   6.680  -1.525  0.00  0.00    -0.268 NA
ATOM     19  C   UNL     1      -2.232   5.637  -1.842  0.00  0.00    +0.090 C 
ENDBRANCH  16  18
ENDBRANCH  15  16
ENDBRANCH  14  15
ENDBRANCH   1  14
TORSDOF 6
ENDMDL
MODEL 9
REMARK VINA RESULT:      -6.4      2.935      5.647
REMARK  Name = 
REMARK  6 active torsions:
REMARK  status: ('A' for Active; 'I' for Inactive)
REMARK    1  A    between atoms: N_2  and  C_4
REMARK    2  A    between atoms: C_4  and  C_5
REMARK    3  A    between atoms: C_5  and  O_6
REMARK    4  A    between atoms: O_6  and  C_7
REMARK    5  A    between atoms: C_7  and  C_8
REMARK    6  A    between atoms: C_7  and  C_14
REMARK                            x       y       z     vdW  Elec       q    Type
REMARK                         _______ _______ _______ _____ _____    ______ ____
ROOT
ATOM      1  C   UNL     1       3.556   6.145  -9.556  0.00  0.00    +0.160 C 
ENDROOT
BRANCH   1   2
ATOM      2  C   UNL     1       4.908   6.125 -10.196  0.00  0.00    +0.009 A 
ATOM      3  C   UNL     1       5.922   5.544  -9.443  0.00  0.00    -0.002 A 
ATOM      4  C   UNL     1       7.229   5.888  -9.749  0.00  0.00    -0.000 A 
ATOM      5  C   UNL     1       7.513   7.119 -10.325  0.00  0.00    -0.000 A 
ATOM      6  C   UNL     1       6.502   7.751 -11.040  0.00  0.00    -0.000 A 
ATOM      7  C   UNL     1       5.251   7.147 -11.073  0.00  0.00    -0.002 A 
ENDBRANCH   1   2
BRANCH   1   8
ATOM      8  C   UNL     1       2.518   5.559 -10.437  0.00  0.00    +0.009 A 
ATOM      9  C   UNL     1       2.144   6.197 -11.612  0.00  0.00    -0.002 A 
ATOM     10  C   UNL     1       0.817   6.240 -12.020  0.00  0.00    -0.000 A 
ATOM     11  C   UNL     1      -0.148   5.533 -11.313  0.00  0.00    -0.000 A 
ATOM     12  C   UNL     1       0.250   4.702 -10.293  0.00  0.00    -0.000 A 
ATOM     13  C   UNL     1       1.585   4.682  -9.911  0.00  0.00    -0.002 A 
ENDBRANCH   1   8
BRANCH   1  14
ATOM     14  O   UNL     1       3.229   7.418  -9.129  0.00  0.00    -0.346 OA
BRANCH  14  15
ATOM     15  C   UNL     1       2.629   7.446  -7.881  0.00  0.00    +0.160 C 
BRANCH  15  16
ATOM     16  C   UNL     1       3.440   6.704  -6.853  0.00  0.00    +0.105 C 
BRANCH  16  18
ATOM     17  C   UNL     1       4.595   7.071  -4.770  0.00  0.00    +0.090 C 
ATOM     18  N   UNL     1       3.385   7.340  -5.541  0.00  0.00    -0.268 NA
ATOM     19  C   UNL     1       2.288   6.685  -4.833  0.00  0.00    +0.090 C 
ENDBRANCH  16  18
ENDBRANCH  15  16
ENDBRANCH  14  15
ENDBRANCH   1  14
TORSDOF 6
ENDMDL
