MODEL 1
REMARK VINA RESULT:     -10.1      0.000      0.000
REMARK  Name = 
REMARK  6 active torsions:
REMARK  status: ('A' for Active; 'I' for Inactive)
REMARK    1  A    between atoms: C_2  and  C_5
REMARK    2  A    between atoms: C_7  and  C_8
REMARK    3  A    between atoms: C_12  and  N_13
REMARK    4  A    between atoms: N_13  and  S_14
REMARK    5  A    between atoms: S_14  and  C_17
REMARK    6  A    between atoms: C_27  and  C_28
REMARK                            x       y       z     vdW  Elec       q    Type
REMARK                         _______ _______ _______ _____ _____    ______ ____
ROOT
ATOM      1  C   UNL     1       2.188   5.931  -4.948  0.00  0.00    +0.047 A 
ATOM      2  C   UNL     1       2.349   6.676  -6.110  0.00  0.00    +0.158 A 
ATOM      3  F   UNL     1       1.217   7.261  -6.591  0.00  0.00    -0.203 F 
ATOM      4  C   UNL     1       3.437   6.522  -6.947  0.00  0.00    +0.118 A 
ATOM      5  C   UNL     1       4.595   5.997  -6.392  0.00  0.00    +0.020 A 
ATOM      6  C   UNL     1       4.446   5.219  -5.257  0.00  0.00    +0.002 A 
ATOM      7  C   UNL     1       3.234   5.119  -4.586  0.00  0.00    +0.004 A 
ENDROOT
BRANCH   1  11
ATOM      8  C   UNL     1      -1.165   6.546  -3.824  0.00  0.00    +0.087 A 
ATOM      9  S   UNL     1      -0.466   6.539  -2.253  0.00  0.00    -0.069 S 
ATOM     10  C   UNL     1       1.180   6.360  -2.722  0.00  0.00    +0.066 A 
ATOM     11  C   UNL     1       1.013   6.145  -4.088  0.00  0.00    +0.091 A 
ATOM     12  N   UNL     1      -0.071   6.769  -4.553  0.00  0.00    -0.243 NA
BRANCH  10  13
ATOM     13  C   UNL     1       2.290   5.903  -1.872  0.00  0.00    +0.093 A 
ATOM     14  N   UNL     1       2.220   4.702  -1.244  0.00  0.00    -0.211 NA
ATOM     15  C   UNL     1       3.359   4.091  -0.892  0.00  0.00    +0.257 A 
ATOM     16  N   UNL     1       3.263   2.757  -0.432  0.00  0.00    -0.086 NA
ATOM     17  N   UNL     1       4.442   4.869  -0.729  0.00  0.00    -0.210 NA
ATOM     18  C   UNL     1       4.310   6.218  -0.716  0.00  0.00    +0.103 A 
ATOM     19  C   UNL     1       3.184   6.795  -1.293  0.00  0.00    +0.040 A 
ENDBRANCH  10  13
BRANCH   8  21
ATOM     20  C   UNL     1      -2.704   5.255  -5.154  0.00  0.00    +0.006 C 
ATOM     21  C   UNL     1      -2.602   6.463  -4.233  0.00  0.00    +0.041 C 
ATOM     22  C   UNL     1      -3.494   6.249  -3.043  0.00  0.00    +0.006 C 
ATOM     23  C   UNL     1      -2.936   7.702  -5.014  0.00  0.00    +0.006 C 
ENDBRANCH   8  21
ENDBRANCH   1  11
BRANCH   4  24
ATOM     24  N   UNL     1       3.366   6.844  -8.333  0.00  0.00    -0.094 NA
BRANCH  24  25
ATOM     25  S   UNL     1       3.893   5.677  -9.477  0.00  0.00    +0.097 S 
ATOM     26  O   UNL     1       2.981   5.709 -10.664  0.00  0.00    -0.148 OA
ATOM     27  O   UNL     1       3.788   4.304  -8.867  0.00  0.00    -0.148 OA
BRANCH  25  28
ATOM     28  C   UNL     1       5.524   5.964  -9.994  0.00  0.00    +0.182 A 
ATOM     29  C   UNL     1       5.849   7.142 -10.654  0.00  0.00    +0.161 A 
ATOM     30  F   UNL     1       4.897   8.088 -10.888  0.00  0.00    -0.203 F 
ATOM     31  C   UNL     1       7.087   7.209 -11.271  0.00  0.00    +0.031 A 
ATOM     32  C   UNL     1       8.021   6.227 -10.993  0.00  0.00    +0.005 A 
ATOM     33  C   UNL     1       7.827   5.455  -9.867  0.00  0.00    +0.031 A 
ATOM     34  C   UNL     1       6.563   5.321  -9.352  0.00  0.00    +0.161 A 
ATOM     35  F   UNL     1       6.395   4.536  -8.276  0.00  0.00    -0.203 F 
ENDBRANCH  25  28
ENDBRANCH  24  25
ENDBRANCH   4  24
TORSDOF 6
ENDMDL
MODEL 2
REMARK VINA RESULT:     -10.1      2.152      3.148
REMARK  Name = 
REMARK  6 active torsions:
REMARK  status: ('A' for Active; 'I' for Inactive)
REMARK    1  A    between atoms: C_2  and  C_5
REMARK    2  A    between atoms: C_7  and  C_8
REMARK    3  A    between atoms: C_12  and  N_13
REMARK    4  A    between atoms: N_13  and  S_14
REMARK    5  A    between atoms: S_14  and  C_17
REMARK    6  A    between atoms: C_27  and  C_28
REMARK                            x       y       z     vdW  Elec       q    Type
REMARK                         _______ _______ _______ _____ _____    ______ ____
ROOT
ATOM      1  C   UNL     1       2.451   5.686  -5.236  0.00  0.00    +0.047 A 
ATOM      2  C   UNL     1       2.715   6.383  -6.410  0.00  0.00    +0.158 A 
ATOM      3  F   UNL     1       1.632   6.951  -7.009  0.00  0.00    -0.203 F 
ATOM      4  C   UNL     1       3.870   6.193  -7.143  0.00  0.00    +0.118 A 
ATOM      5  C   UNL     1       4.973   5.689  -6.469  0.00  0.00    +0.020 A 
ATOM      6  C   UNL     1       4.723   4.958  -5.321  0.00  0.00    +0.002 A 
ATOM      7  C   UNL     1       3.457   4.887  -4.753  0.00  0.00    +0.004 A 
ENDROOT
BRANCH   1  11
ATOM      8  C   UNL     1      -0.995   6.286  -4.428  0.00  0.00    +0.087 A 
ATOM      9  S   UNL     1      -0.419   6.447  -2.815  0.00  0.00    -0.069 S 
ATOM     10  C   UNL     1       1.262   6.284  -3.142  0.00  0.00    +0.066 A 
ATOM     11  C   UNL     1       1.208   5.938  -4.490  0.00  0.00    +0.091 A 
ATOM     12  N   UNL     1       0.145   6.479  -5.092  0.00  0.00    -0.243 NA
BRANCH  10  13
ATOM     13  C   UNL     1       2.316   5.945  -2.173  0.00  0.00    +0.093 A 
ATOM     14  N   UNL     1       2.249   4.788  -1.468  0.00  0.00    -0.211 NA
ATOM     15  C   UNL     1       3.382   4.264  -0.979  0.00  0.00    +0.257 A 
ATOM     16  N   UNL     1       3.309   2.961  -0.434  0.00  0.00    -0.086 NA
ATOM     17  N   UNL     1       4.408   5.108  -0.785  0.00  0.00    -0.210 NA
ATOM     18  C   UNL     1       4.211   6.445  -0.880  0.00  0.00    +0.103 A 
ATOM     19  C   UNL     1       3.113   6.921  -1.588  0.00  0.00    +0.040 A 
ENDBRANCH  10  13
BRANCH   8  21
ATOM     20  C   UNL     1      -2.958   7.521  -5.084  0.00  0.00    +0.006 C 
ATOM     21  C   UNL     1      -2.393   6.115  -4.933  0.00  0.00    +0.041 C 
ATOM     22  C   UNL     1      -2.408   5.434  -6.272  0.00  0.00    +0.006 C 
ATOM     23  C   UNL     1      -3.181   5.383  -3.883  0.00  0.00    +0.006 C 
ENDBRANCH   8  21
ENDBRANCH   1  11
BRANCH   4  24
ATOM     24  N   UNL     1       3.920   6.458  -8.541  0.00  0.00    -0.094 NA
BRANCH  24  25
ATOM     25  S   UNL     1       3.777   5.141  -9.634  0.00  0.00    +0.097 S 
ATOM     26  O   UNL     1       3.887   3.857  -8.870  0.00  0.00    -0.148 OA
ATOM     27  O   UNL     1       4.923   5.183 -10.610  0.00  0.00    -0.148 OA
BRANCH  25  28
ATOM     28  C   UNL     1       2.272   5.172 -10.497  0.00  0.00    +0.182 A 
ATOM     29  C   UNL     1       1.083   4.891  -9.837  0.00  0.00    +0.161 A 
ATOM     30  F   UNL     1       1.085   4.603  -8.504  0.00  0.00    -0.203 F 
ATOM     31  C   UNL     1      -0.043   4.672 -10.611  0.00  0.00    +0.031 A 
ATOM     32  C   UNL     1       0.006   4.989 -11.957  0.00  0.00    +0.005 A 
ATOM     33  C   UNL     1       1.013   5.828 -12.384  0.00  0.00    +0.031 A 
ATOM     34  C   UNL     1       2.164   5.930 -11.646  0.00  0.00    +0.161 A 
ATOM     35  F   UNL     1       3.143   6.727 -12.101  0.00  0.00    -0.203 F 
ENDBRANCH  25  28
ENDBRANCH  24  25
ENDBRANCH   4  24
TORSDOF 6
ENDMDL
MODEL 3
REMARK VINA RESULT:      -9.9      4.359      8.714
REMARK  Name = 
REMARK  6 active torsions:
REMARK  status: ('A' for Active; 'I' for Inactive)
REMARK    1  A    between atoms: C_2  and  C_5
REMARK    2  A    between atoms: C_7  and  C_8
REMARK    3  A    between atoms: C_12  and  N_13
REMARK    4  A    between atoms: N_13  and  S_14
REMARK    5  A    between atoms: S_14  and  C_17
REMARK    6  A    between atoms: C_27  and  C_28
REMARK                            x       y       z     vdW  Elec       q    Type
REMARK                         _______ _______ _______ _____ _____    ______ ____
ROOT
ATOM      1  C   UNL     1       0.088   5.932  -6.100  0.00  0.00    +0.047 A 
ATOM      2  C   UNL     1      -0.698   6.785  -5.334  0.00  0.00    +0.158 A 
ATOM      3  F   UNL     1      -0.029   7.518  -4.402  0.00  0.00    -0.203 F 
ATOM      4  C   UNL     1      -2.066   6.629  -5.216  0.00  0.00    +0.118 A 
ATOM      5  C   UNL     1      -2.716   5.946  -6.232  0.00  0.00    +0.020 A 
ATOM      6  C   UNL     1      -1.955   5.062  -6.978  0.00  0.00    +0.002 A 
ATOM      7  C   UNL     1      -0.573   4.995  -6.856  0.00  0.00    +0.004 A 
ENDROOT
BRANCH   1  11
ATOM      8  C   UNL     1       3.528   6.506  -5.252  0.00  0.00    +0.087 A 
ATOM      9  S   UNL     1       3.765   6.587  -6.954  0.00  0.00    -0.069 S 
ATOM     10  C   UNL     1       2.119   6.433  -7.434  0.00  0.00    +0.066 A 
ATOM     11  C   UNL     1       1.539   6.152  -6.199  0.00  0.00    +0.091 A 
ATOM     12  N   UNL     1       2.214   6.726  -5.199  0.00  0.00    -0.243 NA
BRANCH  10  13
ATOM     13  C   UNL     1       1.626   6.043  -8.764  0.00  0.00    +0.093 A 
ATOM     14  N   UNL     1       0.638   6.756  -9.361  0.00  0.00    -0.211 NA
ATOM     15  C   UNL     1       0.532   6.716 -10.696  0.00  0.00    +0.257 A 
ATOM     16  N   UNL     1      -0.367   7.626 -11.301  0.00  0.00    -0.086 NA
ATOM     17  N   UNL     1       1.054   5.646 -11.317  0.00  0.00    -0.210 NA
ATOM     18  C   UNL     1       1.467   4.578 -10.591  0.00  0.00    +0.103 A 
ATOM     19  C   UNL     1       1.760   4.746  -9.243  0.00  0.00    +0.040 A 
ENDBRANCH  10  13
BRANCH   8  21
ATOM     20  C   UNL     1       3.768   6.598  -2.856  0.00  0.00    +0.006 C 
ATOM     21  C   UNL     1       4.532   6.365  -4.151  0.00  0.00    +0.041 C 
ATOM     22  C   UNL     1       5.125   4.984  -4.129  0.00  0.00    +0.006 C 
ATOM     23  C   UNL     1       5.558   7.451  -4.316  0.00  0.00    +0.006 C 
ENDBRANCH   8  21
ENDBRANCH   1  11
BRANCH   4  24
ATOM     24  N   UNL     1      -2.777   7.108  -4.079  0.00  0.00    -0.094 NA
BRANCH  24  25
ATOM     25  S   UNL     1      -2.890   6.100  -2.694  0.00  0.00    +0.097 S 
ATOM     26  O   UNL     1      -3.125   4.688  -3.136  0.00  0.00    -0.148 OA
ATOM     27  O   UNL     1      -4.082   6.518  -1.875  0.00  0.00    -0.148 OA
BRANCH  25  28
ATOM     28  C   UNL     1      -1.457   6.169  -1.720  0.00  0.00    +0.182 A 
ATOM     29  C   UNL     1      -0.342   5.415  -2.064  0.00  0.00    +0.161 A 
ATOM     30  F   UNL     1      -0.358   4.627  -3.175  0.00  0.00    -0.203 F 
ATOM     31  C   UNL     1       0.669   5.301  -1.125  0.00  0.00    +0.031 A 
ATOM     32  C   UNL     1       0.641   6.131  -0.018  0.00  0.00    +0.005 A 
ATOM     33  C   UNL     1      -0.155   7.255  -0.075  0.00  0.00    +0.031 A 
ATOM     34  C   UNL     1      -1.219   7.283  -0.940  0.00  0.00    +0.161 A 
ATOM     35  F   UNL     1      -2.000   8.375  -0.952  0.00  0.00    -0.203 F 
ENDBRANCH  25  28
ENDBRANCH  24  25
ENDBRANCH   4  24
TORSDOF 6
ENDMDL
MODEL 4
REMARK VINA RESULT:      -9.9      3.324      9.415
REMARK  Name = 
REMARK  6 active torsions:
REMARK  status: ('A' for Active; 'I' for Inactive)
REMARK    1  A    between atoms: C_2  and  C_5
REMARK    2  A    between atoms: C_7  and  C_8
REMARK    3  A    between atoms: C_12  and  N_13
REMARK    4  A    between atoms: N_13  and  S_14
REMARK    5  A    between atoms: S_14  and  C_17
REMARK    6  A    between atoms: C_27  and  C_28
REMARK                            x       y       z     vdW  Elec       q    Type
REMARK                         _______ _______ _______ _____ _____    ______ ____
ROOT
ATOM      1  C   UNL     1       3.196   5.320  -8.398  0.00  0.00    +0.047 A 
ATOM      2  C   UNL     1       2.617   6.296  -7.595  0.00  0.00    +0.158 A 
ATOM      3  F   UNL     1       3.161   7.540  -7.702  0.00  0.00    -0.203 F 
ATOM      4  C   UNL     1       1.847   5.988  -6.491  0.00  0.00    +0.118 A 
ATOM      5  C   UNL     1       1.246   4.739  -6.465  0.00  0.00    +0.020 A 
ATOM      6  C   UNL     1       1.835   3.746  -7.228  0.00  0.00    +0.002 A 
ATOM      7  C   UNL     1       2.858   4.017  -8.127  0.00  0.00    +0.004 A 
ENDROOT
BRANCH   1  11
ATOM      8  C   UNL     1       5.962   6.160 -10.527  0.00  0.00    +0.087 A 
ATOM      9  S   UNL     1       4.749   6.464 -11.708  0.00  0.00    -0.069 S 
ATOM     10  C   UNL     1       3.370   6.190 -10.715  0.00  0.00    +0.066 A 
ATOM     11  C   UNL     1       3.998   5.706  -9.570  0.00  0.00    +0.091 A 
ATOM     12  N   UNL     1       5.218   6.228  -9.422  0.00  0.00    -0.243 NA
BRANCH  10  13
ATOM     13  C   UNL     1       2.001   5.908 -11.173  0.00  0.00    +0.093 A 
ATOM     14  N   UNL     1       1.783   5.445 -12.429  0.00  0.00    -0.211 NA
ATOM     15  C   UNL     1       0.661   4.755 -12.676  0.00  0.00    +0.257 A 
ATOM     16  N   UNL     1       0.561   4.110 -13.931  0.00  0.00    -0.086 NA
ATOM     17  N   UNL     1      -0.377   4.966 -11.851  0.00  0.00    -0.210 NA
ATOM     18  C   UNL     1      -0.335   5.986 -10.959  0.00  0.00    +0.103 A 
ATOM     19  C   UNL     1       0.896   6.517 -10.592  0.00  0.00    +0.040 A 
ENDBRANCH  10  13
BRANCH   8  21
ATOM     20  C   UNL     1       7.911   5.198  -9.487  0.00  0.00    +0.006 C 
ATOM     21  C   UNL     1       7.440   6.001 -10.692  0.00  0.00    +0.041 C 
ATOM     22  C   UNL     1       7.769   5.241 -11.947  0.00  0.00    +0.006 C 
ATOM     23  C   UNL     1       8.064   7.368 -10.642  0.00  0.00    +0.006 C 
ENDBRANCH   8  21
ENDBRANCH   1  11
BRANCH   4  24
ATOM     24  N   UNL     1       1.709   6.894  -5.400  0.00  0.00    -0.094 NA
BRANCH  24  25
ATOM     25  S   UNL     1       1.314   6.264  -3.852  0.00  0.00    +0.097 S 
ATOM     26  O   UNL     1       1.930   7.133  -2.799  0.00  0.00    -0.148 OA
ATOM     27  O   UNL     1       1.915   4.891  -3.710  0.00  0.00    -0.148 OA
BRANCH  25  28
ATOM     28  C   UNL     1      -0.401   6.181  -3.602  0.00  0.00    +0.182 A 
ATOM     29  C   UNL     1      -0.910   5.603  -2.446  0.00  0.00    +0.161 A 
ATOM     30  F   UNL     1      -0.070   5.110  -1.493  0.00  0.00    -0.203 F 
ATOM     31  C   UNL     1      -2.266   5.326  -2.412  0.00  0.00    +0.031 A 
ATOM     32  C   UNL     1      -3.076   5.858  -3.401  0.00  0.00    +0.005 A 
ATOM     33  C   UNL     1      -2.581   6.911  -4.140  0.00  0.00    +0.031 A 
ATOM     34  C   UNL     1      -1.225   7.083  -4.244  0.00  0.00    +0.161 A 
ATOM     35  F   UNL     1      -0.768   8.096  -4.998  0.00  0.00    -0.203 F 
ENDBRANCH  25  28
ENDBRANCH  24  25
ENDBRANCH   4  24
TORSDOF 6
ENDMDL
MODEL 5
REMARK VINA RESULT:      -9.9      3.782      9.283
REMARK  Name = 
REMARK  6 active torsions:
REMARK  status: ('A' for Active; 'I' for Inactive)
REMARK    1  A    between atoms: C_2  and  C_5
REMARK    2  A    between atoms: C_7  and  C_8
REMARK    3  A    between atoms: C_12  and  N_13
REMARK    4  A    between atoms: N_13  and  S_14
REMARK    5  A    between atoms: S_14  and  C_17
REMARK    6  A    between atoms: C_27  and  C_28
REMARK                            x       y       z     vdW  Elec       q    Type
REMARK                         _______ _______ _______ _____ _____    ______ ____
ROOT
ATOM      1  C   UNL     1       2.472   5.672 -10.219  0.00  0.00    +0.047 A 
ATOM      2  C   UNL     1       2.299   6.365  -9.027  0.00  0.00    +0.158 A 
ATOM      3  F   UNL     1       3.438   6.860  -8.468  0.00  0.00    -0.203 F 
ATOM      4  C   UNL     1       1.167   6.230  -8.247  0.00  0.00    +0.118 A 
ATOM      5  C   UNL     1       0.009   5.801  -8.878  0.00  0.00    +0.020 A 
ATOM      6  C   UNL     1       0.167   5.075 -10.046  0.00  0.00    +0.002 A 
ATOM      7  C   UNL     1       1.400   4.940 -10.668  0.00  0.00    +0.004 A 
ENDROOT
BRANCH   1  11
ATOM      8  C   UNL     1       5.894   6.206 -11.163  0.00  0.00    +0.087 A 
ATOM      9  S   UNL     1       5.276   6.235 -12.768  0.00  0.00    -0.069 S 
ATOM     10  C   UNL     1       3.604   6.097 -12.386  0.00  0.00    +0.066 A 
ATOM     11  C   UNL     1       3.694   5.862 -11.016  0.00  0.00    +0.091 A 
ATOM     12  N   UNL     1       4.770   6.451 -10.488  0.00  0.00    -0.243 NA
BRANCH  10  13
ATOM     13  C   UNL     1       2.527   5.680 -13.296  0.00  0.00    +0.093 A 
ATOM     14  N   UNL     1       2.498   4.415 -13.786  0.00  0.00    -0.211 NA
ATOM     15  C   UNL     1       1.326   3.908 -14.193  0.00  0.00    +0.257 A 
ATOM     16  N   UNL     1       1.291   2.527 -14.499  0.00  0.00    -0.086 NA
ATOM     17  N   UNL     1       0.373   4.785 -14.547  0.00  0.00    -0.210 NA
ATOM     18  C   UNL     1       0.680   6.098 -14.685  0.00  0.00    +0.103 A 
ATOM     19  C   UNL     1       1.813   6.599 -14.055  0.00  0.00    +0.040 A 
ENDBRANCH  10  13
BRANCH   8  21
ATOM     20  C   UNL     1       7.823   7.500 -10.523  0.00  0.00    +0.006 C 
ATOM     21  C   UNL     1       7.305   6.077 -10.682  0.00  0.00    +0.041 C 
ATOM     22  C   UNL     1       7.365   5.381  -9.352  0.00  0.00    +0.006 C 
ATOM     23  C   UNL     1       8.100   5.385 -11.754  0.00  0.00    +0.006 C 
ENDBRANCH   8  21
ENDBRANCH   1  11
BRANCH   4  24
ATOM     24  N   UNL     1       1.192   6.477  -6.844  0.00  0.00    -0.094 NA
BRANCH  24  25
ATOM     25  S   UNL     1       1.243   5.136  -5.774  0.00  0.00    +0.097 S 
ATOM     26  O   UNL     1       1.465   3.885  -6.567  0.00  0.00    -0.148 OA
ATOM     27  O   UNL     1      -0.091   5.001  -5.087  0.00  0.00    -0.148 OA
BRANCH  25  28
ATOM     28  C   UNL     1       2.498   5.297  -4.587  0.00  0.00    +0.182 A 
ATOM     29  C   UNL     1       3.832   5.254  -4.972  0.00  0.00    +0.161 A 
ATOM     30  F   UNL     1       4.167   5.099  -6.284  0.00  0.00    -0.203 F 
ATOM     31  C   UNL     1       4.783   5.124  -3.974  0.00  0.00    +0.031 A 
ATOM     32  C   UNL     1       4.390   5.297  -2.658  0.00  0.00    +0.005 A 
ATOM     33  C   UNL     1       3.193   5.939  -2.423  0.00  0.00    +0.031 A 
ATOM     34  C   UNL     1       2.230   5.946  -3.399  0.00  0.00    +0.161 A 
ATOM     35  F   UNL     1       1.059   6.548  -3.132  0.00  0.00    -0.203 F 
ENDBRANCH  25  28
ENDBRANCH  24  25
ENDBRANCH   4  24
TORSDOF 6
ENDMDL
MODEL 6
REMARK VINA RESULT:      -9.9      3.816      9.822
REMARK  Name = 
REMARK  6 active torsions:
REMARK  status: ('A' for Active; 'I' for Inactive)
REMARK    1  A    between atoms: C_2  and  C_5
REMARK    2  A    between atoms: C_7  and  C_8
REMARK    3  A    between atoms: C_12  and  N_13
REMARK    4  A    between atoms: N_13  and  S_14
REMARK    5  A    between atoms: S_14  and  C_17
REMARK    6  A    between atoms: C_27  and  C_28
REMARK                            x       y       z     vdW  Elec       q    Type
REMARK                         _______ _______ _______ _____ _____    ______ ____
ROOT
ATOM      1  C   UNL     1       2.373   5.721 -10.335  0.00  0.00    +0.047 A 
ATOM      2  C   UNL     1       2.430   5.474  -8.968  0.00  0.00    +0.158 A 
ATOM      3  F   UNL     1       3.620   4.995  -8.509  0.00  0.00    -0.203 F 
ATOM      4  C   UNL     1       1.297   5.323  -8.193  0.00  0.00    +0.118 A 
ATOM      5  C   UNL     1       0.126   5.899  -8.662  0.00  0.00    +0.020 A 
ATOM      6  C   UNL     1       0.039   6.114 -10.027  0.00  0.00    +0.002 A 
ATOM      7  C   UNL     1       1.129   5.947 -10.870  0.00  0.00    +0.004 A 
ENDROOT
BRANCH   1  11
ATOM      8  C   UNL     1       5.819   6.203 -11.219  0.00  0.00    +0.087 A 
ATOM      9  S   UNL     1       5.234   6.208 -12.836  0.00  0.00    -0.069 S 
ATOM     10  C   UNL     1       3.553   6.095 -12.485  0.00  0.00    +0.066 A 
ATOM     11  C   UNL     1       3.614   5.885 -11.109  0.00  0.00    +0.091 A 
ATOM     12  N   UNL     1       4.685   6.472 -10.571  0.00  0.00    -0.243 NA
BRANCH  10  13
ATOM     13  C   UNL     1       2.490   5.672 -13.410  0.00  0.00    +0.093 A 
ATOM     14  N   UNL     1       2.411   4.380 -13.815  0.00  0.00    -0.211 NA
ATOM     15  C   UNL     1       1.230   3.906 -14.234  0.00  0.00    +0.257 A 
ATOM     16  N   UNL     1       1.131   2.512 -14.449  0.00  0.00    -0.086 NA
ATOM     17  N   UNL     1       0.340   4.805 -14.686  0.00  0.00    -0.210 NA
ATOM     18  C   UNL     1       0.723   6.087 -14.899  0.00  0.00    +0.103 A 
ATOM     19  C   UNL     1       1.857   6.572 -14.258  0.00  0.00    +0.040 A 
ENDBRANCH  10  13
BRANCH   8  21
ATOM     20  C   UNL     1       7.745   7.489 -10.552  0.00  0.00    +0.006 C 
ATOM     21  C   UNL     1       7.219   6.069 -10.707  0.00  0.00    +0.041 C 
ATOM     22  C   UNL     1       7.246   5.387  -9.368  0.00  0.00    +0.006 C 
ATOM     23  C   UNL     1       8.031   5.359 -11.754  0.00  0.00    +0.006 C 
ENDBRANCH   8  21
ENDBRANCH   1  11
BRANCH   4  24
ATOM     24  N   UNL     1       1.314   4.570  -6.984  0.00  0.00    -0.094 NA
BRANCH  24  25
ATOM     25  S   UNL     1       1.860   5.332  -5.546  0.00  0.00    +0.097 S 
ATOM     26  O   UNL     1       2.342   6.712  -5.877  0.00  0.00    -0.148 OA
ATOM     27  O   UNL     1       3.034   4.567  -4.996  0.00  0.00    -0.148 OA
BRANCH  25  28
ATOM     28  C   UNL     1       0.611   5.431  -4.346  0.00  0.00    +0.182 A 
ATOM     29  C   UNL     1       0.941   5.475  -2.998  0.00  0.00    +0.161 A 
ATOM     30  F   UNL     1       2.246   5.457  -2.605  0.00  0.00    -0.203 F 
ATOM     31  C   UNL     1      -0.081   5.290  -2.082  0.00  0.00    +0.031 A 
ATOM     32  C   UNL     1      -1.389   5.325  -2.533  0.00  0.00    +0.005 A 
ATOM     33  C   UNL     1      -1.630   5.895  -3.764  0.00  0.00    +0.031 A 
ATOM     34  C   UNL     1      -0.619   5.956  -4.688  0.00  0.00    +0.161 A 
ATOM     35  F   UNL     1      -0.889   6.485  -5.892  0.00  0.00    -0.203 F 
ENDBRANCH  25  28
ENDBRANCH  24  25
ENDBRANCH   4  24
TORSDOF 6
ENDMDL
MODEL 7
REMARK VINA RESULT:      -9.9      3.332      9.059
REMARK  Name = 
REMARK  6 active torsions:
REMARK  status: ('A' for Active; 'I' for Inactive)
REMARK    1  A    between atoms: C_2  and  C_5
REMARK    2  A    between atoms: C_7  and  C_8
REMARK    3  A    between atoms: C_12  and  N_13
REMARK    4  A    between atoms: N_13  and  S_14
REMARK    5  A    between atoms: S_14  and  C_17
REMARK    6  A    between atoms: C_27  and  C_28
REMARK                            x       y       z     vdW  Elec       q    Type
REMARK                         _______ _______ _______ _____ _____    ______ ____
ROOT
ATOM      1  C   UNL     1       3.288   5.293  -8.338  0.00  0.00    +0.047 A 
ATOM      2  C   UNL     1       2.794   6.248  -7.458  0.00  0.00    +0.158 A 
ATOM      3  F   UNL     1       3.391   7.470  -7.524  0.00  0.00    -0.203 F 
ATOM      4  C   UNL     1       2.060   5.915  -6.336  0.00  0.00    +0.118 A 
ATOM      5  C   UNL     1       1.402   4.695  -6.348  0.00  0.00    +0.020 A 
ATOM      6  C   UNL     1       1.907   3.720  -7.190  0.00  0.00    +0.002 A 
ATOM      7  C   UNL     1       2.901   3.994  -8.121  0.00  0.00    +0.004 A 
ENDROOT
BRANCH   1  11
ATOM      8  C   UNL     1       5.985   6.206 -10.525  0.00  0.00    +0.087 A 
ATOM      9  S   UNL     1       4.738   6.503 -11.672  0.00  0.00    -0.069 S 
ATOM     10  C   UNL     1       3.390   6.193 -10.649  0.00  0.00    +0.066 A 
ATOM     11  C   UNL     1       4.054   5.707  -9.525  0.00  0.00    +0.091 A 
ATOM     12  N   UNL     1       5.268   6.248  -9.402  0.00  0.00    -0.243 NA
BRANCH  10  13
ATOM     13  C   UNL     1       2.014   5.892 -11.075  0.00  0.00    +0.093 A 
ATOM     14  N   UNL     1       1.768   5.477 -12.343  0.00  0.00    -0.211 NA
ATOM     15  C   UNL     1       0.657   4.767 -12.585  0.00  0.00    +0.257 A 
ATOM     16  N   UNL     1       0.534   4.174 -13.863  0.00  0.00    -0.086 NA
ATOM     17  N   UNL     1      -0.359   4.914 -11.719  0.00  0.00    -0.210 NA
ATOM     18  C   UNL     1      -0.315   5.895 -10.786  0.00  0.00    +0.103 A 
ATOM     19  C   UNL     1       0.912   6.444 -10.435  0.00  0.00    +0.040 A 
ENDBRANCH  10  13
BRANCH   8  21
ATOM     20  C   UNL     1       7.953   5.139  -9.633  0.00  0.00    +0.006 C 
ATOM     21  C   UNL     1       7.461   6.074 -10.729  0.00  0.00    +0.041 C 
ATOM     22  C   UNL     1       7.774   5.468 -12.068  0.00  0.00    +0.006 C 
ATOM     23  C   UNL     1       8.081   7.429 -10.529  0.00  0.00    +0.006 C 
ENDBRANCH   8  21
ENDBRANCH   1  11
BRANCH   4  24
ATOM     24  N   UNL     1       2.016   6.764  -5.193  0.00  0.00    -0.094 NA
BRANCH  24  25
ATOM     25  S   UNL     1       3.352   6.762  -4.114  0.00  0.00    +0.097 S 
ATOM     26  O   UNL     1       4.251   7.914  -4.447  0.00  0.00    -0.148 OA
ATOM     27  O   UNL     1       4.147   5.499  -4.315  0.00  0.00    -0.148 OA
BRANCH  25  28
ATOM     28  C   UNL     1       2.851   6.881  -2.458  0.00  0.00    +0.182 A 
ATOM     29  C   UNL     1       1.772   6.137  -2.000  0.00  0.00    +0.161 A 
ATOM     30  F   UNL     1       1.106   5.296  -2.841  0.00  0.00    -0.203 F 
ATOM     31  C   UNL     1       1.253   6.459  -0.757  0.00  0.00    +0.031 A 
ATOM     32  C   UNL     1       1.973   7.311   0.061  0.00  0.00    +0.005 A 
ATOM     33  C   UNL     1       3.308   7.503  -0.225  0.00  0.00    +0.031 A 
ATOM     34  C   UNL     1       3.761   7.283  -1.500  0.00  0.00    +0.161 A 
ATOM     35  F   UNL     1       5.058   7.511  -1.762  0.00  0.00    -0.203 F 
ENDBRANCH  25  28
ENDBRANCH  24  25
ENDBRANCH   4  24
TORSDOF 6
ENDMDL
MODEL 8
REMARK VINA RESULT:      -9.7      4.048      7.711
REMARK  Name = 
REMARK  6 active torsions:
REMARK  status: ('A' for Active; 'I' for Inactive)
REMARK    1  A    between atoms: C_2  and  C_5
REMARK    2  A    between atoms: C_7  and  C_8
REMARK    3  A    between atoms: C_12  and  N_13
REMARK    4  A    between atoms: N_13  and  S_14
REMARK    5  A    between atoms: S_14  and  C_17
REMARK    6  A    between atoms: C_27  and  C_28
REMARK                            x       y       z     vdW  Elec       q    Type
REMARK                         _______ _______ _______ _____ _____    ______ ____
ROOT
ATOM      1  C   UNL     1       2.632   5.590  -4.551  0.00  0.00    +0.047 A 
ATOM      2  C   UNL     1       2.882   6.244  -3.350  0.00  0.00    +0.158 A 
ATOM      3  F   UNL     1       1.954   7.172  -2.986  0.00  0.00    -0.203 F 
ATOM      4  C   UNL     1       4.135   6.278  -2.769  0.00  0.00    +0.118 A 
ATOM      5  C   UNL     1       5.019   5.265  -3.109  0.00  0.00    +0.020 A 
ATOM      6  C   UNL     1       4.807   4.631  -4.321  0.00  0.00    +0.002 A 
ATOM      7  C   UNL     1       3.664   4.852  -5.078  0.00  0.00    +0.004 A 
ENDROOT
BRANCH   1  11
ATOM      8  C   UNL     1      -0.934   5.797  -4.900  0.00  0.00    +0.087 A 
ATOM      9  S   UNL     1      -0.641   5.305  -6.521  0.00  0.00    -0.069 S 
ATOM     10  C   UNL     1       1.060   5.072  -6.399  0.00  0.00    +0.066 A 
ATOM     11  C   UNL     1       1.275   5.577  -5.119  0.00  0.00    +0.091 A 
ATOM     12  N   UNL     1       0.207   5.400  -4.337  0.00  0.00    -0.243 NA
BRANCH  10  13
ATOM     13  C   UNL     1       2.020   5.013  -7.511  0.00  0.00    +0.093 A 
ATOM     14  N   UNL     1       2.203   6.093  -8.313  0.00  0.00    -0.211 NA
ATOM     15  C   UNL     1       3.361   6.213  -8.977  0.00  0.00    +0.257 A 
ATOM     16  N   UNL     1       3.605   7.442  -9.634  0.00  0.00    -0.086 NA
ATOM     17  N   UNL     1       4.051   5.085  -9.206  0.00  0.00    -0.210 NA
ATOM     18  C   UNL     1       3.480   3.881  -8.959  0.00  0.00    +0.103 A 
ATOM     19  C   UNL     1       2.400   3.808  -8.087  0.00  0.00    +0.040 A 
ENDBRANCH  10  13
BRANCH   8  21
ATOM     20  C   UNL     1      -1.712   7.072  -3.008  0.00  0.00    +0.006 C 
ATOM     21  C   UNL     1      -2.168   6.378  -4.284  0.00  0.00    +0.041 C 
ATOM     22  C   UNL     1      -2.805   7.391  -5.193  0.00  0.00    +0.006 C 
ATOM     23  C   UNL     1      -3.085   5.243  -3.922  0.00  0.00    +0.006 C 
ENDBRANCH   8  21
ENDBRANCH   1  11
BRANCH   4  24
ATOM     24  N   UNL     1       4.523   7.331  -1.892  0.00  0.00    -0.094 NA
BRANCH  24  25
ATOM     25  S   UNL     1       4.174   7.179  -0.218  0.00  0.00    +0.097 S 
ATOM     26  O   UNL     1       5.381   7.582   0.572  0.00  0.00    -0.148 OA
ATOM     27  O   UNL     1       3.891   5.735   0.098  0.00  0.00    -0.148 OA
BRANCH  25  28
ATOM     28  C   UNL     1       2.822   8.158   0.256  0.00  0.00    +0.182 A 
ATOM     29  C   UNL     1       2.898   9.542   0.169  0.00  0.00    +0.161 A 
ATOM     30  F   UNL     1       4.027  10.143  -0.301  0.00  0.00    -0.203 F 
ATOM     31  C   UNL     1       1.907  10.278   0.797  0.00  0.00    +0.031 A 
ATOM     32  C   UNL     1       0.777   9.619   1.249  0.00  0.00    +0.005 A 
ATOM     33  C   UNL     1       0.520   8.363   0.744  0.00  0.00    +0.031 A 
ATOM     34  C   UNL     1       1.552   7.617   0.234  0.00  0.00    +0.161 A 
ATOM     35  F   UNL     1       1.280   6.383  -0.221  0.00  0.00    -0.203 F 
ENDBRANCH  25  28
ENDBRANCH  24  25
ENDBRANCH   4  24
TORSDOF 6
ENDMDL
MODEL 9
REMARK VINA RESULT:      -9.3      3.907      9.226
REMARK  Name = 
REMARK  6 active torsions:
REMARK  status: ('A' for Active; 'I' for Inactive)
REMARK    1  A    between atoms: C_2  and  C_5
REMARK    2  A    between atoms: C_7  and  C_8
REMARK    3  A    between atoms: C_12  and  N_13
REMARK    4  A    between atoms: N_13  and  S_14
REMARK    5  A    between atoms: S_14  and  C_17
REMARK    6  A    between atoms: C_27  and  C_28
REMARK                            x       y       z     vdW  Elec       q    Type
REMARK                         _______ _______ _______ _____ _____    ______ ____
ROOT
ATOM      1  C   UNL     1       2.202   5.589 -10.055  0.00  0.00    +0.047 A 
ATOM      2  C   UNL     1       2.309   5.461  -8.675  0.00  0.00    +0.158 A 
ATOM      3  F   UNL     1       3.553   5.159  -8.211  0.00  0.00    -0.203 F 
ATOM      4  C   UNL     1       1.214   5.245  -7.862  0.00  0.00    +0.118 A 
ATOM      5  C   UNL     1      -0.023   5.644  -8.345  0.00  0.00    +0.020 A 
ATOM      6  C   UNL     1      -0.157   5.737  -9.720  0.00  0.00    +0.002 A 
ATOM      7  C   UNL     1       0.932   5.628 -10.575  0.00  0.00    +0.004 A 
ENDROOT
BRANCH   1  11
ATOM      8  C   UNL     1       5.596   6.191 -11.058  0.00  0.00    +0.087 A 
ATOM      9  S   UNL     1       4.936   6.308 -12.641  0.00  0.00    -0.069 S 
ATOM     10  C   UNL     1       3.275   6.141 -12.223  0.00  0.00    +0.066 A 
ATOM     11  C   UNL     1       3.403   5.830 -10.872  0.00  0.00    +0.091 A 
ATOM     12  N   UNL     1       4.490   6.393 -10.340  0.00  0.00    -0.243 NA
BRANCH  10  13
ATOM     13  C   UNL     1       2.175   5.771 -13.127  0.00  0.00    +0.093 A 
ATOM     14  N   UNL     1       1.328   6.721 -13.597  0.00  0.00    -0.211 NA
ATOM     15  C   UNL     1       0.670   6.489 -14.741  0.00  0.00    +0.257 A 
ATOM     16  N   UNL     1      -0.039   7.573 -15.311  0.00  0.00    -0.086 NA
ATOM     17  N   UNL     1       0.498   5.205 -15.095  0.00  0.00    -0.210 NA
ATOM     18  C   UNL     1       0.793   4.217 -14.216  0.00  0.00    +0.103 A 
ATOM     19  C   UNL     1       1.657   4.483 -13.160  0.00  0.00    +0.040 A 
ENDBRANCH  10  13
BRANCH   8  21
ATOM     20  C   UNL     1       7.602   7.449 -10.606  0.00  0.00    +0.006 C 
ATOM     21  C   UNL     1       7.020   6.042 -10.622  0.00  0.00    +0.041 C 
ATOM     22  C   UNL     1       7.108   5.459  -9.240  0.00  0.00    +0.006 C 
ATOM     23  C   UNL     1       7.741   5.228 -11.660  0.00  0.00    +0.006 C 
ENDBRANCH   8  21
ENDBRANCH   1  11
BRANCH   4  24
ATOM     24  N   UNL     1       1.337   4.598  -6.599  0.00  0.00    -0.094 NA
BRANCH  24  25
ATOM     25  S   UNL     1       1.395   5.564  -5.182  0.00  0.00    +0.097 S 
ATOM     26  O   UNL     1       0.796   4.799  -4.042  0.00  0.00    -0.148 OA
ATOM     27  O   UNL     1       0.553   6.795  -5.388  0.00  0.00    -0.148 OA
BRANCH  25  28
ATOM     28  C   UNL     1       3.017   6.027  -4.775  0.00  0.00    +0.182 A 
ATOM     29  C   UNL     1       3.890   5.099  -4.223  0.00  0.00    +0.161 A 
ATOM     30  F   UNL     1       3.487   3.814  -4.008  0.00  0.00    -0.203 F 
ATOM     31  C   UNL     1       5.071   5.574  -3.680  0.00  0.00    +0.031 A 
ATOM     32  C   UNL     1       5.438   6.884  -3.935  0.00  0.00    +0.005 A 
ATOM     33  C   UNL     1       4.827   7.530  -4.988  0.00  0.00    +0.031 A 
ATOM     34  C   UNL     1       3.600   7.098  -5.423  0.00  0.00    +0.161 A 
ATOM     35  F   UNL     1       3.010   7.765  -6.428  0.00  0.00    -0.203 F 
ENDBRANCH  25  28
ENDBRANCH  24  25
ENDBRANCH   4  24
TORSDOF 6
ENDMDL
