MODEL 1
REMARK VINA RESULT:      -8.5      0.000      0.000
REMARK  Name = 
REMARK  3 active torsions:
REMARK  status: ('A' for Active; 'I' for Inactive)
REMARK    1  A    between atoms: C_5  and  C_6
REMARK    2  A    between atoms: C_15  and  C_16
REMARK    3  A    between atoms: C_16  and  C_17
REMARK                            x       y       z     vdW  Elec       q    Type
REMARK                         _______ _______ _______ _____ _____    ______ ____
ROOT
ATOM      1  C   UNL     1       2.187   5.766  -7.219  0.00  0.00    +0.095 A 
ATOM      2  C   UNL     1       1.863   5.886  -5.871  0.00  0.00    +0.069 A 
ATOM      3  N   UNL     1       0.525   6.102  -5.852  0.00  0.00    -0.292 N 
ATOM      4  C   UNL     1       0.059   5.416  -6.923  0.00  0.00    +0.148 A 
ATOM      5  C   UNL     1      -1.273   5.031  -6.947  0.00  0.00    +0.037 A 
ATOM      6  C   UNL     1      -2.165   5.829  -6.240  0.00  0.00    +0.000 A 
ATOM      7  C   UNL     1      -1.679   6.728  -5.312  0.00  0.00    -0.004 A 
ATOM      8  C   UNL     1      -2.544   7.843  -4.889  0.00  0.00    +0.033 C 
ATOM      9  C   UNL     1      -0.348   6.600  -4.948  0.00  0.00    +0.077 A 
ATOM     10  N   UNL     1       1.047   5.406  -7.847  0.00  0.00    -0.227 NA
ENDROOT
BRANCH   1  15
ATOM     11  C   UNL     1       5.595   5.406 -11.396  0.00  0.00    +0.031 C 
ATOM     12  C   UNL     1       5.138   6.015 -10.112  0.00  0.00    -0.022 A 
ATOM     13  C   UNL     1       5.473   5.441  -8.892  0.00  0.00    -0.004 A 
ATOM     14  C   UNL     1       4.545   5.391  -7.858  0.00  0.00    +0.001 A 
ATOM     15  C   UNL     1       3.421   6.177  -7.897  0.00  0.00    +0.019 A 
ATOM     16  C   UNL     1       3.342   7.094  -8.936  0.00  0.00    +0.001 A 
ATOM     17  C   UNL     1       4.146   6.981 -10.064  0.00  0.00    -0.004 A 
ENDBRANCH   1  15
BRANCH   2  18
ATOM     18  C   UNL     1       2.820   6.553  -4.952  0.00  0.00    +0.131 C 
BRANCH  18  19
ATOM     19  C   UNL     1       3.456   5.624  -3.995  0.00  0.00    +0.232 C 
ATOM     20  N   UNL     1       3.179   5.671  -2.588  0.00  0.00    -0.276 N 
ATOM     21  C   UNL     1       1.767   5.582  -2.224  0.00  0.00    +0.115 C 
ATOM     22  C   UNL     1       4.081   4.895  -1.740  0.00  0.00    +0.115 C 
ATOM     23  O   UNL     1       3.678   4.462  -4.457  0.00  0.00    -0.274 OA
ENDBRANCH  18  19
ENDBRANCH   2  18
TORSDOF 3
ENDMDL
MODEL 2
REMARK VINA RESULT:      -8.2      2.394      3.045
REMARK  Name = 
REMARK  3 active torsions:
REMARK  status: ('A' for Active; 'I' for Inactive)
REMARK    1  A    between atoms: C_5  and  C_6
REMARK    2  A    between atoms: C_15  and  C_16
REMARK    3  A    between atoms: C_16  and  C_17
REMARK                            x       y       z     vdW  Elec       q    Type
REMARK                         _______ _______ _______ _____ _____    ______ ____
ROOT
ATOM      1  C   UNL     1       0.613   5.988  -8.551  0.00  0.00    +0.095 A 
ATOM      2  C   UNL     1       1.115   6.290  -7.289  0.00  0.00    +0.069 A 
ATOM      3  N   UNL     1       0.021   6.429  -6.502  0.00  0.00    -0.292 N 
ATOM      4  C   UNL     1      -0.882   5.565  -7.026  0.00  0.00    +0.148 A 
ATOM      5  C   UNL     1      -1.916   5.106  -6.223  0.00  0.00    +0.037 A 
ATOM      6  C   UNL     1      -2.331   5.949  -5.199  0.00  0.00    +0.000 A 
ATOM      7  C   UNL     1      -1.524   7.003  -4.821  0.00  0.00    -0.004 A 
ATOM      8  C   UNL     1      -2.124   8.118  -4.067  0.00  0.00    +0.033 C 
ATOM      9  C   UNL     1      -0.226   7.007  -5.305  0.00  0.00    +0.077 A 
ATOM     10  N   UNL     1      -0.620   5.474  -8.350  0.00  0.00    -0.227 NA
ENDROOT
BRANCH   1  15
ATOM     11  C   UNL     1       1.197   5.048 -13.839  0.00  0.00    +0.031 C 
ATOM     12  C   UNL     1       1.389   5.882 -12.616  0.00  0.00    -0.022 A 
ATOM     13  C   UNL     1       2.446   5.642 -11.748  0.00  0.00    -0.004 A 
ATOM     14  C   UNL     1       2.263   5.731 -10.373  0.00  0.00    +0.001 A 
ATOM     15  C   UNL     1       1.157   6.362  -9.860  0.00  0.00    +0.019 A 
ATOM     16  C   UNL     1       0.332   7.003 -10.773  0.00  0.00    +0.001 A 
ATOM     17  C   UNL     1       0.399   6.722 -12.132  0.00  0.00    -0.004 A 
ENDBRANCH   1  15
BRANCH   2  18
ATOM     18  C   UNL     1       2.327   7.139  -7.176  0.00  0.00    +0.131 C 
BRANCH  18  19
ATOM     19  C   UNL     1       3.250   6.704  -6.106  0.00  0.00    +0.232 C 
ATOM     20  N   UNL     1       4.010   5.492  -6.201  0.00  0.00    -0.276 N 
ATOM     21  C   UNL     1       4.833   5.360  -7.401  0.00  0.00    +0.115 C 
ATOM     22  C   UNL     1       4.653   5.051  -4.965  0.00  0.00    +0.115 C 
ATOM     23  O   UNL     1       3.833   7.654  -5.497  0.00  0.00    -0.274 OA
ENDBRANCH  18  19
ENDBRANCH   2  18
TORSDOF 3
ENDMDL
MODEL 3
REMARK VINA RESULT:      -8.1      2.915      7.555
REMARK  Name = 
REMARK  3 active torsions:
REMARK  status: ('A' for Active; 'I' for Inactive)
REMARK    1  A    between atoms: C_5  and  C_6
REMARK    2  A    between atoms: C_15  and  C_16
REMARK    3  A    between atoms: C_16  and  C_17
REMARK                            x       y       z     vdW  Elec       q    Type
REMARK                         _______ _______ _______ _____ _____    ______ ____
ROOT
ATOM      1  C   UNL     1       2.262   5.736  -8.458  0.00  0.00    +0.095 A 
ATOM      2  C   UNL     1       2.591   5.769  -9.809  0.00  0.00    +0.069 A 
ATOM      3  N   UNL     1       3.928   5.988  -9.838  0.00  0.00    -0.292 N 
ATOM      4  C   UNL     1       4.392   5.375  -8.722  0.00  0.00    +0.148 A 
ATOM      5  C   UNL     1       5.726   4.998  -8.669  0.00  0.00    +0.037 A 
ATOM      6  C   UNL     1       6.617   5.752  -9.424  0.00  0.00    +0.000 A 
ATOM      7  C   UNL     1       6.131   6.586 -10.410  0.00  0.00    -0.004 A 
ATOM      8  C   UNL     1       6.994   7.675 -10.903  0.00  0.00    +0.033 C 
ATOM      9  C   UNL     1       4.802   6.430 -10.769  0.00  0.00    +0.077 A 
ATOM     10  N   UNL     1       3.401   5.422  -7.803  0.00  0.00    -0.227 NA
ENDROOT
BRANCH   1  15
ATOM     11  C   UNL     1      -1.235   5.525  -4.344  0.00  0.00    +0.031 C 
ATOM     12  C   UNL     1      -0.739   6.100  -5.630  0.00  0.00    -0.022 A 
ATOM     13  C   UNL     1      -1.063   5.512  -6.846  0.00  0.00    -0.004 A 
ATOM     14  C   UNL     1      -0.116   5.423  -7.860  0.00  0.00    +0.001 A 
ATOM     15  C   UNL     1       1.025   6.185  -7.811  0.00  0.00    +0.019 A 
ATOM     16  C   UNL     1       1.102   7.119  -6.787  0.00  0.00    +0.001 A 
ATOM     17  C   UNL     1       0.274   7.044  -5.674  0.00  0.00    -0.004 A 
ENDBRANCH   1  15
BRANCH   2  18
ATOM     18  C   UNL     1       1.634   6.369 -10.773  0.00  0.00    +0.131 C 
BRANCH  18  19
ATOM     19  C   UNL     1       1.063   5.389 -11.720  0.00  0.00    +0.232 C 
ATOM     20  N   UNL     1       1.400   5.391 -13.114  0.00  0.00    -0.276 N 
ATOM     21  C   UNL     1       2.828   5.325 -13.414  0.00  0.00    +0.115 C 
ATOM     22  C   UNL     1       0.555   4.561 -13.969  0.00  0.00    +0.115 C 
ATOM     23  O   UNL     1       0.850   4.240 -11.223  0.00  0.00    -0.274 OA
ENDBRANCH  18  19
ENDBRANCH   2  18
TORSDOF 3
ENDMDL
MODEL 4
REMARK VINA RESULT:      -8.0      2.044      4.833
REMARK  Name = 
REMARK  3 active torsions:
REMARK  status: ('A' for Active; 'I' for Inactive)
REMARK    1  A    between atoms: C_5  and  C_6
REMARK    2  A    between atoms: C_15  and  C_16
REMARK    3  A    between atoms: C_16  and  C_17
REMARK                            x       y       z     vdW  Elec       q    Type
REMARK                         _______ _______ _______ _____ _____    ______ ____
ROOT
ATOM      1  C   UNL     1       2.895   6.856  -6.099  0.00  0.00    +0.095 A 
ATOM      2  C   UNL     1       2.037   6.476  -5.072  0.00  0.00    +0.069 A 
ATOM      3  N   UNL     1       2.830   6.363  -3.979  0.00  0.00    -0.292 N 
ATOM      4  C   UNL     1       3.795   7.294  -4.166  0.00  0.00    +0.148 A 
ATOM      5  C   UNL     1       4.488   7.774  -3.064  0.00  0.00    +0.037 A 
ATOM      6  C   UNL     1       4.608   6.912  -1.981  0.00  0.00    +0.000 A 
ATOM      7  C   UNL     1       3.792   5.802  -1.905  0.00  0.00    -0.004 A 
ATOM      8  C   UNL     1       4.190   4.690  -1.024  0.00  0.00    +0.033 C 
ATOM      9  C   UNL     1       2.718   5.749  -2.779  0.00  0.00    +0.077 A 
ATOM     10  N   UNL     1       3.964   7.427  -5.502  0.00  0.00    -0.227 NA
ENDROOT
BRANCH   1  15
ATOM     11  C   UNL     1       0.255   4.654 -10.267  0.00  0.00    +0.031 C 
ATOM     12  C   UNL     1       1.397   5.416  -9.679  0.00  0.00    -0.022 A 
ATOM     13  C   UNL     1       2.481   4.753  -9.117  0.00  0.00    -0.004 A 
ATOM     14  C   UNL     1       3.071   5.230  -7.952  0.00  0.00    +0.001 A 
ATOM     15  C   UNL     1       2.821   6.509  -7.522  0.00  0.00    +0.019 A 
ATOM     16  C   UNL     1       2.074   7.313  -8.372  0.00  0.00    +0.001 A 
ATOM     17  C   UNL     1       1.317   6.770  -9.402  0.00  0.00    -0.004 A 
ENDBRANCH   1  15
BRANCH   2  18
ATOM     18  C   UNL     1       0.909   5.560  -5.373  0.00  0.00    +0.131 C 
BRANCH  18  19
ATOM     19  C   UNL     1      -0.380   6.011  -4.807  0.00  0.00    +0.232 C 
ATOM     20  N   UNL     1      -1.472   6.431  -5.637  0.00  0.00    -0.276 N 
ATOM     21  C   UNL     1      -1.892   5.470  -6.654  0.00  0.00    +0.115 C 
ATOM     22  C   UNL     1      -2.566   7.110  -4.947  0.00  0.00    +0.115 C 
ATOM     23  O   UNL     1      -0.720   5.419  -3.736  0.00  0.00    -0.274 OA
ENDBRANCH  18  19
ENDBRANCH   2  18
TORSDOF 3
ENDMDL
MODEL 5
REMARK VINA RESULT:      -8.0      2.674      7.097
REMARK  Name = 
REMARK  3 active torsions:
REMARK  status: ('A' for Active; 'I' for Inactive)
REMARK    1  A    between atoms: C_5  and  C_6
REMARK    2  A    between atoms: C_15  and  C_16
REMARK    3  A    between atoms: C_16  and  C_17
REMARK                            x       y       z     vdW  Elec       q    Type
REMARK                         _______ _______ _______ _____ _____    ______ ____
ROOT
ATOM      1  C   UNL     1       3.940   5.413  -7.524  0.00  0.00    +0.095 A 
ATOM      2  C   UNL     1       3.549   5.696  -8.829  0.00  0.00    +0.069 A 
ATOM      3  N   UNL     1       4.663   6.178  -9.431  0.00  0.00    -0.292 N 
ATOM      4  C   UNL     1       5.682   5.522  -8.825  0.00  0.00    +0.148 A 
ATOM      5  C   UNL     1       6.897   5.413  -9.485  0.00  0.00    +0.037 A 
ATOM      6  C   UNL     1       7.210   6.425 -10.385  0.00  0.00    +0.000 A 
ATOM      7  C   UNL     1       6.214   7.274 -10.822  0.00  0.00    -0.004 A 
ATOM      8  C   UNL     1       6.597   8.569 -11.411  0.00  0.00    +0.033 C 
ATOM      9  C   UNL     1       4.907   6.908 -10.542  0.00  0.00    +0.077 A 
ATOM     10  N   UNL     1       5.280   5.244  -7.564  0.00  0.00    -0.227 NA
ENDROOT
BRANCH   1  15
ATOM     11  C   UNL     1      -0.658   6.687  -4.989  0.00  0.00    +0.031 C 
ATOM     12  C   UNL     1       0.724   6.124  -5.016  0.00  0.00    -0.022 A 
ATOM     13  C   UNL     1       1.834   6.952  -4.898  0.00  0.00    -0.004 A 
ATOM     14  C   UNL     1       2.970   6.721  -5.665  0.00  0.00    +0.001 A 
ATOM     15  C   UNL     1       3.148   5.515  -6.295  0.00  0.00    +0.019 A 
ATOM     16  C   UNL     1       2.215   4.526  -6.013  0.00  0.00    +0.001 A 
ATOM     17  C   UNL     1       0.988   4.831  -5.438  0.00  0.00    -0.004 A 
ENDBRANCH   1  15
BRANCH   2  18
ATOM     18  C   UNL     1       2.183   6.222  -9.078  0.00  0.00    +0.131 C 
BRANCH  18  19
ATOM     19  C   UNL     1       1.316   5.278  -9.813  0.00  0.00    +0.232 C 
ATOM     20  N   UNL     1       0.774   5.588 -11.104  0.00  0.00    -0.276 N 
ATOM     21  C   UNL     1       1.752   5.975 -12.118  0.00  0.00    +0.115 C 
ATOM     22  C   UNL     1      -0.280   4.694 -11.578  0.00  0.00    +0.115 C 
ATOM     23  O   UNL     1       1.601   4.053  -9.633  0.00  0.00    -0.274 OA
ENDBRANCH  18  19
ENDBRANCH   2  18
TORSDOF 3
ENDMDL
MODEL 6
REMARK VINA RESULT:      -8.0      1.707      4.452
REMARK  Name = 
REMARK  3 active torsions:
REMARK  status: ('A' for Active; 'I' for Inactive)
REMARK    1  A    between atoms: C_5  and  C_6
REMARK    2  A    between atoms: C_15  and  C_16
REMARK    3  A    between atoms: C_16  and  C_17
REMARK                            x       y       z     vdW  Elec       q    Type
REMARK                         _______ _______ _______ _____ _____    ______ ____
ROOT
ATOM      1  C   UNL     1       3.533   6.521  -6.382  0.00  0.00    +0.095 A 
ATOM      2  C   UNL     1       2.542   6.034  -5.535  0.00  0.00    +0.069 A 
ATOM      3  N   UNL     1       3.073   6.118  -4.292  0.00  0.00    -0.292 N 
ATOM      4  C   UNL     1       3.882   7.204  -4.345  0.00  0.00    +0.148 A 
ATOM      5  C   UNL     1       4.215   7.852  -3.165  0.00  0.00    +0.037 A 
ATOM      6  C   UNL     1       4.230   7.077  -2.011  0.00  0.00    +0.000 A 
ATOM      7  C   UNL     1       3.620   5.839  -2.019  0.00  0.00    -0.004 A 
ATOM      8  C   UNL     1       3.992   4.861  -0.982  0.00  0.00    +0.033 C 
ATOM      9  C   UNL     1       2.799   5.549  -3.096  0.00  0.00    +0.077 A 
ATOM     10  N   UNL     1       4.324   7.305  -5.619  0.00  0.00    -0.227 NA
ENDROOT
BRANCH   1  15
ATOM     11  C   UNL     1       6.420   7.058 -10.918  0.00  0.00    +0.031 C 
ATOM     12  C   UNL     1       5.405   6.363 -10.071  0.00  0.00    -0.022 A 
ATOM     13  C   UNL     1       4.088   6.805 -10.031  0.00  0.00    -0.004 A 
ATOM     14  C   UNL     1       3.385   6.815  -8.832  0.00  0.00    +0.001 A 
ATOM     15  C   UNL     1       3.844   6.102  -7.753  0.00  0.00    +0.019 A 
ATOM     16  C   UNL     1       4.947   5.288  -7.973  0.00  0.00    +0.001 A 
ATOM     17  C   UNL     1       5.760   5.456  -9.087  0.00  0.00    -0.004 A 
ENDBRANCH   1  15
BRANCH   2  18
ATOM     18  C   UNL     1       1.685   4.912  -5.993  0.00  0.00    +0.131 C 
BRANCH  18  19
ATOM     19  C   UNL     1       0.357   5.347  -6.474  0.00  0.00    +0.232 C 
ATOM     20  N   UNL     1      -0.825   5.212  -5.672  0.00  0.00    -0.276 N 
ATOM     21  C   UNL     1      -0.755   5.818  -4.345  0.00  0.00    +0.115 C 
ATOM     22  C   UNL     1      -2.091   5.417  -6.373  0.00  0.00    +0.115 C 
ATOM     23  O   UNL     1       0.378   6.370  -7.226  0.00  0.00    -0.274 OA
ENDBRANCH  18  19
ENDBRANCH   2  18
TORSDOF 3
ENDMDL
MODEL 7
REMARK VINA RESULT:      -7.9      2.747      6.873
REMARK  Name = 
REMARK  3 active torsions:
REMARK  status: ('A' for Active; 'I' for Inactive)
REMARK    1  A    between atoms: C_5  and  C_6
REMARK    2  A    between atoms: C_15  and  C_16
REMARK    3  A    between atoms: C_16  and  C_17
REMARK                            x       y       z     vdW  Elec       q    Type
REMARK                         _______ _______ _______ _____ _____    ______ ____
ROOT
ATOM      1  C   UNL     1       3.744   5.943  -7.340  0.00  0.00    +0.095 A 
ATOM      2  C   UNL     1       3.313   6.245  -8.628  0.00  0.00    +0.069 A 
ATOM      3  N   UNL     1       4.450   6.466  -9.333  0.00  0.00    -0.292 N 
ATOM      4  C   UNL     1       5.363   5.642  -8.764  0.00  0.00    +0.148 A 
ATOM      5  C   UNL     1       6.475   5.262  -9.500  0.00  0.00    +0.037 A 
ATOM      6  C   UNL     1       6.910   6.152 -10.475  0.00  0.00    +0.000 A 
ATOM      7  C   UNL     1       6.071   7.167 -10.889  0.00  0.00    -0.004 A 
ATOM      8  C   UNL     1       6.656   8.332 -11.576  0.00  0.00    +0.033 C 
ATOM      9  C   UNL     1       4.744   7.085 -10.498  0.00  0.00    +0.077 A 
ATOM     10  N   UNL     1       5.015   5.504  -7.464  0.00  0.00    -0.227 NA
ENDROOT
BRANCH   1  15
ATOM     11  C   UNL     1       3.341   5.317  -1.988  0.00  0.00    +0.031 C 
ATOM     12  C   UNL     1       2.946   5.958  -3.278  0.00  0.00    -0.022 A 
ATOM     13  C   UNL     1       2.018   5.356  -4.118  0.00  0.00    -0.004 A 
ATOM     14  C   UNL     1       2.197   5.379  -5.497  0.00  0.00    +0.001 A 
ATOM     15  C   UNL     1       3.089   6.253  -6.065  0.00  0.00    +0.019 A 
ATOM     16  C   UNL     1       3.680   7.176  -5.213  0.00  0.00    +0.001 A 
ATOM     17  C   UNL     1       3.667   7.001  -3.835  0.00  0.00    -0.004 A 
ENDBRANCH   1  15
BRANCH   2  18
ATOM     18  C   UNL     1       2.064   7.027  -8.809  0.00  0.00    +0.131 C 
BRANCH  18  19
ATOM     19  C   UNL     1       1.141   6.434  -9.800  0.00  0.00    +0.232 C 
ATOM     20  N   UNL     1       0.446   5.204  -9.553  0.00  0.00    -0.276 N 
ATOM     21  C   UNL     1      -0.341   5.164  -8.323  0.00  0.00    +0.115 C 
ATOM     22  C   UNL     1      -0.202   4.600 -10.715  0.00  0.00    +0.115 C 
ATOM     23  O   UNL     1       0.497   7.282 -10.491  0.00  0.00    -0.274 OA
ENDBRANCH  18  19
ENDBRANCH   2  18
TORSDOF 3
ENDMDL
MODEL 8
REMARK VINA RESULT:      -7.9      2.050      6.800
REMARK  Name = 
REMARK  3 active torsions:
REMARK  status: ('A' for Active; 'I' for Inactive)
REMARK    1  A    between atoms: C_5  and  C_6
REMARK    2  A    between atoms: C_15  and  C_16
REMARK    3  A    between atoms: C_16  and  C_17
REMARK                            x       y       z     vdW  Elec       q    Type
REMARK                         _______ _______ _______ _____ _____    ______ ____
ROOT
ATOM      1  C   UNL     1       0.849   5.838  -5.332  0.00  0.00    +0.095 A 
ATOM      2  C   UNL     1       1.867   6.192  -6.212  0.00  0.00    +0.069 A 
ATOM      3  N   UNL     1       2.997   6.177  -5.463  0.00  0.00    -0.292 N 
ATOM      4  C   UNL     1       2.778   5.206  -4.544  0.00  0.00    +0.148 A 
ATOM      5  C   UNL     1       3.867   4.606  -3.928  0.00  0.00    +0.037 A 
ATOM      6  C   UNL     1       5.017   5.377  -3.809  0.00  0.00    +0.000 A 
ATOM      7  C   UNL     1       5.144   6.525  -4.564  0.00  0.00    -0.004 A 
ATOM      8  C   UNL     1       6.123   7.544  -4.144  0.00  0.00    +0.033 C 
ATOM      9  C   UNL     1       4.234   6.706  -5.593  0.00  0.00    +0.077 A 
ATOM     10  N   UNL     1       1.444   5.163  -4.324  0.00  0.00    -0.227 NA
ENDROOT
BRANCH   1  15
ATOM     11  C   UNL     1      -3.863   6.496  -2.771  0.00  0.00    +0.031 C 
ATOM     12  C   UNL     1      -2.960   6.680  -3.946  0.00  0.00    -0.022 A 
ATOM     13  C   UNL     1      -2.824   5.684  -4.904  0.00  0.00    -0.004 A 
ATOM     14  C   UNL     1      -1.580   5.403  -5.458  0.00  0.00    +0.001 A 
ATOM     15  C   UNL     1      -0.545   6.293  -5.323  0.00  0.00    +0.019 A 
ATOM     16  C   UNL     1      -0.850   7.513  -4.735  0.00  0.00    +0.001 A 
ATOM     17  C   UNL     1      -2.014   7.691  -3.998  0.00  0.00    -0.004 A 
ENDBRANCH   1  15
BRANCH   2  18
ATOM     18  C   UNL     1       1.592   7.193  -7.272  0.00  0.00    +0.131 C 
BRANCH  18  19
ATOM     19  C   UNL     1       1.394   6.592  -8.608  0.00  0.00    +0.232 C 
ATOM     20  N   UNL     1       2.387   6.683  -9.640  0.00  0.00    -0.276 N 
ATOM     21  C   UNL     1       3.717   6.206  -9.273  0.00  0.00    +0.115 C 
ATOM     22  C   UNL     1       1.945   6.298 -10.978  0.00  0.00    +0.115 C 
ATOM     23  O   UNL     1       0.723   5.514  -8.606  0.00  0.00    -0.274 OA
ENDBRANCH  18  19
ENDBRANCH   2  18
TORSDOF 3
ENDMDL
MODEL 9
REMARK VINA RESULT:      -7.9      3.002      5.741
REMARK  Name = 
REMARK  3 active torsions:
REMARK  status: ('A' for Active; 'I' for Inactive)
REMARK    1  A    between atoms: C_5  and  C_6
REMARK    2  A    between atoms: C_15  and  C_16
REMARK    3  A    between atoms: C_16  and  C_17
REMARK                            x       y       z     vdW  Elec       q    Type
REMARK                         _______ _______ _______ _____ _____    ______ ____
ROOT
ATOM      1  C   UNL     1       1.835   5.181  -8.540  0.00  0.00    +0.095 A 
ATOM      2  C   UNL     1       3.180   5.535  -8.484  0.00  0.00    +0.069 A 
ATOM      3  N   UNL     1       3.433   5.741  -7.169  0.00  0.00    -0.292 N 
ATOM      4  C   UNL     1       2.612   4.874  -6.529  0.00  0.00    +0.148 A 
ATOM      5  C   UNL     1       2.926   4.482  -5.236  0.00  0.00    +0.037 A 
ATOM      6  C   UNL     1       3.652   5.386  -4.470  0.00  0.00    +0.000 A 
ATOM      7  C   UNL     1       4.293   6.438  -5.092  0.00  0.00    -0.004 A 
ATOM      8  C   UNL     1       4.687   7.604  -4.282  0.00  0.00    +0.033 C 
ATOM      9  C   UNL     1       4.396   6.385  -6.473  0.00  0.00    +0.077 A 
ATOM     10  N   UNL     1       1.522   4.708  -7.314  0.00  0.00    -0.227 NA
ENDROOT
BRANCH   1  15
ATOM     11  C   UNL     1       0.679   6.979 -13.502  0.00  0.00    +0.031 C 
ATOM     12  C   UNL     1       0.298   6.353 -12.201  0.00  0.00    -0.022 A 
ATOM     13  C   UNL     1       0.001   7.136 -11.093  0.00  0.00    -0.004 A 
ATOM     14  C   UNL     1       0.431   6.757  -9.826  0.00  0.00    +0.001 A 
ATOM     15  C   UNL     1       0.860   5.474  -9.595  0.00  0.00    +0.019 A 
ATOM     16  C   UNL     1       0.711   4.574 -10.641  0.00  0.00    +0.001 A 
ATOM     17  C   UNL     1       0.496   5.006 -11.943  0.00  0.00    -0.004 A 
ENDBRANCH   1  15
BRANCH   2  18
ATOM     18  C   UNL     1       3.757   6.359  -9.576  0.00  0.00    +0.131 C 
BRANCH  18  19
ATOM     19  C   UNL     1       4.944   5.746 -10.208  0.00  0.00    +0.232 C 
ATOM     20  N   UNL     1       5.572   6.317 -11.365  0.00  0.00    -0.276 N 
ATOM     21  C   UNL     1       5.969   7.716 -11.235  0.00  0.00    +0.115 C 
ATOM     22  C   UNL     1       6.545   5.463 -12.041  0.00  0.00    +0.115 C 
ATOM     23  O   UNL     1       5.737   5.176  -9.397  0.00  0.00    -0.274 OA
ENDBRANCH  18  19
ENDBRANCH   2  18
TORSDOF 3
ENDMDL
