MODEL 1
REMARK VINA RESULT:      -4.3      0.000      0.000
REMARK  Name = 
REMARK  4 active torsions:
REMARK  status: ('A' for Active; 'I' for Inactive)
REMARK    1  A    between atoms: C_2  and  C_3
REMARK    2  A    between atoms: C_3  and  C_5
REMARK    3  A    between atoms: C_5  and  C_6
REMARK    4  A    between atoms: C_6  and  C_7
REMARK                            x       y       z     vdW  Elec       q    Type
REMARK                         _______ _______ _______ _____ _____    ______ ____
ROOT
ATOM      1  C   UNL     1       7.164   5.827  -9.643  0.00  0.00    +0.078 C 
ENDROOT
BRANCH   1   2
ATOM      2  C   UNL     1       5.669   5.750  -9.723  0.00  0.00    +0.170 C 
ATOM      3  O   UNL     1       5.047   6.677 -10.238  0.00  0.00    -0.294 OA
BRANCH   2   5
ATOM      4  N   UNL     1       3.937   4.234  -8.994  0.00  0.00    -0.123 NA
ATOM      5  C   UNL     1       5.016   5.085  -8.551  0.00  0.00    +0.173 C 
ENDBRANCH   2   5
ENDBRANCH   1   2
BRANCH   1   6
ATOM      6  C   UNL     1       7.766   6.483 -10.856  0.00  0.00    +0.122 C 
BRANCH   6   7
ATOM      7  C   UNL     1       8.433   5.487 -11.755  0.00  0.00    +0.365 C 
ATOM      8  O   UNL     1       7.636   4.621 -12.511  0.00  0.00    -0.246 OA
ATOM      9  O   UNL     1       9.416   5.984 -12.387  0.00  0.00    -0.246 OA
ENDBRANCH   6   7
ENDBRANCH   1   6
TORSDOF 4
ENDMDL
MODEL 2
REMARK VINA RESULT:      -4.3      1.419      1.931
REMARK  Name = 
REMARK  4 active torsions:
REMARK  status: ('A' for Active; 'I' for Inactive)
REMARK    1  A    between atoms: C_2  and  C_3
REMARK    2  A    between atoms: C_3  and  C_5
REMARK    3  A    between atoms: C_5  and  C_6
REMARK    4  A    between atoms: C_6  and  C_7
REMARK                            x       y       z     vdW  Elec       q    Type
REMARK                         _______ _______ _______ _____ _____    ______ ____
ROOT
ATOM      1  C   UNL     1       7.377   7.116 -10.766  0.00  0.00    +0.078 C 
ENDROOT
BRANCH   1   2
ATOM      2  C   UNL     1       6.827   6.101  -9.811  0.00  0.00    +0.170 C 
ATOM      3  O   UNL     1       7.591   5.288  -9.293  0.00  0.00    -0.294 OA
BRANCH   2   5
ATOM      4  N   UNL     1       4.510   5.993  -9.143  0.00  0.00    -0.123 NA
ATOM      5  C   UNL     1       5.460   5.597 -10.154  0.00  0.00    +0.173 C 
ENDBRANCH   2   5
ENDBRANCH   1   2
BRANCH   1   6
ATOM      6  C   UNL     1       7.128   6.741 -12.202  0.00  0.00    +0.122 C 
BRANCH   6   7
ATOM      7  C   UNL     1       8.184   5.816 -12.727  0.00  0.00    +0.365 C 
ATOM      8  O   UNL     1       9.473   5.888 -12.188  0.00  0.00    -0.246 OA
ATOM      9  O   UNL     1       7.752   4.635 -12.902  0.00  0.00    -0.246 OA
ENDBRANCH   6   7
ENDBRANCH   1   6
TORSDOF 4
ENDMDL
MODEL 3
REMARK VINA RESULT:      -4.2      8.947     10.361
REMARK  Name = 
REMARK  4 active torsions:
REMARK  status: ('A' for Active; 'I' for Inactive)
REMARK    1  A    between atoms: C_2  and  C_3
REMARK    2  A    between atoms: C_3  and  C_5
REMARK    3  A    between atoms: C_5  and  C_6
REMARK    4  A    between atoms: C_6  and  C_7
REMARK                            x       y       z     vdW  Elec       q    Type
REMARK                         _______ _______ _______ _____ _____    ______ ____
ROOT
ATOM      1  C   UNL     1      -2.135   6.862  -5.248  0.00  0.00    +0.078 C 
ENDROOT
BRANCH   1   2
ATOM      2  C   UNL     1      -2.762   6.686  -3.898  0.00  0.00    +0.170 C 
ATOM      3  O   UNL     1      -2.391   7.396  -2.966  0.00  0.00    -0.294 OA
BRANCH   2   5
ATOM      4  N   UNL     1      -2.492   4.891  -2.305  0.00  0.00    -0.123 NA
ATOM      5  C   UNL     1      -3.111   5.271  -3.552  0.00  0.00    +0.173 C 
ENDBRANCH   2   5
ENDBRANCH   1   2
BRANCH   1   6
ATOM      6  C   UNL     1      -2.341   5.662  -6.132  0.00  0.00    +0.122 C 
BRANCH   6   7
ATOM      7  C   UNL     1      -1.042   5.117  -6.642  0.00  0.00    +0.365 C 
ATOM      8  O   UNL     1      -0.588   5.522  -7.902  0.00  0.00    -0.246 OA
ATOM      9  O   UNL     1      -0.144   5.082  -5.745  0.00  0.00    -0.246 OA
ENDBRANCH   6   7
ENDBRANCH   1   6
TORSDOF 4
ENDMDL
MODEL 4
REMARK VINA RESULT:      -4.1      2.242      4.164
REMARK  Name = 
REMARK  4 active torsions:
REMARK  status: ('A' for Active; 'I' for Inactive)
REMARK    1  A    between atoms: C_2  and  C_3
REMARK    2  A    between atoms: C_3  and  C_5
REMARK    3  A    between atoms: C_5  and  C_6
REMARK    4  A    between atoms: C_6  and  C_7
REMARK                            x       y       z     vdW  Elec       q    Type
REMARK                         _______ _______ _______ _____ _____    ______ ____
ROOT
ATOM      1  C   UNL     1       7.824   6.682 -10.642  0.00  0.00    +0.078 C 
ENDROOT
BRANCH   1   2
ATOM      2  C   UNL     1       8.314   5.985 -11.875  0.00  0.00    +0.170 C 
ATOM      3  O   UNL     1       9.524   5.873 -12.061  0.00  0.00    -0.294 OA
BRANCH   2   5
ATOM      4  N   UNL     1       7.158   4.957 -13.729  0.00  0.00    -0.123 NA
ATOM      5  C   UNL     1       7.477   6.214 -13.095  0.00  0.00    +0.173 C 
ENDBRANCH   2   5
ENDBRANCH   1   2
BRANCH   1   6
ATOM      6  C   UNL     1       7.368   5.714  -9.584  0.00  0.00    +0.122 C 
BRANCH   6   7
ATOM      7  C   UNL     1       5.875   5.677  -9.469  0.00  0.00    +0.365 C 
ATOM      8  O   UNL     1       5.123   5.273 -10.578  0.00  0.00    -0.246 OA
ATOM      9  O   UNL     1       5.484   5.190  -8.364  0.00  0.00    -0.246 OA
ENDBRANCH   6   7
ENDBRANCH   1   6
TORSDOF 4
ENDMDL
MODEL 5
REMARK VINA RESULT:      -4.1      2.720      3.879
REMARK  Name = 
REMARK  4 active torsions:
REMARK  status: ('A' for Active; 'I' for Inactive)
REMARK    1  A    between atoms: C_2  and  C_3
REMARK    2  A    between atoms: C_3  and  C_5
REMARK    3  A    between atoms: C_5  and  C_6
REMARK    4  A    between atoms: C_6  and  C_7
REMARK                            x       y       z     vdW  Elec       q    Type
REMARK                         _______ _______ _______ _____ _____    ______ ____
ROOT
ATOM      1  C   UNL     1       6.719   7.315 -11.015  0.00  0.00    +0.078 C 
ENDROOT
BRANCH   1   2
ATOM      2  C   UNL     1       7.404   6.007 -10.757  0.00  0.00    +0.170 C 
ATOM      3  O   UNL     1       7.670   5.686  -9.600  0.00  0.00    -0.294 OA
BRANCH   2   5
ATOM      4  N   UNL     1       7.801   4.712 -12.755  0.00  0.00    -0.123 NA
ATOM      5  C   UNL     1       8.402   5.610 -11.799  0.00  0.00    +0.173 C 
ENDBRANCH   2   5
ENDBRANCH   1   2
BRANCH   1   6
ATOM      6  C   UNL     1       5.228   7.222 -10.834  0.00  0.00    +0.122 C 
BRANCH   6   7
ATOM      7  C   UNL     1       4.695   5.892 -11.270  0.00  0.00    +0.365 C 
ATOM      8  O   UNL     1       4.020   5.096 -10.338  0.00  0.00    -0.246 OA
ATOM      9  O   UNL     1       4.149   5.939 -12.416  0.00  0.00    -0.246 OA
ENDBRANCH   6   7
ENDBRANCH   1   6
TORSDOF 4
ENDMDL
MODEL 6
REMARK VINA RESULT:      -4.0      9.507     10.754
REMARK  Name = 
REMARK  4 active torsions:
REMARK  status: ('A' for Active; 'I' for Inactive)
REMARK    1  A    between atoms: C_2  and  C_3
REMARK    2  A    between atoms: C_3  and  C_5
REMARK    3  A    between atoms: C_5  and  C_6
REMARK    4  A    between atoms: C_6  and  C_7
REMARK                            x       y       z     vdW  Elec       q    Type
REMARK                         _______ _______ _______ _____ _____    ______ ____
ROOT
ATOM      1  C   UNL     1      -2.628   6.377  -3.990  0.00  0.00    +0.078 C 
ENDROOT
BRANCH   1   2
ATOM      2  C   UNL     1      -1.999   5.341  -3.107  0.00  0.00    +0.170 C 
ATOM      3  O   UNL     1      -2.680   4.796  -2.241  0.00  0.00    -0.294 OA
BRANCH   2   5
ATOM      4  N   UNL     1      -0.195   4.863  -1.575  0.00  0.00    -0.123 NA
ATOM      5  C   UNL     1      -0.570   5.609  -2.753  0.00  0.00    +0.173 C 
ENDBRANCH   2   5
ENDBRANCH   1   2
BRANCH   1   6
ATOM      6  C   UNL     1      -1.688   6.860  -5.060  0.00  0.00    +0.122 C 
BRANCH   6   7
ATOM      7  C   UNL     1      -1.649   5.924  -6.230  0.00  0.00    +0.365 C 
ATOM      8  O   UNL     1      -0.580   5.028  -6.342  0.00  0.00    -0.246 OA
ATOM      9  O   UNL     1      -2.785   5.421  -6.489  0.00  0.00    -0.246 OA
ENDBRANCH   6   7
ENDBRANCH   1   6
TORSDOF 4
ENDMDL
MODEL 7
REMARK VINA RESULT:      -4.0      2.270      3.762
REMARK  Name = 
REMARK  4 active torsions:
REMARK  status: ('A' for Active; 'I' for Inactive)
REMARK    1  A    between atoms: C_2  and  C_3
REMARK    2  A    between atoms: C_3  and  C_5
REMARK    3  A    between atoms: C_5  and  C_6
REMARK    4  A    between atoms: C_6  and  C_7
REMARK                            x       y       z     vdW  Elec       q    Type
REMARK                         _______ _______ _______ _____ _____    ______ ____
ROOT
ATOM      1  C   UNL     1       7.255   6.664 -11.810  0.00  0.00    +0.078 C 
ENDROOT
BRANCH   1   2
ATOM      2  C   UNL     1       6.969   5.435 -12.620  0.00  0.00    +0.170 C 
ATOM      3  O   UNL     1       7.890   4.667 -12.890  0.00  0.00    -0.294 OA
BRANCH   2   5
ATOM      4  N   UNL     1       4.831   4.699 -13.465  0.00  0.00    -0.123 NA
ATOM      5  C   UNL     1       5.926   5.615 -13.678  0.00  0.00    +0.173 C 
ENDBRANCH   2   5
ENDBRANCH   1   2
BRANCH   1   6
ATOM      6  C   UNL     1       6.077   7.080 -10.972  0.00  0.00    +0.122 C 
BRANCH   6   7
ATOM      7  C   UNL     1       5.818   6.115  -9.856  0.00  0.00    +0.365 C 
ATOM      8  O   UNL     1       4.835   5.133 -10.027  0.00  0.00    -0.246 OA
ATOM      9  O   UNL     1       6.889   5.698  -9.315  0.00  0.00    -0.246 OA
ENDBRANCH   6   7
ENDBRANCH   1   6
TORSDOF 4
ENDMDL
MODEL 8
REMARK VINA RESULT:      -3.9      9.202     11.402
REMARK  Name = 
REMARK  4 active torsions:
REMARK  status: ('A' for Active; 'I' for Inactive)
REMARK    1  A    between atoms: C_2  and  C_3
REMARK    2  A    between atoms: C_3  and  C_5
REMARK    3  A    between atoms: C_5  and  C_6
REMARK    4  A    between atoms: C_6  and  C_7
REMARK                            x       y       z     vdW  Elec       q    Type
REMARK                         _______ _______ _______ _____ _____    ______ ____
ROOT
ATOM      1  C   UNL     1      -1.882   7.768  -4.410  0.00  0.00    +0.078 C 
ENDROOT
BRANCH   1   2
ATOM      2  C   UNL     1      -0.848   6.972  -5.148  0.00  0.00    +0.170 C 
ATOM      3  O   UNL     1      -1.211   6.145  -5.983  0.00  0.00    -0.294 OA
BRANCH   2   5
ATOM      4  N   UNL     1       0.572   5.182  -4.370  0.00  0.00    -0.123 NA
ATOM      5  C   UNL     1       0.356   6.608  -4.337  0.00  0.00    +0.173 C 
ENDBRANCH   2   5
ENDBRANCH   1   2
BRANCH   1   6
ATOM      6  C   UNL     1      -2.095   7.265  -3.008  0.00  0.00    +0.122 C 
BRANCH   6   7
ATOM      7  C   UNL     1      -3.080   6.137  -2.965  0.00  0.00    +0.365 C 
ATOM      8  O   UNL     1      -2.657   4.889  -2.496  0.00  0.00    -0.246 OA
ATOM      9  O   UNL     1      -4.218   6.502  -2.536  0.00  0.00    -0.246 OA
ENDBRANCH   6   7
ENDBRANCH   1   6
TORSDOF 4
ENDMDL
MODEL 9
REMARK VINA RESULT:      -3.9      1.873      2.279
REMARK  Name = 
REMARK  4 active torsions:
REMARK  status: ('A' for Active; 'I' for Inactive)
REMARK    1  A    between atoms: C_2  and  C_3
REMARK    2  A    between atoms: C_3  and  C_5
REMARK    3  A    between atoms: C_5  and  C_6
REMARK    4  A    between atoms: C_6  and  C_7
REMARK                            x       y       z     vdW  Elec       q    Type
REMARK                         _______ _______ _______ _____ _____    ______ ____
ROOT
ATOM      1  C   UNL     1       6.530   6.509 -11.020  0.00  0.00    +0.078 C 
ENDROOT
BRANCH   1   2
ATOM      2  C   UNL     1       5.044   6.696 -11.050  0.00  0.00    +0.170 C 
ATOM      3  O   UNL     1       4.451   6.964 -10.007  0.00  0.00    -0.294 OA
BRANCH   2   5
ATOM      4  N   UNL     1       2.912   6.114 -12.025  0.00  0.00    -0.123 NA
ATOM      5  C   UNL     1       4.322   5.803 -12.010  0.00  0.00    +0.173 C 
ENDBRANCH   2   5
ENDBRANCH   1   2
BRANCH   1   6
ATOM      6  C   UNL     1       7.167   6.784 -12.355  0.00  0.00    +0.122 C 
BRANCH   6   7
ATOM      7  C   UNL     1       8.194   5.752 -12.706  0.00  0.00    +0.365 C 
ATOM      8  O   UNL     1       9.468   5.846 -12.134  0.00  0.00    -0.246 OA
ATOM      9  O   UNL     1       7.715   4.576 -12.730  0.00  0.00    -0.246 OA
ENDBRANCH   6   7
ENDBRANCH   1   6
TORSDOF 4
ENDMDL
