MODEL 1
REMARK VINA RESULT:      -6.7      0.000      0.000
REMARK  Name = 
REMARK  9 active torsions:
REMARK  status: ('A' for Active; 'I' for Inactive)
REMARK    1  A    between atoms: C_2  and  C_3
REMARK    2  A    between atoms: C_3  and  C_4
REMARK    3  A    between atoms: C_4  and  C_5
REMARK    4  A    between atoms: C_5  and  C_6
REMARK    5  A    between atoms: C_5  and  C_8
REMARK    6  A    between atoms: C_8  and  O_9
REMARK    7  A    between atoms: O_9  and  C_10
REMARK    8  A    between atoms: C_10  and  C_12
REMARK    9  A    between atoms: C_15  and  N_16
REMARK                            x       y       z     vdW  Elec       q    Type
REMARK                         _______ _______ _______ _____ _____    ______ ____
ROOT
ATOM      1  C   UNL     1       3.113   4.522  -7.693  0.00  0.00    +0.341 C 
ATOM      2  O   UNL     1       2.693   3.596  -8.411  0.00  0.00    -0.245 OA
ENDROOT
BRANCH   1   3
ATOM      3  C   UNL     1       4.079   5.432  -8.314  0.00  0.00    +0.076 A 
ATOM      4  C   UNL     1       3.679   6.256  -9.335  0.00  0.00    +0.008 A 
ATOM      5  C   UNL     1       4.586   6.772 -10.241  0.00  0.00    +0.015 A 
ATOM      6  C   UNL     1       5.899   6.345 -10.167  0.00  0.00    +0.048 A 
ATOM      7  C   UNL     1       6.313   5.526  -9.137  0.00  0.00    +0.015 A 
ATOM      8  C   UNL     1       5.409   5.037  -8.235  0.00  0.00    +0.008 A 
BRANCH   6   9
ATOM      9  N   UNL     1       6.851   6.942 -11.050  0.00  0.00    -0.304 N 
ATOM     10  C   UNL     1       7.948   6.203 -11.617  0.00  0.00    +0.112 C 
ATOM     11  C   UNL     1       6.496   8.251 -11.553  0.00  0.00    +0.112 C 
ENDBRANCH   6   9
ENDBRANCH   1   3
BRANCH   1  12
ATOM     12  O   UNL     1       2.546   4.728  -6.458  0.00  0.00    -0.445 OA
BRANCH  12  13
ATOM     13  C   UNL     1       1.157   4.523  -6.290  0.00  0.00    +0.209 C 
BRANCH  13  14
ATOM     14  C   UNL     1       0.547   6.012  -6.653  0.00  0.00    +0.044 C 
BRANCH  14  15
ATOM     15  C   UNL     1      -0.580   5.375  -7.676  0.00  0.00    +0.004 C 
ATOM     16  C   UNL     1      -0.050   5.614  -9.062  0.00  0.00    +0.000 C 
ENDBRANCH  14  15
BRANCH  14  17
ATOM     17  C   UNL     1      -0.495   5.956  -5.377  0.00  0.00    +0.004 C 
BRANCH  17  18
ATOM     18  C   UNL     1      -1.853   6.127  -6.000  0.00  0.00    +0.000 C 
BRANCH  18  20
ATOM     19  C   UNL     1      -1.712   8.082  -4.597  0.00  0.00    +0.000 C 
ATOM     20  C   UNL     1      -2.641   7.111  -5.147  0.00  0.00    +0.000 C 
ENDBRANCH  18  20
ENDBRANCH  17  18
ENDBRANCH  14  17
ENDBRANCH  13  14
ENDBRANCH  12  13
ENDBRANCH   1  12
TORSDOF 9
ENDMDL
MODEL 2
REMARK VINA RESULT:      -6.4      1.981      2.990
REMARK  Name = 
REMARK  9 active torsions:
REMARK  status: ('A' for Active; 'I' for Inactive)
REMARK    1  A    between atoms: C_2  and  C_3
REMARK    2  A    between atoms: C_3  and  C_4
REMARK    3  A    between atoms: C_4  and  C_5
REMARK    4  A    between atoms: C_5  and  C_6
REMARK    5  A    between atoms: C_5  and  C_8
REMARK    6  A    between atoms: C_8  and  O_9
REMARK    7  A    between atoms: O_9  and  C_10
REMARK    8  A    between atoms: C_10  and  C_12
REMARK    9  A    between atoms: C_15  and  N_16
REMARK                            x       y       z     vdW  Elec       q    Type
REMARK                         _______ _______ _______ _____ _____    ______ ____
ROOT
ATOM      1  C   UNL     1       2.198   6.169  -4.993  0.00  0.00    +0.341 C 
ATOM      2  O   UNL     1       2.532   5.048  -4.565  0.00  0.00    -0.245 OA
ENDROOT
BRANCH   1   3
ATOM      3  C   UNL     1       2.814   6.586  -6.256  0.00  0.00    +0.076 A 
ATOM      4  C   UNL     1       2.102   7.361  -7.137  0.00  0.00    +0.008 A 
ATOM      5  C   UNL     1       2.420   7.397  -8.481  0.00  0.00    +0.015 A 
ATOM      6  C   UNL     1       3.404   6.544  -8.945  0.00  0.00    +0.048 A 
ATOM      7  C   UNL     1       4.132   5.770  -8.065  0.00  0.00    +0.015 A 
ATOM      8  C   UNL     1       3.820   5.756  -6.733  0.00  0.00    +0.008 A 
BRANCH   6   9
ATOM      9  N   UNL     1       3.789   6.642 -10.317  0.00  0.00    -0.304 N 
ATOM     10  C   UNL     1       5.069   7.159 -10.726  0.00  0.00    +0.112 C 
ATOM     11  C   UNL     1       2.935   5.945 -11.254  0.00  0.00    +0.112 C 
ENDBRANCH   6   9
ENDBRANCH   1   3
BRANCH   1  12
ATOM     12  O   UNL     1       1.185   6.856  -4.367  0.00  0.00    -0.445 OA
BRANCH  12  13
ATOM     13  C   UNL     1      -0.106   6.284  -4.305  0.00  0.00    +0.209 C 
BRANCH  13  14
ATOM     14  C   UNL     1      -0.978   7.306  -5.263  0.00  0.00    +0.044 C 
BRANCH  14  15
ATOM     15  C   UNL     1      -1.942   6.082  -5.805  0.00  0.00    +0.004 C 
ATOM     16  C   UNL     1      -1.112   5.325  -6.803  0.00  0.00    +0.000 C 
ENDBRANCH  14  15
BRANCH  14  17
ATOM     17  C   UNL     1      -2.017   7.659  -4.033  0.00  0.00    +0.004 C 
BRANCH  17  18
ATOM     18  C   UNL     1      -2.793   6.387  -3.828  0.00  0.00    +0.000 C 
BRANCH  18  20
ATOM     19  C   UNL     1      -2.510   6.935  -1.498  0.00  0.00    +0.000 C 
ATOM     20  C   UNL     1      -3.479   6.469  -2.472  0.00  0.00    +0.000 C 
ENDBRANCH  18  20
ENDBRANCH  17  18
ENDBRANCH  14  17
ENDBRANCH  13  14
ENDBRANCH  12  13
ENDBRANCH   1  12
TORSDOF 9
ENDMDL
MODEL 3
REMARK VINA RESULT:      -6.3      2.964      7.877
REMARK  Name = 
REMARK  9 active torsions:
REMARK  status: ('A' for Active; 'I' for Inactive)
REMARK    1  A    between atoms: C_2  and  C_3
REMARK    2  A    between atoms: C_3  and  C_4
REMARK    3  A    between atoms: C_4  and  C_5
REMARK    4  A    between atoms: C_5  and  C_6
REMARK    5  A    between atoms: C_5  and  C_8
REMARK    6  A    between atoms: C_8  and  O_9
REMARK    7  A    between atoms: O_9  and  C_10
REMARK    8  A    between atoms: C_10  and  C_12
REMARK    9  A    between atoms: C_15  and  N_16
REMARK                            x       y       z     vdW  Elec       q    Type
REMARK                         _______ _______ _______ _____ _____    ______ ____
ROOT
ATOM      1  C   UNL     1       0.571   5.742  -8.689  0.00  0.00    +0.341 C 
ATOM      2  O   UNL     1       0.057   5.098  -9.624  0.00  0.00    -0.245 OA
ENDROOT
BRANCH   1   3
ATOM      3  C   UNL     1      -0.058   5.583  -7.376  0.00  0.00    +0.076 A 
ATOM      4  C   UNL     1      -1.372   5.196  -7.292  0.00  0.00    +0.008 A 
ATOM      5  C   UNL     1      -2.132   5.469  -6.170  0.00  0.00    +0.015 A 
ATOM      6  C   UNL     1      -1.571   6.245  -5.173  0.00  0.00    +0.048 A 
ATOM      7  C   UNL     1      -0.248   6.629  -5.243  0.00  0.00    +0.015 A 
ATOM      8  C   UNL     1       0.500   6.337  -6.351  0.00  0.00    +0.008 A 
BRANCH   6   9
ATOM      9  N   UNL     1      -2.328   6.456  -3.979  0.00  0.00    -0.304 N 
ATOM     10  C   UNL     1      -3.098   5.411  -3.358  0.00  0.00    +0.112 C 
ATOM     11  C   UNL     1      -2.058   7.695  -3.283  0.00  0.00    +0.112 C 
ENDBRANCH   6   9
ENDBRANCH   1   3
BRANCH   1  12
ATOM     12  O   UNL     1       1.752   6.411  -8.902  0.00  0.00    -0.445 OA
BRANCH  12  13
ATOM     13  C   UNL     1       2.813   5.753  -9.566  0.00  0.00    +0.209 C 
BRANCH  13  14
ATOM     14  C   UNL     1       4.135   6.480  -8.898  0.00  0.00    +0.044 C 
BRANCH  14  15
ATOM     15  C   UNL     1       4.395   5.214  -7.872  0.00  0.00    +0.004 C 
ATOM     16  C   UNL     1       4.212   5.769  -6.488  0.00  0.00    +0.000 C 
ENDBRANCH  14  15
BRANCH  14  17
ATOM     17  C   UNL     1       5.133   5.835 -10.040  0.00  0.00    +0.004 C 
BRANCH  17  18
ATOM     18  C   UNL     1       6.468   5.740  -9.354  0.00  0.00    +0.000 C 
BRANCH  18  20
ATOM     19  C   UNL     1       6.951   7.474 -10.958  0.00  0.00    +0.000 C 
ATOM     20  C   UNL     1       7.520   6.316 -10.293  0.00  0.00    +0.000 C 
ENDBRANCH  18  20
ENDBRANCH  17  18
ENDBRANCH  14  17
ENDBRANCH  13  14
ENDBRANCH  12  13
ENDBRANCH   1  12
TORSDOF 9
ENDMDL
MODEL 4
REMARK VINA RESULT:      -6.3      2.989      6.802
REMARK  Name = 
REMARK  9 active torsions:
REMARK  status: ('A' for Active; 'I' for Inactive)
REMARK    1  A    between atoms: C_2  and  C_3
REMARK    2  A    between atoms: C_3  and  C_4
REMARK    3  A    between atoms: C_4  and  C_5
REMARK    4  A    between atoms: C_5  and  C_6
REMARK    5  A    between atoms: C_5  and  C_8
REMARK    6  A    between atoms: C_8  and  O_9
REMARK    7  A    between atoms: O_9  and  C_10
REMARK    8  A    between atoms: C_10  and  C_12
REMARK    9  A    between atoms: C_15  and  N_16
REMARK                            x       y       z     vdW  Elec       q    Type
REMARK                         _______ _______ _______ _____ _____    ______ ____
ROOT
ATOM      1  C   UNL     1       1.000   6.258  -9.489  0.00  0.00    +0.341 C 
ATOM      2  O   UNL     1       0.023   5.620  -9.925  0.00  0.00    -0.245 OA
ENDROOT
BRANCH   1   3
ATOM      3  C   UNL     1       1.247   6.152  -8.049  0.00  0.00    +0.076 A 
ATOM      4  C   UNL     1       1.822   7.203  -7.378  0.00  0.00    +0.008 A 
ATOM      5  C   UNL     1       2.486   7.015  -6.181  0.00  0.00    +0.015 A 
ATOM      6  C   UNL     1       2.664   5.722  -5.727  0.00  0.00    +0.048 A 
ATOM      7  C   UNL     1       2.081   4.660  -6.388  0.00  0.00    +0.015 A 
ATOM      8  C   UNL     1       1.409   4.861  -7.562  0.00  0.00    +0.008 A 
BRANCH   6   9
ATOM      9  N   UNL     1       3.277   5.535  -4.450  0.00  0.00    -0.304 N 
ATOM     10  C   UNL     1       2.603   5.842  -3.216  0.00  0.00    +0.112 C 
ATOM     11  C   UNL     1       4.504   4.768  -4.456  0.00  0.00    +0.112 C 
ENDBRANCH   6   9
ENDBRANCH   1   3
BRANCH   1  12
ATOM     12  O   UNL     1       1.854   6.870 -10.374  0.00  0.00    -0.445 OA
BRANCH  12  13
ATOM     13  C   UNL     1       2.915   6.126 -10.941  0.00  0.00    +0.209 C 
BRANCH  13  14
ATOM     14  C   UNL     1       4.205   6.639 -10.050  0.00  0.00    +0.044 C 
BRANCH  14  15
ATOM     15  C   UNL     1       4.577   5.102  -9.580  0.00  0.00    +0.004 C 
ATOM     16  C   UNL     1       5.312   5.243  -8.277  0.00  0.00    +0.000 C 
ENDBRANCH  14  15
BRANCH  14  17
ATOM     17  C   UNL     1       5.210   6.547 -11.353  0.00  0.00    +0.004 C 
BRANCH  17  18
ATOM     18  C   UNL     1       6.100   7.751 -11.219  0.00  0.00    +0.000 C 
BRANCH  18  20
ATOM     19  C   UNL     1       7.785   6.029 -11.309  0.00  0.00    +0.000 C 
ATOM     20  C   UNL     1       7.441   7.285 -10.668  0.00  0.00    +0.000 C 
ENDBRANCH  18  20
ENDBRANCH  17  18
ENDBRANCH  14  17
ENDBRANCH  13  14
ENDBRANCH  12  13
ENDBRANCH   1  12
TORSDOF 9
ENDMDL
MODEL 5
REMARK VINA RESULT:      -6.3      3.060      3.601
REMARK  Name = 
REMARK  9 active torsions:
REMARK  status: ('A' for Active; 'I' for Inactive)
REMARK    1  A    between atoms: C_2  and  C_3
REMARK    2  A    between atoms: C_3  and  C_4
REMARK    3  A    between atoms: C_4  and  C_5
REMARK    4  A    between atoms: C_5  and  C_6
REMARK    5  A    between atoms: C_5  and  C_8
REMARK    6  A    between atoms: C_8  and  O_9
REMARK    7  A    between atoms: O_9  and  C_10
REMARK    8  A    between atoms: C_10  and  C_12
REMARK    9  A    between atoms: C_15  and  N_16
REMARK                            x       y       z     vdW  Elec       q    Type
REMARK                         _______ _______ _______ _____ _____    ______ ____
ROOT
ATOM      1  C   UNL     1       3.553   6.779  -5.822  0.00  0.00    +0.341 C 
ATOM      2  O   UNL     1       4.692   6.475  -5.421  0.00  0.00    -0.245 OA
ENDROOT
BRANCH   1   3
ATOM      3  C   UNL     1       3.279   6.522  -7.238  0.00  0.00    +0.076 A 
ATOM      4  C   UNL     1       2.460   7.373  -7.939  0.00  0.00    +0.008 A 
ATOM      5  C   UNL     1       1.807   6.962  -9.085  0.00  0.00    +0.015 A 
ATOM      6  C   UNL     1       1.904   5.633  -9.452  0.00  0.00    +0.048 A 
ATOM      7  C   UNL     1       2.733   4.773  -8.762  0.00  0.00    +0.015 A 
ATOM      8  C   UNL     1       3.389   5.197  -7.639  0.00  0.00    +0.008 A 
BRANCH   6   9
ATOM      9  N   UNL     1       1.298   5.228 -10.682  0.00  0.00    -0.304 N 
ATOM     10  C   UNL     1       0.075   4.471 -10.728  0.00  0.00    +0.112 C 
ATOM     11  C   UNL     1       1.832   5.853 -11.872  0.00  0.00    +0.112 C 
ENDBRANCH   6   9
ENDBRANCH   1   3
BRANCH   1  12
ATOM     12  O   UNL     1       2.600   7.171  -4.913  0.00  0.00    -0.445 OA
BRANCH  12  13
ATOM     13  C   UNL     1       1.690   6.215  -4.406  0.00  0.00    +0.209 C 
BRANCH  13  14
ATOM     14  C   UNL     1       0.274   6.689  -5.107  0.00  0.00    +0.044 C 
BRANCH  14  15
ATOM     15  C   UNL     1       0.029   5.200  -5.775  0.00  0.00    +0.004 C 
ATOM     16  C   UNL     1      -0.903   5.423  -6.932  0.00  0.00    +0.000 C 
ENDBRANCH  14  15
BRANCH  14  17
ATOM     17  C   UNL     1      -0.589   6.291  -3.760  0.00  0.00    +0.004 C 
BRANCH  17  18
ATOM     18  C   UNL     1      -1.703   7.299  -3.723  0.00  0.00    +0.000 C 
BRANCH  18  20
ATOM     19  C   UNL     1      -2.806   5.213  -3.227  0.00  0.00    +0.000 C 
ATOM     20  C   UNL     1      -3.023   6.542  -3.770  0.00  0.00    +0.000 C 
ENDBRANCH  18  20
ENDBRANCH  17  18
ENDBRANCH  14  17
ENDBRANCH  13  14
ENDBRANCH  12  13
ENDBRANCH   1  12
TORSDOF 9
ENDMDL
MODEL 6
REMARK VINA RESULT:      -6.2      1.567      3.253
REMARK  Name = 
REMARK  9 active torsions:
REMARK  status: ('A' for Active; 'I' for Inactive)
REMARK    1  A    between atoms: C_2  and  C_3
REMARK    2  A    between atoms: C_3  and  C_4
REMARK    3  A    between atoms: C_4  and  C_5
REMARK    4  A    between atoms: C_5  and  C_6
REMARK    5  A    between atoms: C_5  and  C_8
REMARK    6  A    between atoms: C_8  and  O_9
REMARK    7  A    between atoms: O_9  and  C_10
REMARK    8  A    between atoms: C_10  and  C_12
REMARK    9  A    between atoms: C_15  and  N_16
REMARK                            x       y       z     vdW  Elec       q    Type
REMARK                         _______ _______ _______ _____ _____    ______ ____
ROOT
ATOM      1  C   UNL     1       3.050   6.709  -7.361  0.00  0.00    +0.341 C 
ATOM      2  O   UNL     1       3.541   6.646  -6.219  0.00  0.00    -0.245 OA
ENDROOT
BRANCH   1   3
ATOM      3  C   UNL     1       3.845   6.112  -8.438  0.00  0.00    +0.076 A 
ATOM      4  C   UNL     1       5.064   5.550  -8.153  0.00  0.00    +0.008 A 
ATOM      5  C   UNL     1       6.032   5.399  -9.127  0.00  0.00    +0.015 A 
ATOM      6  C   UNL     1       5.790   5.935 -10.378  0.00  0.00    +0.048 A 
ATOM      7  C   UNL     1       4.564   6.492 -10.678  0.00  0.00    +0.015 A 
ATOM      8  C   UNL     1       3.606   6.618  -9.709  0.00  0.00    +0.008 A 
BRANCH   6   9
ATOM      9  N   UNL     1       6.755   5.706 -11.407  0.00  0.00    -0.304 N 
ATOM     10  C   UNL     1       8.144   5.460 -11.123  0.00  0.00    +0.112 C 
ATOM     11  C   UNL     1       6.212   5.465 -12.726  0.00  0.00    +0.112 C 
ENDBRANCH   6   9
ENDBRANCH   1   3
BRANCH   1  12
ATOM     12  O   UNL     1       1.766   7.172  -7.519  0.00  0.00    -0.445 OA
BRANCH  12  13
ATOM     13  C   UNL     1       0.739   6.662  -6.691  0.00  0.00    +0.209 C 
BRANCH  13  14
ATOM     14  C   UNL     1       0.382   5.232  -7.433  0.00  0.00    +0.044 C 
BRANCH  14  15
ATOM     15  C   UNL     1      -1.192   5.294  -6.944  0.00  0.00    +0.004 C 
ATOM     16  C   UNL     1      -1.168   5.936  -5.584  0.00  0.00    +0.000 C 
ENDBRANCH  14  15
BRANCH  14  17
ATOM     17  C   UNL     1       0.032   5.994  -8.853  0.00  0.00    +0.004 C 
BRANCH  17  18
ATOM     18  C   UNL     1       0.263   4.944  -9.903  0.00  0.00    +0.000 C 
BRANCH  18  20
ATOM     19  C   UNL     1      -0.117   7.004 -11.096  0.00  0.00    +0.000 C 
ATOM     20  C   UNL     1       0.363   5.643 -11.252  0.00  0.00    +0.000 C 
ENDBRANCH  18  20
ENDBRANCH  17  18
ENDBRANCH  14  17
ENDBRANCH  13  14
ENDBRANCH  12  13
ENDBRANCH   1  12
TORSDOF 9
ENDMDL
MODEL 7
REMARK VINA RESULT:      -6.2      2.927      3.951
REMARK  Name = 
REMARK  9 active torsions:
REMARK  status: ('A' for Active; 'I' for Inactive)
REMARK    1  A    between atoms: C_2  and  C_3
REMARK    2  A    between atoms: C_3  and  C_4
REMARK    3  A    between atoms: C_4  and  C_5
REMARK    4  A    between atoms: C_5  and  C_6
REMARK    5  A    between atoms: C_5  and  C_8
REMARK    6  A    between atoms: C_8  and  O_9
REMARK    7  A    between atoms: O_9  and  C_10
REMARK    8  A    between atoms: C_10  and  C_12
REMARK    9  A    between atoms: C_15  and  N_16
REMARK                            x       y       z     vdW  Elec       q    Type
REMARK                         _______ _______ _______ _____ _____    ______ ____
ROOT
ATOM      1  C   UNL     1       3.665   6.419  -5.435  0.00  0.00    +0.341 C 
ATOM      2  O   UNL     1       4.742   6.929  -5.073  0.00  0.00    -0.245 OA
ENDROOT
BRANCH   1   3
ATOM      3  C   UNL     1       3.410   6.407  -6.877  0.00  0.00    +0.076 A 
ATOM      4  C   UNL     1       2.546   7.323  -7.424  0.00  0.00    +0.008 A 
ATOM      5  C   UNL     1       1.922   7.090  -8.634  0.00  0.00    +0.015 A 
ATOM      6  C   UNL     1       2.095   5.856  -9.233  0.00  0.00    +0.048 A 
ATOM      7  C   UNL     1       2.969   4.933  -8.698  0.00  0.00    +0.015 A 
ATOM      8  C   UNL     1       3.597   5.183  -7.508  0.00  0.00    +0.008 A 
BRANCH   6   9
ATOM      9  N   UNL     1       1.517   5.647 -10.523  0.00  0.00    -0.304 N 
ATOM     10  C   UNL     1       2.063   6.231 -11.719  0.00  0.00    +0.112 C 
ATOM     11  C   UNL     1       0.520   4.600 -10.595  0.00  0.00    +0.112 C 
ENDBRANCH   6   9
ENDBRANCH   1   3
BRANCH   1  12
ATOM     12  O   UNL     1       2.879   5.774  -4.509  0.00  0.00    -0.445 OA
BRANCH  12  13
ATOM     13  C   UNL     1       1.823   6.477  -3.886  0.00  0.00    +0.209 C 
BRANCH  13  14
ATOM     14  C   UNL     1       0.599   5.372  -3.943  0.00  0.00    +0.044 C 
BRANCH  14  15
ATOM     15  C   UNL     1      -0.327   6.244  -2.893  0.00  0.00    +0.004 C 
ATOM     16  C   UNL     1      -1.531   5.390  -2.608  0.00  0.00    +0.000 C 
ENDBRANCH  14  15
BRANCH  14  17
ATOM     17  C   UNL     1      -0.082   6.113  -5.249  0.00  0.00    +0.004 C 
BRANCH  17  18
ATOM     18  C   UNL     1      -0.125   5.040  -6.302  0.00  0.00    +0.000 C 
BRANCH  18  20
ATOM     19  C   UNL     1      -2.353   5.959  -6.229  0.00  0.00    +0.000 C 
ATOM     20  C   UNL     1      -1.452   5.160  -7.040  0.00  0.00    +0.000 C 
ENDBRANCH  18  20
ENDBRANCH  17  18
ENDBRANCH  14  17
ENDBRANCH  13  14
ENDBRANCH  12  13
ENDBRANCH   1  12
TORSDOF 9
ENDMDL
MODEL 8
REMARK VINA RESULT:      -6.1      1.510      2.597
REMARK  Name = 
REMARK  9 active torsions:
REMARK  status: ('A' for Active; 'I' for Inactive)
REMARK    1  A    between atoms: C_2  and  C_3
REMARK    2  A    between atoms: C_3  and  C_4
REMARK    3  A    between atoms: C_4  and  C_5
REMARK    4  A    between atoms: C_5  and  C_6
REMARK    5  A    between atoms: C_5  and  C_8
REMARK    6  A    between atoms: C_8  and  O_9
REMARK    7  A    between atoms: O_9  and  C_10
REMARK    8  A    between atoms: C_10  and  C_12
REMARK    9  A    between atoms: C_15  and  N_16
REMARK                            x       y       z     vdW  Elec       q    Type
REMARK                         _______ _______ _______ _____ _____    ______ ____
ROOT
ATOM      1  C   UNL     1       2.667   4.391  -8.303  0.00  0.00    +0.341 C 
ATOM      2  O   UNL     1       1.828   4.037  -9.153  0.00  0.00    -0.245 OA
ENDROOT
BRANCH   1   3
ATOM      3  C   UNL     1       3.687   5.338  -8.760  0.00  0.00    +0.076 A 
ATOM      4  C   UNL     1       3.456   6.102  -9.877  0.00  0.00    +0.008 A 
ATOM      5  C   UNL     1       4.497   6.644 -10.606  0.00  0.00    +0.015 A 
ATOM      6  C   UNL     1       5.789   6.302 -10.254  0.00  0.00    +0.048 A 
ATOM      7  C   UNL     1       6.033   5.545  -9.127  0.00  0.00    +0.015 A 
ATOM      8  C   UNL     1       4.994   5.030  -8.401  0.00  0.00    +0.008 A 
BRANCH   6   9
ATOM      9  N   UNL     1       6.866   6.928 -10.956  0.00  0.00    -0.304 N 
ATOM     10  C   UNL     1       7.992   6.189 -11.461  0.00  0.00    +0.112 C 
ATOM     11  C   UNL     1       6.627   8.295 -11.367  0.00  0.00    +0.112 C 
ENDBRANCH   6   9
ENDBRANCH   1   3
BRANCH   1  12
ATOM     12  O   UNL     1       2.499   4.014  -6.993  0.00  0.00    -0.445 OA
BRANCH  12  13
ATOM     13  C   UNL     1       1.294   4.335  -6.327  0.00  0.00    +0.209 C 
BRANCH  13  14
ATOM     14  C   UNL     1       1.386   5.980  -6.232  0.00  0.00    +0.044 C 
BRANCH  14  15
ATOM     15  C   UNL     1      -0.228   6.118  -5.918  0.00  0.00    +0.004 C 
ATOM     16  C   UNL     1      -0.916   5.272  -6.953  0.00  0.00    +0.000 C 
ENDBRANCH  14  15
BRANCH  14  17
ATOM     17  C   UNL     1       1.752   5.920  -4.626  0.00  0.00    +0.004 C 
BRANCH  17  18
ATOM     18  C   UNL     1       2.744   7.033  -4.431  0.00  0.00    +0.000 C 
BRANCH  18  20
ATOM     19  C   UNL     1       4.631   5.552  -4.661  0.00  0.00    +0.000 C 
ATOM     20  C   UNL     1       3.983   6.707  -5.253  0.00  0.00    +0.000 C 
ENDBRANCH  18  20
ENDBRANCH  17  18
ENDBRANCH  14  17
ENDBRANCH  13  14
ENDBRANCH  12  13
ENDBRANCH   1  12
TORSDOF 9
ENDMDL
MODEL 9
REMARK VINA RESULT:      -6.1      3.195      7.545
REMARK  Name = 
REMARK  9 active torsions:
REMARK  status: ('A' for Active; 'I' for Inactive)
REMARK    1  A    between atoms: C_2  and  C_3
REMARK    2  A    between atoms: C_3  and  C_4
REMARK    3  A    between atoms: C_4  and  C_5
REMARK    4  A    between atoms: C_5  and  C_6
REMARK    5  A    between atoms: C_5  and  C_8
REMARK    6  A    between atoms: C_8  and  O_9
REMARK    7  A    between atoms: O_9  and  C_10
REMARK    8  A    between atoms: C_10  and  C_12
REMARK    9  A    between atoms: C_15  and  N_16
REMARK                            x       y       z     vdW  Elec       q    Type
REMARK                         _______ _______ _______ _____ _____    ______ ____
ROOT
ATOM      1  C   UNL     1       3.468   5.440  -9.867  0.00  0.00    +0.341 C 
ATOM      2  O   UNL     1       2.297   5.086 -10.101  0.00  0.00    -0.245 OA
ENDROOT
BRANCH   1   3
ATOM      3  C   UNL     1       3.693   6.120  -8.589  0.00  0.00    +0.076 A 
ATOM      4  C   UNL     1       4.521   5.554  -7.652  0.00  0.00    +0.008 A 
ATOM      5  C   UNL     1       4.418   5.877  -6.313  0.00  0.00    +0.015 A 
ATOM      6  C   UNL     1       3.380   6.699  -5.916  0.00  0.00    +0.048 A 
ATOM      7  C   UNL     1       2.550   7.282  -6.850  0.00  0.00    +0.015 A 
ATOM      8  C   UNL     1       2.674   6.970  -8.176  0.00  0.00    +0.008 A 
BRANCH   6   9
ATOM      9  N   UNL     1       3.324   7.098  -4.544  0.00  0.00    -0.304 N 
ATOM     10  C   UNL     1       2.232   6.740  -3.679  0.00  0.00    +0.112 C 
ATOM     11  C   UNL     1       4.551   7.646  -4.007  0.00  0.00    +0.112 C 
ENDBRANCH   6   9
ENDBRANCH   1   3
BRANCH   1  12
ATOM     12  O   UNL     1       4.474   5.042 -10.714  0.00  0.00    -0.445 OA
BRANCH  12  13
ATOM     13  C   UNL     1       4.817   5.860 -11.815  0.00  0.00    +0.209 C 
BRANCH  13  14
ATOM     14  C   UNL     1       5.900   6.905 -11.139  0.00  0.00    +0.044 C 
BRANCH  14  15
ATOM     15  C   UNL     1       7.014   5.709 -10.913  0.00  0.00    +0.004 C 
ATOM     16  C   UNL     1       7.604   5.958  -9.553  0.00  0.00    +0.000 C 
ENDBRANCH  14  15
BRANCH  14  17
ATOM     17  C   UNL     1       6.529   7.292 -12.613  0.00  0.00    +0.004 C 
BRANCH  17  18
ATOM     18  C   UNL     1       6.983   5.975 -13.178  0.00  0.00    +0.000 C 
BRANCH  18  20
ATOM     19  C   UNL     1       6.344   7.349 -15.053  0.00  0.00    +0.000 C 
ATOM     20  C   UNL     1       6.954   6.081 -14.697  0.00  0.00    +0.000 C 
ENDBRANCH  18  20
ENDBRANCH  17  18
ENDBRANCH  14  17
ENDBRANCH  13  14
ENDBRANCH  12  13
ENDBRANCH   1  12
TORSDOF 9
ENDMDL
