MODEL 1
REMARK VINA RESULT:      -9.8      0.000      0.000
REMARK  Name = 
REMARK  5 active torsions:
REMARK  status: ('A' for Active; 'I' for Inactive)
REMARK    1  A    between atoms: C_2  and  O_3
REMARK    2  A    between atoms: C_2  and  C_16
REMARK    3  A    between atoms: O_3  and  C_4
REMARK    4  A    between atoms: C_16  and  C_18
REMARK    5  A    between atoms: C_16  and  C_24
REMARK                            x       y       z     vdW  Elec       q    Type
REMARK                         _______ _______ _______ _____ _____    ______ ____
ROOT
ATOM      1  O   UNL     1       3.650   3.905  -8.984  0.00  0.00    -0.247 OA
ATOM      2  C   UNL     1       3.059   4.999  -8.776  0.00  0.00    +0.353 C 
ENDROOT
BRANCH   2   3
ATOM      3  C   UNL     1       3.311   6.215  -9.582  0.00  0.00    +0.252 C 
ATOM      4  O   UNL     1       3.265   7.394  -8.821  0.00  0.00    -0.205 OA
BRANCH   3   5
ATOM      5  C   UNL     1       4.651   6.051 -10.197  0.00  0.00    +0.019 A 
ATOM      6  C   UNL     1       5.063   6.794 -11.297  0.00  0.00    -0.001 A 
ATOM      7  C   UNL     1       6.294   7.440 -11.284  0.00  0.00    -0.000 A 
ATOM      8  C   UNL     1       7.309   6.938 -10.487  0.00  0.00    -0.000 A 
ATOM      9  C   UNL     1       6.999   5.915  -9.618  0.00  0.00    -0.000 A 
ATOM     10  C   UNL     1       5.670   5.623  -9.359  0.00  0.00    -0.001 A 
ENDBRANCH   3   5
BRANCH   3  11
ATOM     11  C   UNL     1       2.267   6.396 -10.638  0.00  0.00    +0.019 A 
ATOM     12  C   UNL     1       2.188   5.552 -11.737  0.00  0.00    -0.001 A 
ATOM     13  C   UNL     1       1.008   5.231 -12.354  0.00  0.00    -0.000 A 
ATOM     14  C   UNL     1      -0.183   5.695 -11.829  0.00  0.00    -0.000 A 
ATOM     15  C   UNL     1      -0.124   6.693 -10.887  0.00  0.00    -0.000 A 
ATOM     16  C   UNL     1       1.038   6.817 -10.140  0.00  0.00    -0.001 A 
ENDBRANCH   3  11
ENDBRANCH   2   3
BRANCH   2  17
ATOM     17  O   UNL     1       2.752   5.228  -7.450  0.00  0.00    -0.450 OA
BRANCH  17  18
ATOM     18  C   UNL     1       1.541   5.294  -6.853  0.00  0.00    +0.180 C 
ATOM     19  C   UNL     1       1.392   6.725  -6.310  0.00  0.00    +0.099 C 
ATOM     20  C   UNL     1       0.029   6.915  -5.388  0.00  0.00    +0.062 C 
ATOM     21  N   UNL     1      -0.413   5.386  -5.417  0.00  0.00    +0.289 N 
ATOM     22  C   UNL     1       1.103   5.585  -5.086  0.00  0.00    +0.062 C 
ATOM     23  C   UNL     1       0.781   5.288  -3.542  0.00  0.00    +0.061 C 
ATOM     24  C   UNL     1      -1.252   5.386  -4.343  0.00  0.00    +0.108 C 
ATOM     25  C   UNL     1      -2.563   5.825  -4.962  0.00  0.00    +0.067 C 
ATOM     26  C   UNL     1      -2.312   5.909  -6.458  0.00  0.00    +0.067 C 
ATOM     27  C   UNL     1      -0.891   5.448  -6.655  0.00  0.00    +0.108 C 
ATOM     28  C   UNL     1       0.632   6.814  -3.848  0.00  0.00    +0.061 C 
ATOM     29  C   UNL     1       1.547   4.179  -5.749  0.00  0.00    +0.099 C 
ENDBRANCH  17  18
ENDBRANCH   2  17
TORSDOF 5
ENDMDL
MODEL 2
REMARK VINA RESULT:      -9.8      2.181      6.880
REMARK  Name = 
REMARK  5 active torsions:
REMARK  status: ('A' for Active; 'I' for Inactive)
REMARK    1  A    between atoms: C_2  and  O_3
REMARK    2  A    between atoms: C_2  and  C_16
REMARK    3  A    between atoms: O_3  and  C_4
REMARK    4  A    between atoms: C_16  and  C_18
REMARK    5  A    between atoms: C_16  and  C_24
REMARK                            x       y       z     vdW  Elec       q    Type
REMARK                         _______ _______ _______ _____ _____    ______ ____
ROOT
ATOM      1  O   UNL     1       2.546   3.932  -8.782  0.00  0.00    -0.247 OA
ATOM      2  C   UNL     1       2.520   5.134  -8.402  0.00  0.00    +0.353 C 
ENDROOT
BRANCH   2   3
ATOM      3  C   UNL     1       1.263   5.902  -8.252  0.00  0.00    +0.252 C 
ATOM      4  O   UNL     1       1.482   7.239  -7.882  0.00  0.00    -0.205 OA
BRANCH   3   5
ATOM      5  C   UNL     1       0.563   5.838  -9.559  0.00  0.00    +0.019 A 
ATOM      6  C   UNL     1       0.573   6.892 -10.462  0.00  0.00    -0.001 A 
ATOM      7  C   UNL     1       0.891   6.667 -11.797  0.00  0.00    -0.000 A 
ATOM      8  C   UNL     1       0.661   5.415 -12.342  0.00  0.00    -0.000 A 
ATOM      9  C   UNL     1       0.280   4.403 -11.488  0.00  0.00    -0.000 A 
ATOM     10  C   UNL     1       0.416   4.578 -10.121  0.00  0.00    -0.001 A 
ENDBRANCH   3   5
BRANCH   3  11
ATOM     11  C   UNL     1       0.404   5.336  -7.166  0.00  0.00    +0.019 A 
ATOM     12  C   UNL     1       0.831   5.295  -5.846  0.00  0.00    -0.001 A 
ATOM     13  C   UNL     1      -0.020   5.408  -4.779  0.00  0.00    -0.000 A 
ATOM     14  C   UNL     1      -1.362   5.652  -5.001  0.00  0.00    -0.000 A 
ATOM     15  C   UNL     1      -1.843   5.484  -6.276  0.00  0.00    -0.000 A 
ATOM     16  C   UNL     1      -0.951   5.603  -7.331  0.00  0.00    -0.001 A 
ENDBRANCH   3  11
ENDBRANCH   2   3
BRANCH   2  17
ATOM     17  O   UNL     1       3.615   5.873  -8.802  0.00  0.00    -0.450 OA
BRANCH  17  18
ATOM     18  C   UNL     1       4.176   5.973 -10.027  0.00  0.00    +0.180 C 
ATOM     19  C   UNL     1       5.564   5.316  -9.934  0.00  0.00    +0.099 C 
ATOM     20  C   UNL     1       6.456   5.520 -11.316  0.00  0.00    +0.062 C 
ATOM     21  N   UNL     1       5.414   6.469 -12.055  0.00  0.00    +0.289 N 
ATOM     22  C   UNL     1       5.684   6.885 -10.571  0.00  0.00    +0.062 C 
ATOM     23  C   UNL     1       6.617   8.079 -11.100  0.00  0.00    +0.061 C 
ATOM     24  C   UNL     1       6.248   7.022 -12.980  0.00  0.00    +0.108 C 
ATOM     25  C   UNL     1       6.195   6.009 -14.105  0.00  0.00    +0.067 C 
ATOM     26  C   UNL     1       5.155   4.981 -13.693  0.00  0.00    +0.067 C 
ATOM     27  C   UNL     1       4.596   5.475 -12.384  0.00  0.00    +0.108 C 
ATOM     28  C   UNL     1       7.457   6.775 -10.903  0.00  0.00    +0.061 C 
ATOM     29  C   UNL     1       4.206   7.506 -10.360  0.00  0.00    +0.099 C 
ENDBRANCH  17  18
ENDBRANCH   2  17
TORSDOF 5
ENDMDL
MODEL 3
REMARK VINA RESULT:      -9.8      2.014      6.812
REMARK  Name = 
REMARK  5 active torsions:
REMARK  status: ('A' for Active; 'I' for Inactive)
REMARK    1  A    between atoms: C_2  and  O_3
REMARK    2  A    between atoms: C_2  and  C_16
REMARK    3  A    between atoms: O_3  and  C_4
REMARK    4  A    between atoms: C_16  and  C_18
REMARK    5  A    between atoms: C_16  and  C_24
REMARK                            x       y       z     vdW  Elec       q    Type
REMARK                         _______ _______ _______ _____ _____    ______ ____
ROOT
ATOM      1  O   UNL     1       2.178   7.834  -7.389  0.00  0.00    -0.247 OA
ATOM      2  C   UNL     1       2.247   6.702  -7.939  0.00  0.00    +0.353 C 
ENDROOT
BRANCH   2   3
ATOM      3  C   UNL     1       1.119   5.743  -7.951  0.00  0.00    +0.252 C 
ATOM      4  O   UNL     1       1.528   4.417  -7.740  0.00  0.00    -0.205 OA
BRANCH   3   5
ATOM      5  C   UNL     1       0.183   6.170  -6.881  0.00  0.00    +0.019 A 
ATOM      6  C   UNL     1      -1.196   6.119  -7.034  0.00  0.00    -0.001 A 
ATOM      7  C   UNL     1      -1.988   5.529  -6.056  0.00  0.00    -0.000 A 
ATOM      8  C   UNL     1      -1.530   5.494  -4.749  0.00  0.00    -0.000 A 
ATOM      9  C   UNL     1      -0.235   5.901  -4.511  0.00  0.00    -0.000 A 
ATOM     10  C   UNL     1       0.638   6.050  -5.576  0.00  0.00    -0.001 A 
ENDBRANCH   3   5
BRANCH   3  11
ATOM     11  C   UNL     1       0.430   5.729  -9.278  0.00  0.00    +0.019 A 
ATOM     12  C   UNL     1       0.462   6.827 -10.127  0.00  0.00    -0.001 A 
ATOM     13  C   UNL     1       0.444   6.720 -11.493  0.00  0.00    -0.000 A 
ATOM     14  C   UNL     1       0.474   5.469 -12.078  0.00  0.00    -0.000 A 
ATOM     15  C   UNL     1       0.228   4.380 -11.279  0.00  0.00    -0.000 A 
ATOM     16  C   UNL     1       0.481   4.497  -9.920  0.00  0.00    -0.001 A 
ENDBRANCH   3  11
ENDBRANCH   2   3
BRANCH   2  17
ATOM     17  O   UNL     1       3.503   6.130  -7.890  0.00  0.00    -0.450 OA
BRANCH  17  18
ATOM     18  C   UNL     1       4.435   6.033  -8.863  0.00  0.00    +0.180 C 
ATOM     19  C   UNL     1       4.187   7.201  -9.832  0.00  0.00    +0.099 C 
ATOM     20  C   UNL     1       5.139   7.115 -11.186  0.00  0.00    +0.062 C 
ATOM     21  N   UNL     1       5.789   5.702 -10.850  0.00  0.00    +0.289 N 
ATOM     22  C   UNL     1       4.235   5.725 -10.670  0.00  0.00    +0.062 C 
ATOM     23  C   UNL     1       4.086   4.936 -12.059  0.00  0.00    +0.061 C 
ATOM     24  C   UNL     1       6.231   5.369 -12.095  0.00  0.00    +0.108 C 
ATOM     25  C   UNL     1       7.589   6.036 -12.142  0.00  0.00    +0.067 C 
ATOM     26  C   UNL     1       7.821   6.611 -10.755  0.00  0.00    +0.067 C 
ATOM     27  C   UNL     1       6.623   6.194  -9.941  0.00  0.00    +0.108 C 
ATOM     28  C   UNL     1       4.096   6.480 -12.307  0.00  0.00    +0.061 C 
ATOM     29  C   UNL     1       4.242   4.610  -9.499  0.00  0.00    +0.099 C 
ENDBRANCH  17  18
ENDBRANCH   2  17
TORSDOF 5
ENDMDL
MODEL 4
REMARK VINA RESULT:      -9.7      1.718      4.149
REMARK  Name = 
REMARK  5 active torsions:
REMARK  status: ('A' for Active; 'I' for Inactive)
REMARK    1  A    between atoms: C_2  and  O_3
REMARK    2  A    between atoms: C_2  and  C_16
REMARK    3  A    between atoms: O_3  and  C_4
REMARK    4  A    between atoms: C_16  and  C_18
REMARK    5  A    between atoms: C_16  and  C_24
REMARK                            x       y       z     vdW  Elec       q    Type
REMARK                         _______ _______ _______ _____ _____    ______ ____
ROOT
ATOM      1  O   UNL     1       2.492   7.738  -8.681  0.00  0.00    -0.247 OA
ATOM      2  C   UNL     1       3.375   6.845  -8.793  0.00  0.00    +0.353 C 
ENDROOT
BRANCH   2   3
ATOM      3  C   UNL     1       3.444   5.923  -9.950  0.00  0.00    +0.252 C 
ATOM      4  O   UNL     1       3.849   4.628  -9.592  0.00  0.00    -0.205 OA
BRANCH   3   5
ATOM      5  C   UNL     1       2.088   5.890 -10.552  0.00  0.00    +0.019 A 
ATOM      6  C   UNL     1       1.833   6.349 -11.838  0.00  0.00    -0.001 A 
ATOM      7  C   UNL     1       1.117   5.561 -12.733  0.00  0.00    -0.000 A 
ATOM      8  C   UNL     1       0.217   4.631 -12.240  0.00  0.00    -0.000 A 
ATOM      9  C   UNL     1       0.195   4.416 -10.879  0.00  0.00    -0.000 A 
ATOM     10  C   UNL     1       1.232   4.898 -10.098  0.00  0.00    -0.001 A 
ENDBRANCH   3   5
BRANCH   3  11
ATOM     11  C   UNL     1       4.454   6.382 -10.953  0.00  0.00    +0.019 A 
ATOM     12  C   UNL     1       5.197   7.539 -10.762  0.00  0.00    -0.001 A 
ATOM     13  C   UNL     1       6.477   7.693 -11.221  0.00  0.00    -0.000 A 
ATOM     14  C   UNL     1       7.111   6.632 -11.840  0.00  0.00    -0.000 A 
ATOM     15  C   UNL     1       6.341   5.564 -12.230  0.00  0.00    -0.000 A 
ATOM     16  C   UNL     1       5.147   5.341 -11.562  0.00  0.00    -0.001 A 
ENDBRANCH   3  11
ENDBRANCH   2   3
BRANCH   2  17
ATOM     17  O   UNL     1       3.786   6.308  -7.589  0.00  0.00    -0.450 OA
BRANCH  17  18
ATOM     18  C   UNL     1       3.085   6.138  -6.447  0.00  0.00    +0.180 C 
ATOM     19  C   UNL     1       3.532   7.250  -5.483  0.00  0.00    +0.099 C 
ATOM     20  C   UNL     1       2.893   7.068  -3.965  0.00  0.00    +0.062 C 
ATOM     21  N   UNL     1       2.191   5.667  -4.241  0.00  0.00    +0.289 N 
ATOM     22  C   UNL     1       3.669   5.727  -4.747  0.00  0.00    +0.062 C 
ATOM     23  C   UNL     1       4.116   4.859  -3.473  0.00  0.00    +0.061 C 
ATOM     24  C   UNL     1       2.027   5.253  -2.953  0.00  0.00    +0.108 C 
ATOM     25  C   UNL     1       0.708   5.894  -2.575  0.00  0.00    +0.067 C 
ATOM     26  C   UNL     1       0.183   6.546  -3.842  0.00  0.00    +0.067 C 
ATOM     27  C   UNL     1       1.179   6.198  -4.918  0.00  0.00    +0.108 C 
ATOM     28  C   UNL     1       4.154   6.385  -3.135  0.00  0.00    +0.061 C 
ATOM     29  C   UNL     1       3.415   4.684  -5.956  0.00  0.00    +0.099 C 
ENDBRANCH  17  18
ENDBRANCH   2  17
TORSDOF 5
ENDMDL
MODEL 5
REMARK VINA RESULT:      -9.6      0.707      3.636
REMARK  Name = 
REMARK  5 active torsions:
REMARK  status: ('A' for Active; 'I' for Inactive)
REMARK    1  A    between atoms: C_2  and  O_3
REMARK    2  A    between atoms: C_2  and  C_16
REMARK    3  A    between atoms: O_3  and  C_4
REMARK    4  A    between atoms: C_16  and  C_18
REMARK    5  A    between atoms: C_16  and  C_24
REMARK                            x       y       z     vdW  Elec       q    Type
REMARK                         _______ _______ _______ _____ _____    ______ ____
ROOT
ATOM      1  O   UNL     1       2.686   7.720  -8.553  0.00  0.00    -0.247 OA
ATOM      2  C   UNL     1       3.136   6.553  -8.402  0.00  0.00    +0.353 C 
ENDROOT
BRANCH   2   3
ATOM      3  C   UNL     1       3.336   5.616  -9.531  0.00  0.00    +0.252 C 
ATOM      4  O   UNL     1       3.446   4.279  -9.118  0.00  0.00    -0.205 OA
BRANCH   3   5
ATOM      5  C   UNL     1       2.172   5.782 -10.436  0.00  0.00    +0.019 A 
ATOM      6  C   UNL     1       2.309   6.155 -11.767  0.00  0.00    -0.001 A 
ATOM      7  C   UNL     1       1.665   5.435 -12.766  0.00  0.00    -0.000 A 
ATOM      8  C   UNL     1       0.506   4.743 -12.456  0.00  0.00    -0.000 A 
ATOM      9  C   UNL     1       0.138   4.666 -11.131  0.00  0.00    -0.000 A 
ATOM     10  C   UNL     1       1.050   5.017 -10.150  0.00  0.00    -0.001 A 
ENDBRANCH   3   5
BRANCH   3  11
ATOM     11  C   UNL     1       4.612   5.903 -10.258  0.00  0.00    +0.019 A 
ATOM     12  C   UNL     1       4.798   7.083 -10.965  0.00  0.00    -0.001 A 
ATOM     13  C   UNL     1       6.017   7.694 -11.097  0.00  0.00    -0.000 A 
ATOM     14  C   UNL     1       7.115   7.172 -10.440  0.00  0.00    -0.000 A 
ATOM     15  C   UNL     1       7.009   5.905  -9.919  0.00  0.00    -0.000 A 
ATOM     16  C   UNL     1       5.744   5.433  -9.602  0.00  0.00    -0.001 A 
ENDBRANCH   3  11
ENDBRANCH   2   3
BRANCH   2  17
ATOM     17  O   UNL     1       2.777   5.962  -7.207  0.00  0.00    -0.450 OA
BRANCH  17  18
ATOM     18  C   UNL     1       1.549   5.815  -6.662  0.00  0.00    +0.180 C 
ATOM     19  C   UNL     1       1.230   7.128  -5.928  0.00  0.00    +0.099 C 
ATOM     20  C   UNL     1      -0.173   7.039  -5.051  0.00  0.00    +0.062 C 
ATOM     21  N   UNL     1      -0.444   5.494  -5.316  0.00  0.00    +0.289 N 
ATOM     22  C   UNL     1       1.031   5.798  -4.893  0.00  0.00    +0.062 C 
ATOM     23  C   UNL     1       0.697   5.246  -3.423  0.00  0.00    +0.061 C 
ATOM     24  C   UNL     1      -1.310   5.250  -4.293  0.00  0.00    +0.108 C 
ATOM     25  C   UNL     1      -2.642   5.638  -4.902  0.00  0.00    +0.067 C 
ATOM     26  C   UNL     1      -2.357   5.965  -6.357  0.00  0.00    +0.067 C 
ATOM     27  C   UNL     1      -0.889   5.686  -6.554  0.00  0.00    +0.108 C 
ATOM     28  C   UNL     1       0.393   6.778  -3.515  0.00  0.00    +0.061 C 
ATOM     29  C   UNL     1       1.644   4.557  -5.729  0.00  0.00    +0.099 C 
ENDBRANCH  17  18
ENDBRANCH   2  17
TORSDOF 5
ENDMDL
MODEL 6
REMARK VINA RESULT:      -9.5      2.347      7.427
REMARK  Name = 
REMARK  5 active torsions:
REMARK  status: ('A' for Active; 'I' for Inactive)
REMARK    1  A    between atoms: C_2  and  O_3
REMARK    2  A    between atoms: C_2  and  C_16
REMARK    3  A    between atoms: O_3  and  C_4
REMARK    4  A    between atoms: C_16  and  C_18
REMARK    5  A    between atoms: C_16  and  C_24
REMARK                            x       y       z     vdW  Elec       q    Type
REMARK                         _______ _______ _______ _____ _____    ______ ____
ROOT
ATOM      1  O   UNL     1       0.636   3.926  -5.854  0.00  0.00    -0.247 OA
ATOM      2  C   UNL     1       1.097   5.099  -5.838  0.00  0.00    +0.353 C 
ENDROOT
BRANCH   2   3
ATOM      3  C   UNL     1       1.116   5.939  -4.620  0.00  0.00    +0.252 C 
ATOM      4  O   UNL     1       0.777   7.277  -4.874  0.00  0.00    -0.205 OA
BRANCH   3   5
ATOM      5  C   UNL     1       0.152   5.335  -3.668  0.00  0.00    +0.019 A 
ATOM      6  C   UNL     1       0.476   5.075  -2.342  0.00  0.00    -0.001 A 
ATOM      7  C   UNL     1      -0.369   5.492  -1.320  0.00  0.00    -0.000 A 
ATOM      8  C   UNL     1      -1.719   5.652  -1.585  0.00  0.00    -0.000 A 
ATOM      9  C   UNL     1      -2.134   5.547  -2.895  0.00  0.00    -0.000 A 
ATOM     10  C   UNL     1      -1.193   5.576  -3.911  0.00  0.00    -0.001 A 
ENDBRANCH   3   5
BRANCH   3  11
ATOM     11  C   UNL     1       2.484   5.995  -4.017  0.00  0.00    +0.019 A 
ATOM     12  C   UNL     1       3.464   5.067  -4.346  0.00  0.00    -0.001 A 
ATOM     13  C   UNL     1       4.800   5.366  -4.377  0.00  0.00    -0.000 A 
ATOM     14  C   UNL     1       5.213   6.665  -4.151  0.00  0.00    -0.000 A 
ATOM     15  C   UNL     1       4.302   7.545  -3.618  0.00  0.00    -0.000 A 
ATOM     16  C   UNL     1       2.954   7.289  -3.818  0.00  0.00    -0.001 A 
ENDBRANCH   3  11
ENDBRANCH   2   3
BRANCH   2  17
ATOM     17  O   UNL     1       0.923   5.787  -7.023  0.00  0.00    -0.450 OA
BRANCH  17  18
ATOM     18  C   UNL     1       1.782   5.943  -8.054  0.00  0.00    +0.180 C 
ATOM     19  C   UNL     1       2.410   4.564  -8.318  0.00  0.00    +0.099 C 
ATOM     20  C   UNL     1       3.627   4.627  -9.442  0.00  0.00    +0.062 C 
ATOM     21  N   UNL     1       3.630   6.210  -9.604  0.00  0.00    +0.289 N 
ATOM     22  C   UNL     1       3.614   5.743  -8.112  0.00  0.00    +0.062 C 
ATOM     23  C   UNL     1       5.175   6.100  -8.008  0.00  0.00    +0.061 C 
ATOM     24  C   UNL     1       4.865   6.366 -10.158  0.00  0.00    +0.108 C 
ATOM     25  C   UNL     1       4.583   6.168 -11.632  0.00  0.00    +0.067 C 
ATOM     26  C   UNL     1       3.075   6.033 -11.755  0.00  0.00    +0.067 C 
ATOM     27  C   UNL     1       2.537   6.230 -10.361  0.00  0.00    +0.108 C 
ATOM     28  C   UNL     1       4.983   4.624  -8.487  0.00  0.00    +0.061 C 
ATOM     29  C   UNL     1       2.803   7.044  -7.597  0.00  0.00    +0.099 C 
ENDBRANCH  17  18
ENDBRANCH   2  17
TORSDOF 5
ENDMDL
MODEL 7
REMARK VINA RESULT:      -9.4      1.806      3.944
REMARK  Name = 
REMARK  5 active torsions:
REMARK  status: ('A' for Active; 'I' for Inactive)
REMARK    1  A    between atoms: C_2  and  O_3
REMARK    2  A    between atoms: C_2  and  C_16
REMARK    3  A    between atoms: O_3  and  C_4
REMARK    4  A    between atoms: C_16  and  C_18
REMARK    5  A    between atoms: C_16  and  C_24
REMARK                            x       y       z     vdW  Elec       q    Type
REMARK                         _______ _______ _______ _____ _____    ______ ____
ROOT
ATOM      1  O   UNL     1       1.853   7.863  -8.148  0.00  0.00    -0.247 OA
ATOM      2  C   UNL     1       1.934   6.765  -7.532  0.00  0.00    +0.353 C 
ENDROOT
BRANCH   2   3
ATOM      3  C   UNL     1       3.115   5.877  -7.624  0.00  0.00    +0.252 C 
ATOM      4  O   UNL     1       2.773   4.516  -7.660  0.00  0.00    -0.205 OA
BRANCH   3   5
ATOM      5  C   UNL     1       3.843   6.258  -8.860  0.00  0.00    +0.019 A 
ATOM      6  C   UNL     1       5.229   6.240  -8.944  0.00  0.00    -0.001 A 
ATOM      7  C   UNL     1       5.857   5.608 -10.011  0.00  0.00    -0.000 A 
ATOM      8  C   UNL     1       5.183   5.492 -11.216  0.00  0.00    -0.000 A 
ATOM      9  C   UNL     1       3.857   5.863 -11.249  0.00  0.00    -0.000 A 
ATOM     10  C   UNL     1       3.175   6.057 -10.059  0.00  0.00    -0.001 A 
ENDBRANCH   3   5
BRANCH   3  11
ATOM     11  C   UNL     1       4.000   6.022  -6.427  0.00  0.00    +0.019 A 
ATOM     12  C   UNL     1       4.020   7.187  -5.672  0.00  0.00    -0.001 A 
ATOM     13  C   UNL     1       4.256   7.203  -4.323  0.00  0.00    -0.000 A 
ATOM     14  C   UNL     1       4.406   6.009  -3.644  0.00  0.00    -0.000 A 
ATOM     15  C   UNL     1       4.605   4.870  -4.385  0.00  0.00    -0.000 A 
ATOM     16  C   UNL     1       4.138   4.850  -5.690  0.00  0.00    -0.001 A 
ENDBRANCH   3  11
ENDBRANCH   2   3
BRANCH   2  17
ATOM     17  O   UNL     1       0.724   6.119  -7.377  0.00  0.00    -0.450 OA
BRANCH  17  18
ATOM     18  C   UNL     1      -0.031   5.977  -6.265  0.00  0.00    +0.180 C 
ATOM     19  C   UNL     1       0.263   7.194  -5.373  0.00  0.00    +0.099 C 
ATOM     20  C   UNL     1      -0.454   7.076  -3.883  0.00  0.00    +0.062 C 
ATOM     21  N   UNL     1      -1.022   5.603  -4.082  0.00  0.00    +0.289 N 
ATOM     22  C   UNL     1       0.476   5.750  -4.507  0.00  0.00    +0.062 C 
ATOM     23  C   UNL     1       0.910   5.023  -3.144  0.00  0.00    +0.061 C 
ATOM     24  C   UNL     1      -1.232   5.277  -2.776  0.00  0.00    +0.108 C 
ATOM     25  C   UNL     1      -2.620   5.829  -2.527  0.00  0.00    +0.067 C 
ATOM     26  C   UNL     1      -3.115   6.335  -3.870  0.00  0.00    +0.067 C 
ATOM     27  C   UNL     1      -2.029   5.992  -4.857  0.00  0.00    +0.108 C 
ATOM     28  C   UNL     1       0.804   6.569  -2.930  0.00  0.00    +0.061 C 
ATOM     29  C   UNL     1       0.383   4.599  -5.640  0.00  0.00    +0.099 C 
ENDBRANCH  17  18
ENDBRANCH   2  17
TORSDOF 5
ENDMDL
MODEL 8
REMARK VINA RESULT:      -9.4      2.316      6.819
REMARK  Name = 
REMARK  5 active torsions:
REMARK  status: ('A' for Active; 'I' for Inactive)
REMARK    1  A    between atoms: C_2  and  O_3
REMARK    2  A    between atoms: C_2  and  C_16
REMARK    3  A    between atoms: O_3  and  C_4
REMARK    4  A    between atoms: C_16  and  C_18
REMARK    5  A    between atoms: C_16  and  C_24
REMARK                            x       y       z     vdW  Elec       q    Type
REMARK                         _______ _______ _______ _____ _____    ______ ____
ROOT
ATOM      1  O   UNL     1       2.110   8.045  -7.706  0.00  0.00    -0.247 OA
ATOM      2  C   UNL     1       1.921   6.852  -8.067  0.00  0.00    +0.353 C 
ENDROOT
BRANCH   2   3
ATOM      3  C   UNL     1       1.886   5.719  -7.114  0.00  0.00    +0.252 C 
ATOM      4  O   UNL     1       1.773   4.474  -7.751  0.00  0.00    -0.205 OA
BRANCH   3   5
ATOM      5  C   UNL     1       3.142   5.783  -6.328  0.00  0.00    +0.019 A 
ATOM      6  C   UNL     1       3.758   6.985  -6.003  0.00  0.00    -0.001 A 
ATOM      7  C   UNL     1       4.147   7.240  -4.692  0.00  0.00    -0.000 A 
ATOM      8  C   UNL     1       4.437   6.175  -3.856  0.00  0.00    -0.000 A 
ATOM      9  C   UNL     1       4.165   4.904  -4.316  0.00  0.00    -0.000 A 
ATOM     10  C   UNL     1       3.370   4.743  -5.438  0.00  0.00    -0.001 A 
ENDBRANCH   3   5
BRANCH   3  11
ATOM     11  C   UNL     1       0.696   5.802  -6.212  0.00  0.00    +0.019 A 
ATOM     12  C   UNL     1       0.501   6.880  -5.360  0.00  0.00    -0.001 A 
ATOM     13  C   UNL     1      -0.738   7.349  -5.014  0.00  0.00    -0.000 A 
ATOM     14  C   UNL     1      -1.863   6.789  -5.589  0.00  0.00    -0.000 A 
ATOM     15  C   UNL     1      -1.717   5.599  -6.258  0.00  0.00    -0.000 A 
ATOM     16  C   UNL     1      -0.468   5.290  -6.776  0.00  0.00    -0.001 A 
ENDBRANCH   3  11
ENDBRANCH   2   3
BRANCH   2  17
ATOM     17  O   UNL     1       2.434   6.555  -9.314  0.00  0.00    -0.450 OA
BRANCH  17  18
ATOM     18  C   UNL     1       3.702   6.242  -9.662  0.00  0.00    +0.180 C 
ATOM     19  C   UNL     1       4.271   7.464 -10.402  0.00  0.00    +0.099 C 
ATOM     20  C   UNL     1       5.765   7.170 -11.056  0.00  0.00    +0.062 C 
ATOM     21  N   UNL     1       5.817   5.624 -10.680  0.00  0.00    +0.289 N 
ATOM     22  C   UNL     1       4.462   6.057 -11.332  0.00  0.00    +0.062 C 
ATOM     23  C   UNL     1       4.935   5.380 -12.708  0.00  0.00    +0.061 C 
ATOM     24  C   UNL     1       6.785   5.225 -11.551  0.00  0.00    +0.108 C 
ATOM     25  C   UNL     1       8.053   5.505 -10.771  0.00  0.00    +0.067 C 
ATOM     26  C   UNL     1       7.603   5.953  -9.391  0.00  0.00    +0.067 C 
ATOM     27  C   UNL     1       6.100   5.846  -9.401  0.00  0.00    +0.108 C 
ATOM     28  C   UNL     1       5.398   6.873 -12.645  0.00  0.00    +0.061 C 
ATOM     29  C   UNL     1       3.597   4.944 -10.539  0.00  0.00    +0.099 C 
ENDBRANCH  17  18
ENDBRANCH   2  17
TORSDOF 5
ENDMDL
MODEL 9
REMARK VINA RESULT:      -9.3      2.421      4.876
REMARK  Name = 
REMARK  5 active torsions:
REMARK  status: ('A' for Active; 'I' for Inactive)
REMARK    1  A    between atoms: C_2  and  O_3
REMARK    2  A    between atoms: C_2  and  C_16
REMARK    3  A    between atoms: O_3  and  C_4
REMARK    4  A    between atoms: C_16  and  C_18
REMARK    5  A    between atoms: C_16  and  C_24
REMARK                            x       y       z     vdW  Elec       q    Type
REMARK                         _______ _______ _______ _____ _____    ______ ____
ROOT
ATOM      1  O   UNL     1       2.281   8.115  -8.179  0.00  0.00    -0.247 OA
ATOM      2  C   UNL     1       2.416   6.971  -7.666  0.00  0.00    +0.353 C 
ENDROOT
BRANCH   2   3
ATOM      3  C   UNL     1       2.470   5.730  -8.472  0.00  0.00    +0.252 C 
ATOM      4  O   UNL     1       2.574   4.573  -7.684  0.00  0.00    -0.205 OA
BRANCH   3   5
ATOM      5  C   UNL     1       1.227   5.692  -9.282  0.00  0.00    +0.019 A 
ATOM      6  C   UNL     1       0.622   6.841  -9.774  0.00  0.00    -0.001 A 
ATOM      7  C   UNL     1       0.257   6.923 -11.113  0.00  0.00    -0.000 A 
ATOM      8  C   UNL     1      -0.022   5.757 -11.806  0.00  0.00    -0.000 A 
ATOM      9  C   UNL     1       0.236   4.558 -11.178  0.00  0.00    -0.000 A 
ATOM     10  C   UNL     1       1.011   4.544 -10.030  0.00  0.00    -0.001 A 
ENDBRANCH   3   5
BRANCH   3  11
ATOM     11  C   UNL     1       3.676   5.706  -9.356  0.00  0.00    +0.019 A 
ATOM     12  C   UNL     1       3.857   6.640 -10.367  0.00  0.00    -0.001 A 
ATOM     13  C   UNL     1       5.089   7.088 -10.764  0.00  0.00    -0.000 A 
ATOM     14  C   UNL     1       6.217   6.663 -10.088  0.00  0.00    -0.000 A 
ATOM     15  C   UNL     1       6.092   5.590  -9.240  0.00  0.00    -0.000 A 
ATOM     16  C   UNL     1       4.842   5.328  -8.699  0.00  0.00    -0.001 A 
ENDBRANCH   3  11
ENDBRANCH   2   3
BRANCH   2  17
ATOM     17  O   UNL     1       1.827   6.840  -6.424  0.00  0.00    -0.450 OA
BRANCH  17  18
ATOM     18  C   UNL     1       2.403   6.852  -5.202  0.00  0.00    +0.180 C 
ATOM     19  C   UNL     1       3.922   6.925  -5.428  0.00  0.00    +0.099 C 
ATOM     20  C   UNL     1       4.782   6.764  -4.021  0.00  0.00    +0.062 C 
ATOM     21  N   UNL     1       3.529   6.464  -3.087  0.00  0.00    +0.289 N 
ATOM     22  C   UNL     1       3.529   5.626  -4.408  0.00  0.00    +0.062 C 
ATOM     23  C   UNL     1       4.019   4.348  -3.571  0.00  0.00    +0.061 C 
ATOM     24  C   UNL     1       4.179   5.896  -2.033  0.00  0.00    +0.108 C 
ATOM     25  C   UNL     1       4.564   7.105  -1.206  0.00  0.00    +0.067 C 
ATOM     26  C   UNL     1       3.925   8.301  -1.891  0.00  0.00    +0.067 C 
ATOM     27  C   UNL     1       3.136   7.732  -3.042  0.00  0.00    +0.108 C 
ATOM     28  C   UNL     1       5.247   5.174  -4.076  0.00  0.00    +0.061 C 
ATOM     29  C   UNL     1       1.916   5.542  -4.487  0.00  0.00    +0.099 C 
ENDBRANCH  17  18
ENDBRANCH   2  17
TORSDOF 5
ENDMDL
