MODEL 1
REMARK VINA RESULT:      -3.4      0.000      0.000
REMARK  Name = 
REMARK  2 active torsions:
REMARK  status: ('A' for Active; 'I' for Inactive)
REMARK    1  A    between atoms: S_2  and  C_5
REMARK    2  A    between atoms: C_5  and  C_6
REMARK                            x       y       z     vdW  Elec       q    Type
REMARK                         _______ _______ _______ _____ _____    ______ ____
ROOT
ATOM      1  O   UNL     1       7.566   4.519 -12.727  0.00  0.00    -0.371 OA
ATOM      2  S   UNL     1       7.978   5.709 -11.892  0.00  0.00    -0.106 S 
ATOM      3  O   UNL     1       7.906   5.351 -10.248  0.00  0.00    -0.291 OA
ATOM      4  O   UNL     1       9.396   6.034 -12.305  0.00  0.00    -0.371 OA
ENDROOT
BRANCH   2   5
ATOM      5  C   UNL     1       7.003   7.132 -12.185  0.00  0.00    +0.138 C 
BRANCH   5   6
ATOM      6  C   UNL     1       6.052   7.472 -11.073  0.00  0.00    +0.092 C 
ATOM      7  S   UNL     1       4.527   6.495 -11.142  0.00  0.00    -0.080 S 
ENDBRANCH   5   6
ENDBRANCH   2   5
TORSDOF 2
ENDMDL
MODEL 2
REMARK VINA RESULT:      -3.3     11.984     12.664
REMARK  Name = 
REMARK  2 active torsions:
REMARK  status: ('A' for Active; 'I' for Inactive)
REMARK    1  A    between atoms: S_2  and  C_5
REMARK    2  A    between atoms: C_5  and  C_6
REMARK                            x       y       z     vdW  Elec       q    Type
REMARK                         _______ _______ _______ _____ _____    ______ ____
ROOT
ATOM      1  O   UNL     1      -2.893   4.682  -2.671  0.00  0.00    -0.371 OA
ATOM      2  S   UNL     1      -1.847   5.723  -2.345  0.00  0.00    -0.106 S 
ATOM      3  O   UNL     1      -2.446   6.871  -1.269  0.00  0.00    -0.291 OA
ATOM      4  O   UNL     1      -0.689   4.968  -1.731  0.00  0.00    -0.371 OA
ENDROOT
BRANCH   2   5
ATOM      5  C   UNL     1      -1.241   6.561  -3.758  0.00  0.00    +0.138 C 
BRANCH   5   6
ATOM      6  C   UNL     1      -2.286   6.863  -4.795  0.00  0.00    +0.092 C 
ATOM      7  S   UNL     1      -2.238   5.701  -6.185  0.00  0.00    -0.080 S 
ENDBRANCH   5   6
ENDBRANCH   2   5
TORSDOF 2
ENDMDL
MODEL 3
REMARK VINA RESULT:      -3.3      2.042      2.544
REMARK  Name = 
REMARK  2 active torsions:
REMARK  status: ('A' for Active; 'I' for Inactive)
REMARK    1  A    between atoms: S_2  and  C_5
REMARK    2  A    between atoms: C_5  and  C_6
REMARK                            x       y       z     vdW  Elec       q    Type
REMARK                         _______ _______ _______ _____ _____    ______ ____
ROOT
ATOM      1  O   UNL     1       5.184   4.703 -13.458  0.00  0.00    -0.371 OA
ATOM      2  S   UNL     1       6.416   5.579 -13.480  0.00  0.00    -0.106 S 
ATOM      3  O   UNL     1       7.800   4.689 -13.121  0.00  0.00    -0.291 OA
ATOM      4  O   UNL     1       6.495   6.148 -14.879  0.00  0.00    -0.371 OA
ENDROOT
BRANCH   2   5
ATOM      5  C   UNL     1       6.327   6.925 -12.366  0.00  0.00    +0.138 C 
BRANCH   5   6
ATOM      6  C   UNL     1       7.384   6.917 -11.297  0.00  0.00    +0.092 C 
ATOM      7  S   UNL     1       6.911   5.915  -9.863  0.00  0.00    -0.080 S 
ENDBRANCH   5   6
ENDBRANCH   2   5
TORSDOF 2
ENDMDL
MODEL 4
REMARK VINA RESULT:      -3.2     11.064     12.034
REMARK  Name = 
REMARK  2 active torsions:
REMARK  status: ('A' for Active; 'I' for Inactive)
REMARK    1  A    between atoms: S_2  and  C_5
REMARK    2  A    between atoms: C_5  and  C_6
REMARK                            x       y       z     vdW  Elec       q    Type
REMARK                         _______ _______ _______ _____ _____    ______ ____
ROOT
ATOM      1  O   UNL     1      -2.845   4.673  -2.608  0.00  0.00    -0.371 OA
ATOM      2  S   UNL     1      -1.589   5.512  -2.678  0.00  0.00    -0.106 S 
ATOM      3  O   UNL     1      -1.885   7.091  -2.174  0.00  0.00    -0.291 OA
ATOM      4  O   UNL     1      -0.590   4.838  -1.763  0.00  0.00    -0.371 OA
ENDROOT
BRANCH   2   5
ATOM      5  C   UNL     1      -0.884   5.571  -4.278  0.00  0.00    +0.138 C 
BRANCH   5   6
ATOM      6  C   UNL     1       0.610   5.421  -4.304  0.00  0.00    +0.092 C 
ATOM      7  S   UNL     1       1.197   4.577  -5.796  0.00  0.00    -0.080 S 
ENDBRANCH   5   6
ENDBRANCH   2   5
TORSDOF 2
ENDMDL
MODEL 5
REMARK VINA RESULT:      -3.2     10.940     11.893
REMARK  Name = 
REMARK  2 active torsions:
REMARK  status: ('A' for Active; 'I' for Inactive)
REMARK    1  A    between atoms: S_2  and  C_5
REMARK    2  A    between atoms: C_5  and  C_6
REMARK                            x       y       z     vdW  Elec       q    Type
REMARK                         _______ _______ _______ _____ _____    ______ ____
ROOT
ATOM      1  O   UNL     1      -0.325   4.793  -1.696  0.00  0.00    -0.371 OA
ATOM      2  S   UNL     1      -1.268   5.498  -2.644  0.00  0.00    -0.106 S 
ATOM      3  O   UNL     1      -2.760   4.719  -2.707  0.00  0.00    -0.291 OA
ATOM      4  O   UNL     1      -1.421   6.903  -2.107  0.00  0.00    -0.371 OA
ENDROOT
BRANCH   2   5
ATOM      5  C   UNL     1      -0.645   5.620  -4.275  0.00  0.00    +0.138 C 
BRANCH   5   6
ATOM      6  C   UNL     1       0.810   5.270  -4.412  0.00  0.00    +0.092 C 
ATOM      7  S   UNL     1       1.177   4.433  -5.976  0.00  0.00    -0.080 S 
ENDBRANCH   5   6
ENDBRANCH   2   5
TORSDOF 2
ENDMDL
MODEL 6
REMARK VINA RESULT:      -3.2      1.758      2.361
REMARK  Name = 
REMARK  2 active torsions:
REMARK  status: ('A' for Active; 'I' for Inactive)
REMARK    1  A    between atoms: S_2  and  C_5
REMARK    2  A    between atoms: C_5  and  C_6
REMARK                            x       y       z     vdW  Elec       q    Type
REMARK                         _______ _______ _______ _____ _____    ______ ____
ROOT
ATOM      1  O   UNL     1       6.812   6.765 -13.507  0.00  0.00    -0.371 OA
ATOM      2  S   UNL     1       6.479   5.507 -12.738  0.00  0.00    -0.106 S 
ATOM      3  O   UNL     1       5.197   4.681 -13.450  0.00  0.00    -0.291 OA
ATOM      4  O   UNL     1       7.736   4.665 -12.761  0.00  0.00    -0.371 OA
ENDROOT
BRANCH   2   5
ATOM      5  C   UNL     1       6.074   5.807 -11.063  0.00  0.00    +0.138 C 
BRANCH   5   6
ATOM      6  C   UNL     1       5.043   6.881 -10.856  0.00  0.00    +0.092 C 
ATOM      7  S   UNL     1       3.369   6.210 -10.688  0.00  0.00    -0.080 S 
ENDBRANCH   5   6
ENDBRANCH   2   5
TORSDOF 2
ENDMDL
MODEL 7
REMARK VINA RESULT:      -3.1      1.881      2.477
REMARK  Name = 
REMARK  2 active torsions:
REMARK  status: ('A' for Active; 'I' for Inactive)
REMARK    1  A    between atoms: S_2  and  C_5
REMARK    2  A    between atoms: C_5  and  C_6
REMARK                            x       y       z     vdW  Elec       q    Type
REMARK                         _______ _______ _______ _____ _____    ______ ____
ROOT
ATOM      1  O   UNL     1       7.427   7.109 -11.830  0.00  0.00    -0.371 OA
ATOM      2  S   UNL     1       7.046   5.699 -11.443  0.00  0.00    -0.106 S 
ATOM      3  O   UNL     1       7.660   4.581 -12.543  0.00  0.00    -0.291 OA
ATOM      4  O   UNL     1       7.634   5.473 -10.068  0.00  0.00    -0.371 OA
ENDROOT
BRANCH   2   5
ATOM      5  C   UNL     1       5.317   5.457 -11.325  0.00  0.00    +0.138 C 
BRANCH   5   6
ATOM      6  C   UNL     1       4.714   5.911 -10.025  0.00  0.00    +0.092 C 
ATOM      7  S   UNL     1       3.963   4.549  -9.096  0.00  0.00    -0.080 S 
ENDBRANCH   5   6
ENDBRANCH   2   5
TORSDOF 2
ENDMDL
MODEL 8
REMARK VINA RESULT:      -3.0      6.894      7.389
REMARK  Name = 
REMARK  2 active torsions:
REMARK  status: ('A' for Active; 'I' for Inactive)
REMARK    1  A    between atoms: S_2  and  C_5
REMARK    2  A    between atoms: C_5  and  C_6
REMARK                            x       y       z     vdW  Elec       q    Type
REMARK                         _______ _______ _______ _____ _____    ______ ____
ROOT
ATOM      1  O   UNL     1       3.358   7.367  -6.208  0.00  0.00    -0.371 OA
ATOM      2  S   UNL     1       2.142   7.250  -7.098  0.00  0.00    -0.106 S 
ATOM      3  O   UNL     1       0.733   7.115  -6.187  0.00  0.00    -0.291 OA
ATOM      4  O   UNL     1       2.118   8.512  -7.933  0.00  0.00    -0.371 OA
ENDROOT
BRANCH   2   5
ATOM      5  C   UNL     1       2.216   5.890  -8.197  0.00  0.00    +0.138 C 
BRANCH   5   6
ATOM      6  C   UNL     1       2.972   4.705  -7.667  0.00  0.00    +0.092 C 
ATOM      7  S   UNL     1       2.074   3.842  -6.350  0.00  0.00    -0.080 S 
ENDBRANCH   5   6
ENDBRANCH   2   5
TORSDOF 2
ENDMDL
MODEL 9
REMARK VINA RESULT:      -3.0     10.667     11.841
REMARK  Name = 
REMARK  2 active torsions:
REMARK  status: ('A' for Active; 'I' for Inactive)
REMARK    1  A    between atoms: S_2  and  C_5
REMARK    2  A    between atoms: C_5  and  C_6
REMARK                            x       y       z     vdW  Elec       q    Type
REMARK                         _______ _______ _______ _____ _____    ______ ____
ROOT
ATOM      1  O   UNL     1      -2.731   4.677  -2.738  0.00  0.00    -0.371 OA
ATOM      2  S   UNL     1      -2.013   5.711  -3.575  0.00  0.00    -0.106 S 
ATOM      3  O   UNL     1      -2.648   5.778  -5.133  0.00  0.00    -0.291 OA
ATOM      4  O   UNL     1      -2.210   7.030  -2.861  0.00  0.00    -0.371 OA
ENDROOT
BRANCH   2   5
ATOM      5  C   UNL     1      -0.291   5.427  -3.698  0.00  0.00    +0.138 C 
BRANCH   5   6
ATOM      6  C   UNL     1       0.314   5.840  -5.010  0.00  0.00    +0.092 C 
ATOM      7  S   UNL     1       1.141   4.467  -5.854  0.00  0.00    -0.080 S 
ENDBRANCH   5   6
ENDBRANCH   2   5
TORSDOF 2
ENDMDL
