MODEL 1
REMARK VINA RESULT:      -5.3      0.000      0.000
REMARK  Name = 
REMARK  0 active torsions:
REMARK  status: ('A' for Active; 'I' for Inactive)
REMARK                            x       y       z     vdW  Elec       q    Type
REMARK                         _______ _______ _______ _____ _____    ______ ____
ROOT
ATOM      1  C   UNL     1      -1.123   5.853  -6.189  0.00  0.00    +0.137 C 
ATOM      2  N   UNL     1      -0.721   5.730  -4.795  0.00  0.00    -0.263 N 
ATOM      3  C   UNL     1       0.496   6.177  -4.398  0.00  0.00    +0.335 A 
ATOM      4  O   UNL     1       1.315   6.677  -5.203  0.00  0.00    -0.246 OA
ATOM      5  N   UNL     1       0.938   5.817  -3.169  0.00  0.00    -0.245 N 
ATOM      6  C   UNL     1       2.279   6.174  -2.713  0.00  0.00    +0.138 C 
ATOM      7  C   UNL     1       0.067   5.148  -2.374  0.00  0.00    +0.285 A 
ATOM      8  O   UNL     1       0.442   4.715  -1.259  0.00  0.00    -0.265 OA
ATOM      9  C   UNL     1      -1.287   5.292  -2.597  0.00  0.00    +0.173 A 
ATOM     10  N   UNL     1      -2.400   5.354  -1.835  0.00  0.00    -0.216 NA
ATOM     11  C   UNL     1      -3.396   5.966  -2.525  0.00  0.00    +0.200 A 
ATOM     12  N   UNL     1      -3.013   5.885  -3.807  0.00  0.00    -0.205 NA
ATOM     13  C   UNL     1      -1.717   5.517  -3.900  0.00  0.00    +0.172 A 
ENDROOT
TORSDOF 0
ENDMDL
MODEL 2
REMARK VINA RESULT:      -5.3      8.411     10.214
REMARK  Name = 
REMARK  0 active torsions:
REMARK  status: ('A' for Active; 'I' for Inactive)
REMARK                            x       y       z     vdW  Elec       q    Type
REMARK                         _______ _______ _______ _____ _____    ______ ____
ROOT
ATOM      1  C   UNL     1       8.107   5.764 -11.314  0.00  0.00    +0.137 C 
ATOM      2  N   UNL     1       6.652   5.760 -11.361  0.00  0.00    -0.263 N 
ATOM      3  C   UNL     1       6.009   5.308 -12.465  0.00  0.00    +0.335 A 
ATOM      4  O   UNL     1       6.630   4.911 -13.478  0.00  0.00    -0.246 OA
ATOM      5  N   UNL     1       4.682   5.556 -12.578  0.00  0.00    -0.245 N 
ATOM      6  C   UNL     1       3.944   5.191 -13.785  0.00  0.00    +0.138 C 
ATOM      7  C   UNL     1       4.069   6.121 -11.510  0.00  0.00    +0.285 A 
ATOM      8  O   UNL     1       2.862   6.452 -11.581  0.00  0.00    -0.265 OA
ATOM      9  C   UNL     1       4.630   5.965 -10.258  0.00  0.00    +0.173 A 
ATOM     10  N   UNL     1       4.174   5.799  -8.999  0.00  0.00    -0.216 NA
ATOM     11  C   UNL     1       5.138   5.232  -8.231  0.00  0.00    +0.200 A 
ATOM     12  N   UNL     1       6.274   5.449  -8.908  0.00  0.00    -0.205 NA
ATOM     13  C   UNL     1       6.013   5.858 -10.168  0.00  0.00    +0.172 A 
ENDROOT
TORSDOF 0
ENDMDL
MODEL 3
REMARK VINA RESULT:      -5.2      1.217      3.266
REMARK  Name = 
REMARK  0 active torsions:
REMARK  status: ('A' for Active; 'I' for Inactive)
REMARK                            x       y       z     vdW  Elec       q    Type
REMARK                         _______ _______ _______ _____ _____    ______ ____
ROOT
ATOM      1  C   UNL     1      -3.119   5.543  -3.361  0.00  0.00    +0.137 C 
ATOM      2  N   UNL     1      -1.716   5.721  -3.708  0.00  0.00    -0.263 N 
ATOM      3  C   UNL     1      -0.750   5.392  -2.816  0.00  0.00    +0.335 A 
ATOM      4  O   UNL     1      -1.021   4.957  -1.674  0.00  0.00    -0.246 OA
ATOM      5  N   UNL     1       0.516   5.808  -3.065  0.00  0.00    -0.245 N 
ATOM      6  C   UNL     1       1.590   5.580  -2.100  0.00  0.00    +0.138 C 
ATOM      7  C   UNL     1       0.743   6.407  -4.259  0.00  0.00    +0.285 A 
ATOM      8  O   UNL     1       1.872   6.888  -4.515  0.00  0.00    -0.265 OA
ATOM      9  C   UNL     1      -0.106   6.138  -5.313  0.00  0.00    +0.173 A 
ATOM     10  N   UNL     1       0.016   5.986  -6.649  0.00  0.00    -0.216 NA
ATOM     11  C   UNL     1      -1.036   5.277  -7.130  0.00  0.00    +0.200 A 
ATOM     12  N   UNL     1      -1.969   5.374  -6.172  0.00  0.00    -0.205 NA
ATOM     13  C   UNL     1      -1.437   5.857  -5.028  0.00  0.00    +0.172 A 
ENDROOT
TORSDOF 0
ENDMDL
MODEL 4
REMARK VINA RESULT:      -5.2      1.946      3.483
REMARK  Name = 
REMARK  0 active torsions:
REMARK  status: ('A' for Active; 'I' for Inactive)
REMARK                            x       y       z     vdW  Elec       q    Type
REMARK                         _______ _______ _______ _____ _____    ______ ____
ROOT
ATOM      1  C   UNL     1      -2.491   5.731  -6.266  0.00  0.00    +0.137 C 
ATOM      2  N   UNL     1      -1.576   5.679  -5.135  0.00  0.00    -0.263 N 
ATOM      3  C   UNL     1      -2.058   5.497  -3.880  0.00  0.00    +0.335 A 
ATOM      4  O   UNL     1      -3.284   5.397  -3.648  0.00  0.00    -0.246 OA
ATOM      5  N   UNL     1      -1.219   5.711  -2.838  0.00  0.00    -0.245 N 
ATOM      6  C   UNL     1      -1.693   5.635  -1.458  0.00  0.00    +0.138 C 
ATOM      7  C   UNL     1       0.080   5.959  -3.135  0.00  0.00    +0.285 A 
ATOM      8  O   UNL     1       0.888   6.247  -2.221  0.00  0.00    -0.265 OA
ATOM      9  C   UNL     1       0.587   5.513  -4.338  0.00  0.00    +0.173 A 
ATOM     10  N   UNL     1       1.763   5.013  -4.775  0.00  0.00    -0.216 NA
ATOM     11  C   UNL     1       1.567   4.309  -5.919  0.00  0.00    +0.200 A 
ATOM     12  N   UNL     1       0.381   4.738  -6.375  0.00  0.00    -0.205 NA
ATOM     13  C   UNL     1      -0.273   5.444  -5.428  0.00  0.00    +0.172 A 
ENDROOT
TORSDOF 0
ENDMDL
MODEL 5
REMARK VINA RESULT:      -5.0      2.453      4.110
REMARK  Name = 
REMARK  0 active torsions:
REMARK  status: ('A' for Active; 'I' for Inactive)
REMARK                            x       y       z     vdW  Elec       q    Type
REMARK                         _______ _______ _______ _____ _____    ______ ____
ROOT
ATOM      1  C   UNL     1       1.464   5.759  -3.576  0.00  0.00    +0.137 C 
ATOM      2  N   UNL     1       1.051   5.520  -4.951  0.00  0.00    -0.263 N 
ATOM      3  C   UNL     1       1.815   4.751  -5.765  0.00  0.00    +0.335 A 
ATOM      4  O   UNL     1       2.898   4.251  -5.383  0.00  0.00    -0.246 OA
ATOM      5  N   UNL     1       1.543   4.762  -7.093  0.00  0.00    -0.245 N 
ATOM      6  C   UNL     1       2.387   4.042  -8.044  0.00  0.00    +0.138 C 
ATOM      7  C   UNL     1       0.437   5.437  -7.488  0.00  0.00    +0.285 A 
ATOM      8  O   UNL     1       0.177   5.555  -8.709  0.00  0.00    -0.265 OA
ATOM      9  C   UNL     1      -0.584   5.636  -6.581  0.00  0.00    +0.173 A 
ATOM     10  N   UNL     1      -1.933   5.671  -6.623  0.00  0.00    -0.216 NA
ATOM     11  C   UNL     1      -2.438   5.434  -5.386  0.00  0.00    +0.200 A 
ATOM     12  N   UNL     1      -1.414   5.677  -4.556  0.00  0.00    -0.205 NA
ATOM     13  C   UNL     1      -0.252   5.767  -5.238  0.00  0.00    +0.172 A 
ENDROOT
TORSDOF 0
ENDMDL
MODEL 6
REMARK VINA RESULT:      -5.0      9.846     11.616
REMARK  Name = 
REMARK  0 active torsions:
REMARK  status: ('A' for Active; 'I' for Inactive)
REMARK                            x       y       z     vdW  Elec       q    Type
REMARK                         _______ _______ _______ _____ _____    ______ ____
ROOT
ATOM      1  C   UNL     1       2.465   5.580 -13.817  0.00  0.00    +0.137 C 
ATOM      2  N   UNL     1       3.910   5.631 -13.646  0.00  0.00    -0.263 N 
ATOM      3  C   UNL     1       4.687   6.195 -14.603  0.00  0.00    +0.335 A 
ATOM      4  O   UNL     1       4.204   6.660 -15.661  0.00  0.00    -0.246 OA
ATOM      5  N   UNL     1       6.026   5.996 -14.538  0.00  0.00    -0.245 N 
ATOM      6  C   UNL     1       6.915   6.485 -15.588  0.00  0.00    +0.138 C 
ATOM      7  C   UNL     1       6.499   5.359 -13.439  0.00  0.00    +0.285 A 
ATOM      8  O   UNL     1       7.717   5.070 -13.357  0.00  0.00    -0.265 OA
ATOM      9  C   UNL     1       5.757   5.390 -12.276  0.00  0.00    +0.173 A 
ATOM     10  N   UNL     1       6.018   5.459 -10.954  0.00  0.00    -0.216 NA
ATOM     11  C   UNL     1       4.929   5.930 -10.294  0.00  0.00    +0.200 A 
ATOM     12  N   UNL     1       3.913   5.739 -11.148  0.00  0.00    -0.205 NA
ATOM     13  C   UNL     1       4.372   5.448 -12.384  0.00  0.00    +0.172 A 
ENDROOT
TORSDOF 0
ENDMDL
MODEL 7
REMARK VINA RESULT:      -5.0      9.038     11.028
REMARK  Name = 
REMARK  0 active torsions:
REMARK  status: ('A' for Active; 'I' for Inactive)
REMARK                            x       y       z     vdW  Elec       q    Type
REMARK                         _______ _______ _______ _____ _____    ______ ____
ROOT
ATOM      1  C   UNL     1       3.481   5.274 -10.021  0.00  0.00    +0.137 C 
ATOM      2  N   UNL     1       4.545   5.406 -11.006  0.00  0.00    -0.263 N 
ATOM      3  C   UNL     1       4.267   5.875 -12.247  0.00  0.00    +0.335 A 
ATOM      4  O   UNL     1       3.104   6.180 -12.596  0.00  0.00    -0.246 OA
ATOM      5  N   UNL     1       5.214   5.741 -13.207  0.00  0.00    -0.245 N 
ATOM      6  C   UNL     1       4.949   6.128 -14.590  0.00  0.00    +0.138 C 
ATOM      7  C   UNL     1       6.423   5.270 -12.816  0.00  0.00    +0.285 A 
ATOM      8  O   UNL     1       7.314   5.045 -13.668  0.00  0.00    -0.265 OA
ATOM      9  C   UNL     1       6.804   5.419 -11.498  0.00  0.00    +0.173 A 
ATOM     10  N   UNL     1       7.954   5.668 -10.837  0.00  0.00    -0.216 NA
ATOM     11  C   UNL     1       7.679   6.173  -9.608  0.00  0.00    +0.200 A 
ATOM     12  N   UNL     1       6.402   5.833  -9.386  0.00  0.00    -0.205 NA
ATOM     13  C   UNL     1       5.812   5.406 -10.523  0.00  0.00    +0.172 A 
ENDROOT
TORSDOF 0
ENDMDL
MODEL 8
REMARK VINA RESULT:      -5.0      1.471      1.906
REMARK  Name = 
REMARK  0 active torsions:
REMARK  status: ('A' for Active; 'I' for Inactive)
REMARK                            x       y       z     vdW  Elec       q    Type
REMARK                         _______ _______ _______ _____ _____    ______ ____
ROOT
ATOM      1  C   UNL     1       1.291   6.234  -5.685  0.00  0.00    +0.137 C 
ATOM      2  N   UNL     1       1.334   6.014  -4.246  0.00  0.00    -0.263 N 
ATOM      3  C   UNL     1       2.284   6.621  -3.495  0.00  0.00    +0.335 A 
ATOM      4  O   UNL     1       3.161   7.357  -4.001  0.00  0.00    -0.246 OA
ATOM      5  N   UNL     1       2.457   6.197  -2.219  0.00  0.00    -0.245 N 
ATOM      6  C   UNL     1       3.528   6.731  -1.383  0.00  0.00    +0.138 C 
ATOM      7  C   UNL     1       1.569   5.287  -1.749  0.00  0.00    +0.285 A 
ATOM      8  O   UNL     1       1.723   4.794  -0.607  0.00  0.00    -0.265 OA
ATOM      9  C   UNL     1       0.320   5.209  -2.331  0.00  0.00    +0.173 A 
ATOM     10  N   UNL     1      -0.940   4.973  -1.908  0.00  0.00    -0.216 NA
ATOM     11  C   UNL     1      -1.828   5.475  -2.803  0.00  0.00    +0.200 A 
ATOM     12  N   UNL     1      -1.116   5.625  -3.930  0.00  0.00    -0.205 NA
ATOM     13  C   UNL     1       0.206   5.513  -3.683  0.00  0.00    +0.172 A 
ENDROOT
TORSDOF 0
ENDMDL
MODEL 9
REMARK VINA RESULT:      -5.0      1.601      2.052
REMARK  Name = 
REMARK  0 active torsions:
REMARK  status: ('A' for Active; 'I' for Inactive)
REMARK                            x       y       z     vdW  Elec       q    Type
REMARK                         _______ _______ _______ _____ _____    ______ ____
ROOT
ATOM      1  C   UNL     1       1.343   4.846  -5.774  0.00  0.00    +0.137 C 
ATOM      2  N   UNL     1       0.563   5.155  -4.585  0.00  0.00    -0.263 N 
ATOM      3  C   UNL     1       1.189   5.399  -3.407  0.00  0.00    +0.335 A 
ATOM      4  O   UNL     1       2.434   5.340  -3.293  0.00  0.00    -0.246 OA
ATOM      5  N   UNL     1       0.438   5.425  -2.279  0.00  0.00    -0.245 N 
ATOM      6  C   UNL     1       1.054   5.579  -0.964  0.00  0.00    +0.138 C 
ATOM      7  C   UNL     1      -0.906   5.341  -2.433  0.00  0.00    +0.285 A 
ATOM      8  O   UNL     1      -1.650   5.277  -1.426  0.00  0.00    -0.265 OA
ATOM      9  C   UNL     1      -1.466   5.725  -3.635  0.00  0.00    +0.173 A 
ATOM     10  N   UNL     1      -2.600   6.343  -4.029  0.00  0.00    -0.216 NA
ATOM     11  C   UNL     1      -2.425   6.882  -5.262  0.00  0.00    +0.200 A 
ATOM     12  N   UNL     1      -1.362   6.235  -5.761  0.00  0.00    -0.205 NA
ATOM     13  C   UNL     1      -0.719   5.547  -4.793  0.00  0.00    +0.172 A 
ENDROOT
TORSDOF 0
ENDMDL
